MODEL 1
REMARK VINA RESULT:      -9.0      0.000      0.000
REMARK  0 active torsions:
REMARK  status: ('A' for Active; 'I' for Inactive)
REMARK       I    between atoms: O3_1  and  C3_48 
REMARK       I    between atoms: C1_2  and  O1_8 
REMARK       I    between atoms: O2_5  and  C2_76 
REMARK       I    between atoms: O2_5  and  S_66 
REMARK       I    between atoms: C2_7  and  N_46 
REMARK       I    between atoms: O1_8  and  C4_39 
REMARK       I    between atoms: C2_12  and  N_23 
REMARK       I    between atoms: O2S_13  and  S1_25 
REMARK       I    between atoms: C1_14  and  O1_65 
REMARK       I    between atoms: O3_15  and  C3_69 
REMARK       I    between atoms: C5_16  and  C6_31 
REMARK       I    between atoms: C5_17  and  C6_68 
REMARK       I    between atoms: C5_18  and  C6_71 
REMARK       I    between atoms: O3S_19  and  S1_25 
REMARK       I    between atoms: C6_20  and  C5_28 
REMARK       I    between atoms: C6_20  and  O6_74 
REMARK       I    between atoms: C4_21  and  O1_35 
REMARK       I    between atoms: S2_22  and  O6_74 
REMARK       I    between atoms: N_23  and  S1_25 
REMARK       I    between atoms: O1S_24  and  S1_25 
REMARK       I    between atoms: C4_27  and  O1_63 
REMARK       I    between atoms: O1_29  and  C4_49 
REMARK       I    between atoms: O1_29  and  C1_73 
REMARK       I    between atoms: O2_30  and  C2_78 
REMARK       I    between atoms: O3_33  and  C3_42 
REMARK       I    between atoms: O1_35  and  C1_77 
REMARK       I    between atoms: O3S_37  and  S1_50 
REMARK       I    between atoms: C2_38  and  O2_45 
REMARK       I    between atoms: C6_40  and  C5_51 
REMARK       I    between atoms: C3_41  and  O3_67 
REMARK       I    between atoms: N_46  and  S1_50 
REMARK       I    between atoms: O6_47  and  C6_71 
REMARK       I    between atoms: O6_47  and  S2_72 
REMARK       I    between atoms: S1_50  and  O1S_61 
REMARK       I    between atoms: S1_50  and  O2S_54 
REMARK       I    between atoms: O3_56  and  C3_75 
REMARK       I    between atoms: C1_58  and  O1_63 
ROOT
ATOM      1  O3  SGN d 502       3.333  17.182 -20.866  0.00  0.00    -0.391 OA
ATOM      2  C1  SGN d 502      -0.313  17.209 -19.905  0.00  0.00     0.150 C 
ATOM      3  O6S SGN d 502       1.160  17.983 -13.706  0.00  0.00    -0.572 OA
ATOM      4  C2  SGN d 502       0.979  17.669 -20.634  0.00  0.00     0.081 C 
ATOM      5  O1  SGN d 502      -0.710  15.923 -20.336  0.00  0.00    -0.348 OA
ATOM      6  O5  SGN d 502      -0.116  17.217 -18.484  0.00  0.00    -0.349 OA
ATOM      7  C6  SGN d 502       1.006  16.562 -16.454  0.00  0.00     0.067 C 
ATOM      8  S2  SGN d 502       0.951  18.745 -14.903  0.00  0.00     0.251 S 
ATOM      9  C5  SGN d 502       1.010  16.444 -17.990  0.00  0.00     0.091 C 
ATOM     10  O3S SGN d 502      -0.953  19.322 -22.485  0.00  0.00    -0.296 OA
ATOM     11  N   SGN d 502       0.742  17.615 -22.084  0.00  0.00    -0.210 NA
ATOM     12  C3  SGN d 502       2.150  16.761 -20.213  0.00  0.00     0.083 C 
ATOM     13  C4  SGN d 502       2.334  16.901 -18.684  0.00  0.00     0.095 C 
ATOM     14  S1  SGN d 502       0.383  18.993 -22.896  0.00  0.00     0.156 S 
ATOM     15  O2S SGN d 502       0.459  18.656 -24.288  0.00  0.00    -0.296 OA
ATOM     16  O4S SGN d 502       1.711  19.956 -14.933  0.00  0.00    -0.572 OA
ATOM     17  O1S SGN d 502       1.319  20.007 -22.515  0.00  0.00    -0.296 OA
ATOM     18  O5S SGN d 502      -0.442  18.955 -15.180  0.00  0.00    -0.572 OA
ATOM     19  O6  SGN d 502       1.459  17.851 -16.083  0.00  0.00    -0.254 OA
ATOM     20  H   SGN d 502       3.220  17.095 -21.826  0.00  0.00     0.210 HD
ATOM     21  H   SGN d 502      -1.093  17.898 -20.150  0.00  0.00     0.131 H 
ATOM     22  H   SGN d 502       1.232  18.674 -20.369  0.00  0.00     0.076 H 
ATOM     23  H   SGN d 502       1.656  15.822 -16.036  0.00  0.00     0.080 H 
ATOM     24  H   SGN d 502       0.013  16.411 -16.085  0.00  0.00     0.080 H 
ATOM     25  H   SGN d 502       0.930  15.406 -18.235  0.00  0.00     0.090 H 
ATOM     26  H   SGN d 502      -0.955  19.541 -21.540  0.00  0.00     0.231 HD
ATOM     27  H   SGN d 502      -0.035  16.972 -22.234  0.00  0.00     0.140 HD
ATOM     28  H   SGN d 502       1.948  15.744 -20.476  0.00  0.00     0.089 H 
ATOM     29  H   SGN d 502       2.511  17.887 -18.307  0.00  0.00     0.091 H 
ATOM     30  H   SGN d 502      -0.194  17.968 -24.490  0.00  0.00     0.231 HD
ATOM     31  H   SGN d 502       1.224  20.194 -21.567  0.00  0.00     0.231 HD
ATOM     32  O62 IDS d 503       7.154  17.861 -21.159  0.00  0.00    -0.646 OA
ATOM     33  O2  IDS d 503       5.729  15.769 -15.689  0.00  0.00    -0.244 OA
ATOM     34  O5  IDS d 503       5.338  17.457 -18.193  0.00  0.00    -0.340 OA
ATOM     35  C5  IDS d 503       6.173  16.896 -19.215  0.00  0.00     0.152 C 
ATOM     36  C4  IDS d 503       7.169  15.910 -18.563  0.00  0.00     0.103 C 
ATOM     37  O61 IDS d 503       7.006  19.123 -19.520  0.00  0.00    -0.646 OA
ATOM     38  O1  IDS d 503       3.464  16.067 -18.434  0.00  0.00    -0.348 OA
ATOM     39  C6  IDS d 503       6.816  18.029 -20.009  0.00  0.00     0.206 C 
ATOM     40  O1S IDS d 503       5.316  14.077 -14.039  0.00  0.00    -0.572 OA
ATOM     41  O3S IDS d 503       3.774  15.884 -14.290  0.00  0.00    -0.572 OA
ATOM     42  C3  IDS d 503       6.382  14.806 -17.805  0.00  0.00     0.094 C 
ATOM     43  O2S IDS d 503       5.935  16.291 -13.377  0.00  0.00    -0.572 OA
ATOM     44  S   IDS d 503       5.150  15.482 -14.264  0.00  0.00     0.252 S 
ATOM     45  O3  IDS d 503       5.856  13.904 -18.761  0.00  0.00    -0.390 OA
ATOM     46  C1  IDS d 503       4.441  16.556 -17.555  0.00  0.00     0.161 C 
ATOM     47  C2  IDS d 503       5.212  15.356 -16.940  0.00  0.00     0.134 C 
ATOM     48  H   IDS d 503       5.615  16.323 -19.925  0.00  0.00     0.104 H 
ATOM     49  H   IDS d 503       7.759  15.525 -19.369  0.00  0.00     0.092 H 
ATOM     50  H   IDS d 503       7.066  14.333 -17.131  0.00  0.00     0.091 H 
ATOM     51  H   IDS d 503       5.244  14.375 -19.347  0.00  0.00     0.210 HD
ATOM     52  H   IDS d 503       3.951  17.110 -16.782  0.00  0.00     0.133 H 
ATOM     53  H   IDS d 503       4.510  14.552 -16.863  0.00  0.00     0.097 H 
ATOM     54  C4  IDS d 505      13.719  22.984 -16.097  0.00  0.00    -0.005 C 
ATOM     55  C5  IDS d 505      13.545  21.568 -15.453  0.00  0.00     0.127 C 
ATOM     56  O2  IDS d 505      11.517  22.202 -19.065  0.00  0.00    -0.388 OA
ATOM     57  O62 IDS d 505      15.577  20.453 -14.825  0.00  0.00    -0.646 OA
ATOM     58  C1  IDS d 505      12.345  20.655 -17.405  0.00  0.00     0.159 C 
ATOM     59  O5  IDS d 505      13.452  20.565 -16.493  0.00  0.00    -0.343 OA
ATOM     60  O1  IDS d 505      11.205  20.019 -16.897  0.00  0.00    -0.348 OA
ATOM     61  O61 IDS d 505      14.718  21.670 -13.382  0.00  0.00    -0.646 OA
ATOM     62  C6  IDS d 505      14.682  21.205 -14.498  0.00  0.00     0.203 C 
ATOM     63  C3  IDS d 505      13.183  23.040 -17.551  0.00  0.00     0.068 C 
ATOM     64  C2  IDS d 505      11.961  22.124 -17.723  0.00  0.00     0.107 C 
ATOM     65  H   IDS d 505      13.186  23.699 -15.505  0.00  0.00     0.041 H 
ATOM     66  H   IDS d 505      14.766  23.204 -16.125  0.00  0.00     0.041 H 
ATOM     67  H   IDS d 505      12.643  21.598 -14.879  0.00  0.00     0.100 H 
ATOM     68  H   IDS d 505      10.745  21.627 -19.183  0.00  0.00     0.210 HD
ATOM     69  H   IDS d 505      12.674  20.169 -18.301  0.00  0.00     0.133 H 
ATOM     70  H   IDS d 505      13.947  22.704 -18.221  0.00  0.00     0.087 H 
ATOM     71  H   IDS d 505      11.188  22.438 -17.053  0.00  0.00     0.094 H 
ATOM     72  O4S SGN d 504      14.198  17.487 -20.968  0.00  0.00    -0.572 OA
ATOM     73  C2  SGN d 504      10.147  16.522 -16.342  0.00  0.00     0.081 C 
ATOM     74  O2S SGN d 504      10.043  14.342 -13.376  0.00  0.00    -0.296 OA
ATOM     75  C5  SGN d 504      10.167  18.303 -18.644  0.00  0.00     0.091 C 
ATOM     76  O3S SGN d 504       8.798  13.476 -15.217  0.00  0.00    -0.296 OA
ATOM     77  N   SGN d 504       9.451  15.832 -15.241  0.00  0.00    -0.210 NA
ATOM     78  O1S SGN d 504      11.108  13.957 -15.482  0.00  0.00    -0.296 OA
ATOM     79  S1  SGN d 504       9.895  14.308 -14.803  0.00  0.00     0.156 S 
ATOM     80  C4  SGN d 504      10.937  18.682 -17.333  0.00  0.00     0.095 C 
ATOM     81  O1  SGN d 504       8.046  16.514 -17.607  0.00  0.00    -0.348 OA
ATOM     82  O6S SGN d 504      13.165  19.464 -21.830  0.00  0.00    -0.572 OA
ATOM     83  O6  SGN d 504      12.096  18.239 -20.068  0.00  0.00    -0.254 OA
ATOM     84  O5S SGN d 504      12.195  17.327 -22.262  0.00  0.00    -0.572 OA
ATOM     85  O3  SGN d 504      10.843  18.364 -14.936  0.00  0.00    -0.391 OA
ATOM     86  O5  SGN d 504      10.036  16.861 -18.769  0.00  0.00    -0.349 OA
ATOM     87  C6  SGN d 504      10.809  18.809 -19.945  0.00  0.00     0.067 C 
ATOM     88  S2  SGN d 504      12.975  18.124 -21.355  0.00  0.00     0.251 S 
ATOM     89  C3  SGN d 504      10.171  18.054 -16.142  0.00  0.00     0.083 C 
ATOM     90  C1  SGN d 504       9.417  16.184 -17.672  0.00  0.00     0.150 C 
ATOM     91  H   SGN d 504      11.163  16.187 -16.365  0.00  0.00     0.076 H 
ATOM     92  H   SGN d 504       9.197  14.583 -12.969  0.00  0.00     0.231 HD
ATOM     93  H   SGN d 504       9.221  18.790 -18.533  0.00  0.00     0.090 H 
ATOM     94  H   SGN d 504       7.996  13.739 -14.741  0.00  0.00     0.231 HD
ATOM     95  H   SGN d 504       8.465  15.787 -15.501  0.00  0.00     0.140 HD
ATOM     96  H   SGN d 504      11.373  13.059 -15.227  0.00  0.00     0.231 HD
ATOM     97  H   SGN d 504      11.907  18.333 -17.621  0.00  0.00     0.091 H 
ATOM     98  H   SGN d 504      10.365  17.972 -14.189  0.00  0.00     0.210 HD
ATOM     99  H   SGN d 504      10.889  19.875 -19.916  0.00  0.00     0.080 H 
ATOM    100  H   SGN d 504      10.205  18.527 -20.782  0.00  0.00     0.080 H 
ATOM    101  H   SGN d 504       9.173  18.438 -16.093  0.00  0.00     0.089 H 
ATOM    102  H   SGN d 504       9.496  15.128 -17.824  0.00  0.00     0.131 H 
ATOM    103  C1  IDS d 501      -4.783  14.296 -20.268  0.00  0.00     0.156 C 
ATOM    104  O3  IDS d 501      -3.166  15.808 -18.002  0.00  0.00    -0.390 OA
ATOM    105  C2  IDS d 501      -4.640  15.803 -19.919  0.00  0.00     0.110 C 
ATOM    106  C4  IDS d 501      -2.069  15.520 -20.124  0.00  0.00     0.103 C 
ATOM    107  C6  IDS d 501      -1.296  13.218 -21.045  0.00  0.00     0.206 C 
ATOM    108  C3  IDS d 501      -3.245  16.195 -19.359  0.00  0.00     0.092 C 
ATOM    109  O5  IDS d 501      -3.631  13.846 -20.978  0.00  0.00    -0.340 OA
ATOM    110  O2  IDS d 501      -4.876  16.549 -21.100  0.00  0.00    -0.388 OA
ATOM    111  C5  IDS d 501      -2.372  14.007 -20.300  0.00  0.00     0.152 C 
ATOM    112  O62 IDS d 501      -0.473  12.574 -20.438  0.00  0.00    -0.646 OA
ATOM    113  O61 IDS d 501      -1.236  13.216 -22.255  0.00  0.00    -0.646 OA
ATOM    114  O1  IDS d 501      -4.991  13.573 -19.083  0.00  0.00    -0.368 OA
ATOM    115  H   IDS d 501      -5.626  14.139 -20.908  0.00  0.00     0.133 H 
ATOM    116  H   IDS d 501      -3.891  16.218 -17.505  0.00  0.00     0.210 HD
ATOM    117  H   IDS d 501      -5.350  16.015 -19.147  0.00  0.00     0.094 H 
ATOM    118  H   IDS d 501      -2.066  16.320 -20.835  0.00  0.00     0.092 H 
ATOM    119  H   IDS d 501      -3.148  17.254 -19.477  0.00  0.00     0.091 H 
ATOM    120  H   IDS d 501      -4.209  16.321 -21.765  0.00  0.00     0.210 HD
ATOM    121  H   IDS d 501      -2.399  13.603 -19.310  0.00  0.00     0.104 H 
ATOM    122  H   IDS d 501      -4.235  13.703 -18.489  0.00  0.00     0.212 HD
ATOM    123  O3  IDS d 535      12.817  24.373 -17.841  0.00  0.00    -0.393 OA
ATOM    124  H   IDS d 535      13.588  24.951 -17.732  0.00  0.00     0.210 HD
ENDROOT
TORSDOF 37
ENDMDL
MODEL 2
REMARK VINA RESULT:      -8.8      2.606     12.874
REMARK  0 active torsions:
REMARK  status: ('A' for Active; 'I' for Inactive)
REMARK       I    between atoms: O3_1  and  C3_48 
REMARK       I    between atoms: C1_2  and  O1_8 
REMARK       I    between atoms: O2_5  and  C2_76 
REMARK       I    between atoms: O2_5  and  S_66 
REMARK       I    between atoms: C2_7  and  N_46 
REMARK       I    between atoms: O1_8  and  C4_39 
REMARK       I    between atoms: C2_12  and  N_23 
REMARK       I    between atoms: O2S_13  and  S1_25 
REMARK       I    between atoms: C1_14  and  O1_65 
REMARK       I    between atoms: O3_15  and  C3_69 
REMARK       I    between atoms: C5_16  and  C6_31 
REMARK       I    between atoms: C5_17  and  C6_68 
REMARK       I    between atoms: C5_18  and  C6_71 
REMARK       I    between atoms: O3S_19  and  S1_25 
REMARK       I    between atoms: C6_20  and  C5_28 
REMARK       I    between atoms: C6_20  and  O6_74 
REMARK       I    between atoms: C4_21  and  O1_35 
REMARK       I    between atoms: S2_22  and  O6_74 
REMARK       I    between atoms: N_23  and  S1_25 
REMARK       I    between atoms: O1S_24  and  S1_25 
REMARK       I    between atoms: C4_27  and  O1_63 
REMARK       I    between atoms: O1_29  and  C4_49 
REMARK       I    between atoms: O1_29  and  C1_73 
REMARK       I    between atoms: O2_30  and  C2_78 
REMARK       I    between atoms: O3_33  and  C3_42 
REMARK       I    between atoms: O1_35  and  C1_77 
REMARK       I    between atoms: O3S_37  and  S1_50 
REMARK       I    between atoms: C2_38  and  O2_45 
REMARK       I    between atoms: C6_40  and  C5_51 
REMARK       I    between atoms: C3_41  and  O3_67 
REMARK       I    between atoms: N_46  and  S1_50 
REMARK       I    between atoms: O6_47  and  C6_71 
REMARK       I    between atoms: O6_47  and  S2_72 
REMARK       I    between atoms: S1_50  and  O1S_61 
REMARK       I    between atoms: S1_50  and  O2S_54 
REMARK       I    between atoms: O3_56  and  C3_75 
REMARK       I    between atoms: C1_58  and  O1_63 
ROOT
ATOM      1  O3  SGN d 502       8.166  19.347 -19.730  0.00  0.00    -0.391 OA
ATOM      2  C1  SGN d 502      11.803  18.364 -19.869  0.00  0.00     0.150 C 
ATOM      3  O6S SGN d 502      10.395  12.310 -18.269  0.00  0.00    -0.572 OA
ATOM      4  C2  SGN d 502      10.448  18.915 -20.391  0.00  0.00     0.081 C 
ATOM      5  O1  SGN d 502      12.343  19.206 -18.870  0.00  0.00    -0.348 OA
ATOM      6  O5  SGN d 502      11.641  17.032 -19.362  0.00  0.00    -0.349 OA
ATOM      7  C6  SGN d 502      10.655  15.376 -17.914  0.00  0.00     0.067 C 
ATOM      8  S2  SGN d 502      10.482  13.165 -19.416  0.00  0.00     0.251 S 
ATOM      9  C5  SGN d 502      10.629  16.858 -18.334  0.00  0.00     0.091 C 
ATOM     10  O3S SGN d 502      12.120  20.042 -22.804  0.00  0.00    -0.296 OA
ATOM     11  N   SGN d 502      10.655  20.289 -20.870  0.00  0.00    -0.210 NA
ATOM     12  C3  SGN d 502       9.406  18.856 -19.257  0.00  0.00     0.083 C 
ATOM     13  C4  SGN d 502       9.243  17.378 -18.837  0.00  0.00     0.095 C 
ATOM     14  S1  SGN d 502      10.824  20.567 -22.477  0.00  0.00     0.156 S 
ATOM     15  O2S SGN d 502      10.757  21.991 -22.635  0.00  0.00    -0.296 OA
ATOM     16  O4S SGN d 502       9.579  12.790 -20.461  0.00  0.00    -0.572 OA
ATOM     17  O1S SGN d 502       9.781  19.878 -23.175  0.00  0.00    -0.296 OA
ATOM     18  O5S SGN d 502      11.832  13.326 -19.878  0.00  0.00    -0.572 OA
ATOM     19  O6  SGN d 502      10.058  14.591 -18.930  0.00  0.00    -0.254 OA
ATOM     20  H   SGN d 502       8.266  20.275 -19.994  0.00  0.00     0.210 HD
ATOM     21  H   SGN d 502      12.488  18.340 -20.691  0.00  0.00     0.131 H 
ATOM     22  H   SGN d 502      10.081  18.324 -21.204  0.00  0.00     0.076 H 
ATOM     23  H   SGN d 502      10.110  15.253 -17.002  0.00  0.00     0.080 H 
ATOM     24  H   SGN d 502      11.668  15.063 -17.767  0.00  0.00     0.080 H 
ATOM     25  H   SGN d 502      10.829  17.445 -17.463  0.00  0.00     0.090 H 
ATOM     26  H   SGN d 502      12.118  19.079 -22.683  0.00  0.00     0.231 HD
ATOM     27  H   SGN d 502      11.501  20.637 -20.419  0.00  0.00     0.140 HD
ATOM     28  H   SGN d 502       9.724  19.451 -18.427  0.00  0.00     0.089 H 
ATOM     29  H   SGN d 502       8.956  16.687 -19.603  0.00  0.00     0.091 H 
ATOM     30  H   SGN d 502      11.483  22.406 -22.144  0.00  0.00     0.231 HD
ATOM     31  H   SGN d 502       9.875  18.923 -23.033  0.00  0.00     0.231 HD
ATOM     32  O62 IDS d 503       4.285  19.463 -19.996  0.00  0.00    -0.646 OA
ATOM     33  O2  IDS d 503       6.083  15.026 -16.334  0.00  0.00    -0.244 OA
ATOM     34  O5  IDS d 503       6.207  16.784 -18.818  0.00  0.00    -0.340 OA
ATOM     35  C5  IDS d 503       5.421  17.954 -18.547  0.00  0.00     0.152 C 
ATOM     36  C4  IDS d 503       4.569  17.703 -17.282  0.00  0.00     0.103 C 
ATOM     37  O61 IDS d 503       4.317  17.487 -20.622  0.00  0.00    -0.646 OA
ATOM     38  O1  IDS d 503       8.230  17.454 -17.836  0.00  0.00    -0.348 OA
ATOM     39  C6  IDS d 503       4.627  18.320 -19.797  0.00  0.00     0.206 C 
ATOM     40  O1S IDS d 503       6.739  14.055 -14.241  0.00  0.00    -0.572 OA
ATOM     41  O3S IDS d 503       8.043  13.635 -16.197  0.00  0.00    -0.572 OA
ATOM     42  C3  IDS d 503       5.502  17.357 -16.089  0.00  0.00     0.094 C 
ATOM     43  O2S IDS d 503       5.871  12.681 -15.996  0.00  0.00    -0.572 OA
ATOM     44  S   IDS d 503       6.728  13.778 -15.646  0.00  0.00     0.252 S 
ATOM     45  O3  IDS d 503       6.111  18.555 -15.644  0.00  0.00    -0.390 OA
ATOM     46  C1  IDS d 503       7.222  16.479 -17.868  0.00  0.00     0.161 C 
ATOM     47  C2  IDS d 503       6.617  16.332 -16.445  0.00  0.00     0.134 C 
ATOM     48  H   IDS d 503       6.028  18.807 -18.327  0.00  0.00     0.104 H 
ATOM     49  H   IDS d 503       4.011  18.603 -17.130  0.00  0.00     0.092 H 
ATOM     50  H   IDS d 503       4.897  16.902 -15.333  0.00  0.00     0.091 H 
ATOM     51  H   IDS d 503       6.647  18.931 -16.360  0.00  0.00     0.210 HD
ATOM     52  H   IDS d 503       7.658  15.553 -18.177  0.00  0.00     0.133 H 
ATOM     53  H   IDS d 503       7.413  16.524 -15.757  0.00  0.00     0.097 H 
ATOM     54  C4  IDS d 505      -2.732  13.073 -22.211  0.00  0.00    -0.005 C 
ATOM     55  C5  IDS d 505      -2.371  12.955 -20.693  0.00  0.00     0.127 C 
ATOM     56  O2  IDS d 505      -0.522  16.084 -22.778  0.00  0.00    -0.388 OA
ATOM     57  O62 IDS d 505      -4.237  12.791 -19.189  0.00  0.00    -0.646 OA
ATOM     58  C1  IDS d 505      -1.117  15.079 -20.664  0.00  0.00     0.159 C 
ATOM     59  O5  IDS d 505      -2.182  14.275 -20.130  0.00  0.00    -0.343 OA
ATOM     60  O1  IDS d 505       0.104  14.799 -20.036  0.00  0.00    -0.348 OA
ATOM     61  O61 IDS d 505      -3.498  11.000 -19.929  0.00  0.00    -0.646 OA
ATOM     62  C6  IDS d 505      -3.433  12.207 -19.886  0.00  0.00     0.203 C 
ATOM     63  C3  IDS d 505      -2.241  14.408 -22.831  0.00  0.00     0.068 C 
ATOM     64  C2  IDS d 505      -0.922  14.861 -22.187  0.00  0.00     0.107 C 
ATOM     65  H   IDS d 505      -2.276  12.261 -22.737  0.00  0.00     0.041 H 
ATOM     66  H   IDS d 505      -3.798  13.045 -22.297  0.00  0.00     0.041 H 
ATOM     67  H   IDS d 505      -1.467  12.388 -20.633  0.00  0.00     0.100 H 
ATOM     68  H   IDS d 505       0.310  16.379 -22.378  0.00  0.00     0.210 HD
ATOM     69  H   IDS d 505      -1.405  16.093 -20.481  0.00  0.00     0.133 H 
ATOM     70  H   IDS d 505      -2.975  15.167 -22.656  0.00  0.00     0.087 H 
ATOM     71  H   IDS d 505      -0.177  14.109 -22.343  0.00  0.00     0.094 H 
ATOM     72  O4S SGN d 504      -2.655  19.552 -18.720  0.00  0.00    -0.572 OA
ATOM     73  C2  SGN d 504       1.592  15.466 -16.720  0.00  0.00     0.081 C 
ATOM     74  O2S SGN d 504       2.031  13.435 -13.680  0.00  0.00    -0.296 OA
ATOM     75  C5  SGN d 504       1.301  17.011 -19.170  0.00  0.00     0.091 C 
ATOM     76  O3S SGN d 504       3.328  15.437 -13.662  0.00  0.00    -0.296 OA
ATOM     77  N   SGN d 504       2.393  14.658 -15.783  0.00  0.00    -0.210 NA
ATOM     78  O1S SGN d 504       0.972  15.565 -13.919  0.00  0.00    -0.296 OA
ATOM     79  S1  SGN d 504       2.149  14.783 -14.159  0.00  0.00     0.156 S 
ATOM     80  C4  SGN d 504       0.523  15.665 -18.976  0.00  0.00     0.095 C 
ATOM     81  O1  SGN d 504       3.648  16.614 -17.406  0.00  0.00    -0.348 OA
ATOM     82  O6S SGN d 504      -1.891  19.657 -20.984  0.00  0.00    -0.572 OA
ATOM     83  O6  SGN d 504      -0.639  18.407 -19.366  0.00  0.00    -0.254 OA
ATOM     84  O5S SGN d 504      -0.679  20.782 -19.263  0.00  0.00    -0.572 OA
ATOM     85  O3  SGN d 504       0.711  13.524 -17.863  0.00  0.00    -0.391 OA
ATOM     86  O5  SGN d 504       1.604  17.624 -17.887  0.00  0.00    -0.349 OA
ATOM     87  C6  SGN d 504       0.571  18.069 -20.011  0.00  0.00     0.067 C 
ATOM     88  S2  SGN d 504      -1.528  19.672 -19.597  0.00  0.00     0.251 S 
ATOM     89  C3  SGN d 504       1.387  14.749 -18.074  0.00  0.00     0.083 C 
ATOM     90  C1  SGN d 504       2.326  16.816 -16.954  0.00  0.00     0.150 C 
ATOM     91  H   SGN d 504       0.625  15.624 -16.292  0.00  0.00     0.076 H 
ATOM     92  H   SGN d 504       2.852  12.953 -13.867  0.00  0.00     0.231 HD
ATOM     93  H   SGN d 504       2.184  16.719 -19.701  0.00  0.00     0.090 H 
ATOM     94  H   SGN d 504       4.103  14.883 -13.841  0.00  0.00     0.231 HD
ATOM     95  H   SGN d 504       3.370  14.898 -15.951  0.00  0.00     0.140 HD
ATOM     96  H   SGN d 504       0.824  15.641 -12.963  0.00  0.00     0.231 HD
ATOM     97  H   SGN d 504      -0.405  16.074 -18.632  0.00  0.00     0.091 H 
ATOM     98  H   SGN d 504       1.251  12.949 -17.298  0.00  0.00     0.210 HD
ATOM     99  H   SGN d 504       0.363  17.675 -20.984  0.00  0.00     0.080 H 
ATOM    100  H   SGN d 504       1.185  18.940 -20.112  0.00  0.00     0.080 H 
ATOM    101  H   SGN d 504       2.332  14.551 -18.536  0.00  0.00     0.089 H 
ATOM    102  H   SGN d 504       2.372  17.325 -16.015  0.00  0.00     0.131 H 
ATOM    103  C1  IDS d 501      16.584  19.623 -17.831  0.00  0.00     0.156 C 
ATOM    104  O3  IDS d 501      14.850  17.007 -18.257  0.00  0.00    -0.390 OA
ATOM    105  C2  IDS d 501      16.268  18.778 -19.096  0.00  0.00     0.110 C 
ATOM    106  C4  IDS d 501      13.746  19.119 -18.589  0.00  0.00     0.103 C 
ATOM    107  C6  IDS d 501      13.237  20.794 -16.670  0.00  0.00     0.206 C 
ATOM    108  C3  IDS d 501      14.849  18.144 -19.096  0.00  0.00     0.092 C 
ATOM    109  O5  IDS d 501      15.479  20.468 -17.517  0.00  0.00    -0.340 OA
ATOM    110  O2  IDS d 501      16.383  19.623 -20.226  0.00  0.00    -0.388 OA
ATOM    111  C5  IDS d 501      14.226  19.801 -17.279  0.00  0.00     0.152 C 
ATOM    112  O62 IDS d 501      12.513  20.463 -15.760  0.00  0.00    -0.646 OA
ATOM    113  O61 IDS d 501      13.148  21.931 -17.079  0.00  0.00    -0.646 OA
ATOM    114  O1  IDS d 501      16.907  18.758 -16.775  0.00  0.00    -0.368 OA
ATOM    115  H   IDS d 501      17.425  20.261 -18.009  0.00  0.00     0.133 H 
ATOM    116  H   IDS d 501      15.531  16.385 -18.556  0.00  0.00     0.210 HD
ATOM    117  H   IDS d 501      16.965  17.966 -19.113  0.00  0.00     0.094 H 
ATOM    118  H   IDS d 501      13.628  19.509 -19.578  0.00  0.00     0.092 H 
ATOM    119  H   IDS d 501      14.622  17.891 -20.111  0.00  0.00     0.091 H 
ATOM    120  H   IDS d 501      15.733  20.339 -20.162  0.00  0.00     0.210 HD
ATOM    121  H   IDS d 501      14.326  19.011 -16.563  0.00  0.00     0.104 H 
ATOM    122  H   IDS d 501      16.156  18.170 -16.598  0.00  0.00     0.212 HD
ATOM    123  O3  IDS d 535      -2.047  14.211 -24.216  0.00  0.00    -0.393 OA
ATOM    124  H   IDS d 535      -2.880  13.925 -24.622  0.00  0.00     0.210 HD
ENDROOT
TORSDOF 37
ENDMDL
MODEL 3
REMARK VINA RESULT:      -8.7      2.674     12.898
REMARK  0 active torsions:
REMARK  status: ('A' for Active; 'I' for Inactive)
REMARK       I    between atoms: O3_1  and  C3_48 
REMARK       I    between atoms: C1_2  and  O1_8 
REMARK       I    between atoms: O2_5  and  C2_76 
REMARK       I    between atoms: O2_5  and  S_66 
REMARK       I    between atoms: C2_7  and  N_46 
REMARK       I    between atoms: O1_8  and  C4_39 
REMARK       I    between atoms: C2_12  and  N_23 
REMARK       I    between atoms: O2S_13  and  S1_25 
REMARK       I    between atoms: C1_14  and  O1_65 
REMARK       I    between atoms: O3_15  and  C3_69 
REMARK       I    between atoms: C5_16  and  C6_31 
REMARK       I    between atoms: C5_17  and  C6_68 
REMARK       I    between atoms: C5_18  and  C6_71 
REMARK       I    between atoms: O3S_19  and  S1_25 
REMARK       I    between atoms: C6_20  and  C5_28 
REMARK       I    between atoms: C6_20  and  O6_74 
REMARK       I    between atoms: C4_21  and  O1_35 
REMARK       I    between atoms: S2_22  and  O6_74 
REMARK       I    between atoms: N_23  and  S1_25 
REMARK       I    between atoms: O1S_24  and  S1_25 
REMARK       I    between atoms: C4_27  and  O1_63 
REMARK       I    between atoms: O1_29  and  C4_49 
REMARK       I    between atoms: O1_29  and  C1_73 
REMARK       I    between atoms: O2_30  and  C2_78 
REMARK       I    between atoms: O3_33  and  C3_42 
REMARK       I    between atoms: O1_35  and  C1_77 
REMARK       I    between atoms: O3S_37  and  S1_50 
REMARK       I    between atoms: C2_38  and  O2_45 
REMARK       I    between atoms: C6_40  and  C5_51 
REMARK       I    between atoms: C3_41  and  O3_67 
REMARK       I    between atoms: N_46  and  S1_50 
REMARK       I    between atoms: O6_47  and  C6_71 
REMARK       I    between atoms: O6_47  and  S2_72 
REMARK       I    between atoms: S1_50  and  O1S_61 
REMARK       I    between atoms: S1_50  and  O2S_54 
REMARK       I    between atoms: O3_56  and  C3_75 
REMARK       I    between atoms: C1_58  and  O1_63 
ROOT
ATOM      1  O3  SGN d 502       7.021  20.876 -17.572  0.00  0.00    -0.391 OA
ATOM      2  C1  SGN d 502      10.766  20.709 -17.974  0.00  0.00     0.150 C 
ATOM      3  O6S SGN d 502      10.572  14.328 -18.641  0.00  0.00    -0.572 OA
ATOM      4  C2  SGN d 502       9.309  21.141 -18.296  0.00  0.00     0.081 C 
ATOM      5  O1  SGN d 502      11.189  21.233 -16.731  0.00  0.00    -0.348 OA
ATOM      6  O5  SGN d 502      10.876  19.278 -17.972  0.00  0.00    -0.349 OA
ATOM      7  C6  SGN d 502      10.281  17.066 -17.223  0.00  0.00     0.067 C 
ATOM      8  S2  SGN d 502      10.446  15.531 -19.411  0.00  0.00     0.251 S 
ATOM      9  C5  SGN d 502       9.963  18.568 -17.094  0.00  0.00     0.091 C 
ATOM     10  O3S SGN d 502      10.629  23.335 -20.121  0.00  0.00    -0.296 OA
ATOM     11  N   SGN d 502       9.237  22.609 -18.255  0.00  0.00    -0.210 NA
ATOM     12  C3  SGN d 502       8.351  20.494 -17.277  0.00  0.00     0.083 C 
ATOM     13  C4  SGN d 502       8.483  18.959 -17.409  0.00  0.00     0.095 C 
ATOM     14  S1  SGN d 502       9.276  23.458 -19.657  0.00  0.00     0.156 S 
ATOM     15  O2S SGN d 502       8.941  24.808 -19.304  0.00  0.00    -0.296 OA
ATOM     16  O4S SGN d 502       9.578  15.382 -20.539  0.00  0.00    -0.572 OA
ATOM     17  O1S SGN d 502       8.346  22.873 -20.574  0.00  0.00    -0.296 OA
ATOM     18  O5S SGN d 502      11.720  16.094 -19.758  0.00  0.00    -0.572 OA
ATOM     19  O6  SGN d 502       9.791  16.589 -18.462  0.00  0.00    -0.254 OA
ATOM     20  H   SGN d 502       6.936  21.839 -17.490  0.00  0.00     0.210 HD
ATOM     21  H   SGN d 502      11.404  21.104 -18.737  0.00  0.00     0.131 H 
ATOM     22  H   SGN d 502       9.019  20.814 -19.272  0.00  0.00     0.076 H 
ATOM     23  H   SGN d 502       9.812  16.531 -16.424  0.00  0.00     0.080 H 
ATOM     24  H   SGN d 502      11.340  16.918 -17.175  0.00  0.00     0.080 H 
ATOM     25  H   SGN d 502      10.093  18.839 -16.067  0.00  0.00     0.090 H 
ATOM     26  H   SGN d 502      10.810  22.409 -20.347  0.00  0.00     0.231 HD
ATOM     27  H   SGN d 502      10.026  22.929 -17.692  0.00  0.00     0.140 HD
ATOM     28  H   SGN d 502       8.594  20.809 -16.284  0.00  0.00     0.089 H 
ATOM     29  H   SGN d 502       8.292  18.540 -18.375  0.00  0.00     0.091 H 
ATOM     30  H   SGN d 502       9.601  25.153 -18.683  0.00  0.00     0.231 HD
ATOM     31  H   SGN d 502       8.620  21.965 -20.777  0.00  0.00     0.231 HD
ATOM     32  O62 IDS d 503       3.176  20.343 -17.860  0.00  0.00    -0.646 OA
ATOM     33  O2  IDS d 503       5.932  15.329 -15.962  0.00  0.00    -0.244 OA
ATOM     34  O5  IDS d 503       5.612  17.835 -17.663  0.00  0.00    -0.340 OA
ATOM     35  C5  IDS d 503       4.639  18.665 -17.013  0.00  0.00     0.152 C 
ATOM     36  C4  IDS d 503       3.908  17.831 -15.936  0.00  0.00     0.103 C 
ATOM     37  O61 IDS d 503       3.542  18.755 -19.142  0.00  0.00    -0.646 OA
ATOM     38  O1  IDS d 503       7.522  18.487 -16.467  0.00  0.00    -0.348 OA
ATOM     39  C6  IDS d 503       3.732  19.289 -18.070  0.00  0.00     0.206 C 
ATOM     40  O1S IDS d 503       6.854  13.828 -14.333  0.00  0.00    -0.572 OA
ATOM     41  O3S IDS d 503       8.118  14.374 -16.284  0.00  0.00    -0.572 OA
ATOM     42  C3  IDS d 503       4.945  17.272 -14.923  0.00  0.00     0.094 C 
ATOM     43  O2S IDS d 503       6.171  13.019 -16.478  0.00  0.00    -0.572 OA
ATOM     44  S   IDS d 503       6.826  14.064 -15.746  0.00  0.00     0.252 S 
ATOM     45  O3  IDS d 503       5.344  18.331 -14.072  0.00  0.00    -0.390 OA
ATOM     46  C1  IDS d 503       6.710  17.414 -16.862  0.00  0.00     0.161 C 
ATOM     47  C2  IDS d 503       6.210  16.667 -15.595  0.00  0.00     0.134 C 
ATOM     48  H   IDS d 503       5.089  19.486 -16.494  0.00  0.00     0.104 H 
ATOM     49  H   IDS d 503       3.202  18.499 -15.488  0.00  0.00     0.092 H 
ATOM     50  H   IDS d 503       4.470  16.476 -14.388  0.00  0.00     0.091 H 
ATOM     51  H   IDS d 503       5.767  19.027 -14.598  0.00  0.00     0.210 HD
ATOM     52  H   IDS d 503       7.294  16.755 -17.468  0.00  0.00     0.133 H 
ATOM     53  H   IDS d 503       6.990  16.752 -14.866  0.00  0.00     0.097 H 
ATOM     54  C4  IDS d 505      -2.644  13.932 -22.331  0.00  0.00    -0.005 C 
ATOM     55  C5  IDS d 505      -2.196  13.360 -20.945  0.00  0.00     0.127 C 
ATOM     56  O2  IDS d 505      -1.055  17.310 -21.753  0.00  0.00    -0.388 OA
ATOM     57  O62 IDS d 505      -3.927  12.331 -19.635  0.00  0.00    -0.646 OA
ATOM     58  C1  IDS d 505      -1.353  15.535 -20.143  0.00  0.00     0.159 C 
ATOM     59  O5  IDS d 505      -2.226  14.410 -19.949  0.00  0.00    -0.343 OA
ATOM     60  O1  IDS d 505      -0.073  15.289 -19.629  0.00  0.00    -0.348 OA
ATOM     61  O61 IDS d 505      -2.907  11.086 -20.943  0.00  0.00    -0.646 OA
ATOM     62  C6  IDS d 505      -3.062  12.191 -20.476  0.00  0.00     0.203 C 
ATOM     63  C3  IDS d 505      -2.437  15.466 -22.430  0.00  0.00     0.068 C 
ATOM     64  C2  IDS d 505      -1.195  15.906 -21.641  0.00  0.00     0.107 C 
ATOM     65  H   IDS d 505      -2.072  13.457 -23.100  0.00  0.00     0.041 H 
ATOM     66  H   IDS d 505      -3.690  13.735 -22.444  0.00  0.00     0.041 H 
ATOM     67  H   IDS d 505      -1.201  12.989 -21.070  0.00  0.00     0.100 H 
ATOM     68  H   IDS d 505      -0.272  17.597 -21.258  0.00  0.00     0.210 HD
ATOM     69  H   IDS d 505      -1.814  16.347 -19.620  0.00  0.00     0.133 H 
ATOM     70  H   IDS d 505      -3.289  15.963 -22.014  0.00  0.00     0.087 H 
ATOM     71  H   IDS d 505      -0.332  15.410 -22.036  0.00  0.00     0.094 H 
ATOM     72  O4S SGN d 504      -3.593  18.669 -16.778  0.00  0.00    -0.572 OA
ATOM     73  C2  SGN d 504       1.423  15.021 -16.261  0.00  0.00     0.081 C 
ATOM     74  O2S SGN d 504       2.372  12.176 -14.124  0.00  0.00    -0.296 OA
ATOM     75  C5  SGN d 504       0.737  17.241 -18.014  0.00  0.00     0.091 C 
ATOM     76  O3S SGN d 504       3.278  14.251 -13.375  0.00  0.00    -0.296 OA
ATOM     77  N   SGN d 504       2.403  14.102 -15.653  0.00  0.00    -0.210 NA
ATOM     78  O1S SGN d 504       0.929  14.014 -13.618  0.00  0.00    -0.296 OA
ATOM     79  S1  SGN d 504       2.217  13.602 -14.095  0.00  0.00     0.156 S 
ATOM     80  C4  SGN d 504       0.229  15.791 -18.323  0.00  0.00     0.095 C 
ATOM     81  O1  SGN d 504       3.198  16.702 -16.455  0.00  0.00    -0.348 OA
ATOM     82  O6S SGN d 504      -2.970  19.702 -18.843  0.00  0.00    -0.572 OA
ATOM     83  O6  SGN d 504      -1.434  18.225 -17.745  0.00  0.00    -0.254 OA
ATOM     84  O5S SGN d 504      -1.905  20.360 -16.811  0.00  0.00    -0.572 OA
ATOM     85  O3  SGN d 504       0.860  13.473 -18.034  0.00  0.00    -0.391 OA
ATOM     86  O5  SGN d 504       0.983  17.411 -16.591  0.00  0.00    -0.349 OA
ATOM     87  C6  SGN d 504      -0.214  18.369 -18.442  0.00  0.00     0.067 C 
ATOM     88  S2  SGN d 504      -2.550  19.298 -17.533  0.00  0.00     0.251 S 
ATOM     89  C3  SGN d 504       1.289  14.798 -17.784  0.00  0.00     0.083 C 
ATOM     90  C1  SGN d 504       1.884  16.479 -15.989  0.00  0.00     0.150 C 
ATOM     91  H   SGN d 504       0.465  14.833 -15.825  0.00  0.00     0.076 H 
ATOM     92  H   SGN d 504       3.257  11.953 -14.453  0.00  0.00     0.231 HD
ATOM     93  H   SGN d 504       1.632  17.326 -18.595  0.00  0.00     0.090 H 
ATOM     94  H   SGN d 504       4.133  13.951 -13.721  0.00  0.00     0.231 HD
ATOM     95  H   SGN d 504       3.310  14.565 -15.706  0.00  0.00     0.140 HD
ATOM     96  H   SGN d 504       0.816  13.721 -12.700  0.00  0.00     0.231 HD
ATOM     97  H   SGN d 504      -0.740  15.871 -17.876  0.00  0.00     0.091 H 
ATOM     98  H   SGN d 504       1.523  12.849 -17.697  0.00  0.00     0.210 HD
ATOM     99  H   SGN d 504      -0.393  18.308 -19.496  0.00  0.00     0.080 H 
ATOM    100  H   SGN d 504       0.224  19.319 -18.217  0.00  0.00     0.080 H 
ATOM    101  H   SGN d 504       2.231  14.956 -18.267  0.00  0.00     0.089 H 
ATOM    102  H   SGN d 504       1.881  16.627 -14.929  0.00  0.00     0.131 H 
ATOM    103  C1  IDS d 501      15.326  22.052 -15.524  0.00  0.00     0.156 C 
ATOM    104  O3  IDS d 501      14.084  19.473 -16.881  0.00  0.00    -0.390 OA
ATOM    105  C2  IDS d 501      15.111  21.660 -17.012  0.00  0.00     0.110 C 
ATOM    106  C4  IDS d 501      12.596  21.319 -16.470  0.00  0.00     0.103 C 
ATOM    107  C6  IDS d 501      11.880  22.088 -14.094  0.00  0.00     0.206 C 
ATOM    108  C3  IDS d 501      13.833  20.811 -17.265  0.00  0.00     0.092 C 
ATOM    109  O5  IDS d 501      14.100  22.509 -14.955  0.00  0.00    -0.340 OA
ATOM    110  O2  IDS d 501      15.015  22.852 -17.769  0.00  0.00    -0.388 OA
ATOM    111  C5  IDS d 501      13.004  21.577 -14.994  0.00  0.00     0.152 C 
ATOM    112  O62 IDS d 501      11.273  21.330 -13.375  0.00  0.00    -0.646 OA
ATOM    113  O61 IDS d 501      11.564  23.258 -14.077  0.00  0.00    -0.646 OA
ATOM    114  O1  IDS d 501      15.852  20.949 -14.835  0.00  0.00    -0.368 OA
ATOM    115  H   IDS d 501      16.026  22.859 -15.449  0.00  0.00     0.133 H 
ATOM    116  H   IDS d 501      14.853  19.136 -17.367  0.00  0.00     0.210 HD
ATOM    117  H   IDS d 501      15.943  21.052 -17.300  0.00  0.00     0.094 H 
ATOM    118  H   IDS d 501      12.362  22.001 -17.260  0.00  0.00     0.092 H 
ATOM    119  H   IDS d 501      13.609  20.891 -18.308  0.00  0.00     0.091 H 
ATOM    120  H   IDS d 501      14.248  23.365 -17.470  0.00  0.00     0.210 HD
ATOM    121  H   IDS d 501      13.282  20.620 -14.601  0.00  0.00     0.104 H 
ATOM    122  H   IDS d 501      15.231  20.206 -14.892  0.00  0.00     0.212 HD
ATOM    123  O3  IDS d 535      -2.276  15.808 -23.791  0.00  0.00    -0.393 OA
ATOM    124  H   IDS d 535      -3.061  15.530 -24.289  0.00  0.00     0.210 HD
ENDROOT
TORSDOF 37
ENDMDL
MODEL 4
REMARK VINA RESULT:      -8.2      1.386      1.522
REMARK  0 active torsions:
REMARK  status: ('A' for Active; 'I' for Inactive)
REMARK       I    between atoms: O3_1  and  C3_48 
REMARK       I    between atoms: C1_2  and  O1_8 
REMARK       I    between atoms: O2_5  and  C2_76 
REMARK       I    between atoms: O2_5  and  S_66 
REMARK       I    between atoms: C2_7  and  N_46 
REMARK       I    between atoms: O1_8  and  C4_39 
REMARK       I    between atoms: C2_12  and  N_23 
REMARK       I    between atoms: O2S_13  and  S1_25 
REMARK       I    between atoms: C1_14  and  O1_65 
REMARK       I    between atoms: O3_15  and  C3_69 
REMARK       I    between atoms: C5_16  and  C6_31 
REMARK       I    between atoms: C5_17  and  C6_68 
REMARK       I    between atoms: C5_18  and  C6_71 
REMARK       I    between atoms: O3S_19  and  S1_25 
REMARK       I    between atoms: C6_20  and  C5_28 
REMARK       I    between atoms: C6_20  and  O6_74 
REMARK       I    between atoms: C4_21  and  O1_35 
REMARK       I    between atoms: S2_22  and  O6_74 
REMARK       I    between atoms: N_23  and  S1_25 
REMARK       I    between atoms: O1S_24  and  S1_25 
REMARK       I    between atoms: C4_27  and  O1_63 
REMARK       I    between atoms: O1_29  and  C4_49 
REMARK       I    between atoms: O1_29  and  C1_73 
REMARK       I    between atoms: O2_30  and  C2_78 
REMARK       I    between atoms: O3_33  and  C3_42 
REMARK       I    between atoms: O1_35  and  C1_77 
REMARK       I    between atoms: O3S_37  and  S1_50 
REMARK       I    between atoms: C2_38  and  O2_45 
REMARK       I    between atoms: C6_40  and  C5_51 
REMARK       I    between atoms: C3_41  and  O3_67 
REMARK       I    between atoms: N_46  and  S1_50 
REMARK       I    between atoms: O6_47  and  C6_71 
REMARK       I    between atoms: O6_47  and  S2_72 
REMARK       I    between atoms: S1_50  and  O1S_61 
REMARK       I    between atoms: S1_50  and  O2S_54 
REMARK       I    between atoms: O3_56  and  C3_75 
REMARK       I    between atoms: C1_58  and  O1_63 
ROOT
ATOM      1  O3  SGN d 502       4.003  17.505 -20.829  0.00  0.00    -0.391 OA
ATOM      2  C1  SGN d 502       0.427  16.883 -19.809  0.00  0.00     0.150 C 
ATOM      3  O6S SGN d 502       1.830  17.962 -13.638  0.00  0.00    -0.572 OA
ATOM      4  C2  SGN d 502       1.604  17.562 -20.561  0.00  0.00     0.081 C 
ATOM      5  O1  SGN d 502       0.262  15.543 -20.226  0.00  0.00    -0.348 OA
ATOM      6  O5  SGN d 502       0.641  16.938 -18.391  0.00  0.00    -0.349 OA
ATOM      7  C6  SGN d 502       1.893  16.514 -16.375  0.00  0.00     0.067 C 
ATOM      8  S2  SGN d 502       1.468  18.663 -14.836  0.00  0.00     0.251 S 
ATOM      9  C5  SGN d 502       1.895  16.385 -17.911  0.00  0.00     0.091 C 
ATOM     10  O3S SGN d 502      -0.621  18.824 -22.389  0.00  0.00    -0.296 OA
ATOM     11  N   SGN d 502       1.359  17.454 -22.007  0.00  0.00    -0.210 NA
ATOM     12  C3  SGN d 502       2.926  16.884 -20.154  0.00  0.00     0.083 C 
ATOM     13  C4  SGN d 502       3.104  17.067 -18.629  0.00  0.00     0.095 C 
ATOM     14  S1  SGN d 502       0.745  18.738 -22.820  0.00  0.00     0.156 S 
ATOM     15  O2S SGN d 502       0.860  18.409 -24.212  0.00  0.00    -0.296 OA
ATOM     16  O4S SGN d 502       1.998  19.992 -14.885  0.00  0.00    -0.572 OA
ATOM     17  O1S SGN d 502       1.489  19.907 -22.460  0.00  0.00    -0.296 OA
ATOM     18  O5S SGN d 502       0.056  18.617 -15.092  0.00  0.00    -0.572 OA
ATOM     19  O6  SGN d 502       2.111  17.866 -16.019  0.00  0.00    -0.254 OA
ATOM     20  H   SGN d 502       3.894  17.391 -21.786  0.00  0.00     0.210 HD
ATOM     21  H   SGN d 502      -0.468  17.419 -20.044  0.00  0.00     0.131 H 
ATOM     22  H   SGN d 502       1.676  18.598 -20.306  0.00  0.00     0.076 H 
ATOM     23  H   SGN d 502       2.672  15.906 -15.965  0.00  0.00     0.080 H 
ATOM     24  H   SGN d 502       0.950  16.189 -15.990  0.00  0.00     0.080 H 
ATOM     25  H   SGN d 502       2.000  15.348 -18.149  0.00  0.00     0.090 H 
ATOM     26  H   SGN d 502      -0.650  19.048 -21.446  0.00  0.00     0.231 HD
ATOM     27  H   SGN d 502       0.708  16.680 -22.140  0.00  0.00     0.140 HD
ATOM     28  H   SGN d 502       2.907  15.845 -20.408  0.00  0.00     0.089 H 
ATOM     29  H   SGN d 502       3.107  18.072 -18.261  0.00  0.00     0.091 H 
ATOM     30  H   SGN d 502       0.339  17.612 -24.399  0.00  0.00     0.231 HD
ATOM     31  H   SGN d 502       1.376  20.082 -21.512  0.00  0.00     0.231 HD
ATOM     32  O62 IDS d 503       7.635  18.859 -21.187  0.00  0.00    -0.646 OA
ATOM     33  O2  IDS d 503       6.693  16.590 -15.683  0.00  0.00    -0.244 OA
ATOM     34  O5  IDS d 503       5.966  18.160 -18.190  0.00  0.00    -0.340 OA
ATOM     35  C5  IDS d 503       6.873  17.750 -19.223  0.00  0.00     0.152 C 
ATOM     36  C4  IDS d 503       8.040  16.964 -18.582  0.00  0.00     0.103 C 
ATOM     37  O61 IDS d 503       7.286  20.087 -19.554  0.00  0.00    -0.646 OA
ATOM     38  O1  IDS d 503       4.370  16.452 -18.392  0.00  0.00    -0.348 OA
ATOM     39  C6  IDS d 503       7.289  18.974 -20.033  0.00  0.00     0.206 C 
ATOM     40  O1S IDS d 503       6.616  14.866 -14.017  0.00  0.00    -0.572 OA
ATOM     41  O3S IDS d 503       4.770  16.363 -14.253  0.00  0.00    -0.572 OA
ATOM     42  C3  IDS d 503       7.476  15.743 -17.804  0.00  0.00     0.094 C 
ATOM     43  O2S IDS d 503       6.835  17.161 -13.378  0.00  0.00    -0.572 OA
ATOM     44  S   IDS d 503       6.196  16.216 -14.248  0.00  0.00     0.252 S 
ATOM     45  O3  IDS d 503       7.107  14.753 -18.746  0.00  0.00    -0.390 OA
ATOM     46  C1  IDS d 503       5.256  17.117 -17.532  0.00  0.00     0.161 C 
ATOM     47  C2  IDS d 503       6.240  16.081 -16.923  0.00  0.00     0.134 C 
ATOM     48  H   IDS d 503       6.417  17.080 -19.920  0.00  0.00     0.104 H 
ATOM     49  H   IDS d 503       8.678  16.686 -19.395  0.00  0.00     0.092 H 
ATOM     50  H   IDS d 503       8.244  15.407 -17.139  0.00  0.00     0.091 H 
ATOM     51  H   IDS d 503       6.412  15.101 -19.326  0.00  0.00     0.210 HD
ATOM     52  H   IDS d 503       4.686  17.580 -16.755  0.00  0.00     0.133 H 
ATOM     53  H   IDS d 503       5.695  15.164 -16.830  0.00  0.00     0.097 H 
ATOM     54  C4  IDS d 505      13.244  25.123 -16.262  0.00  0.00    -0.005 C 
ATOM     55  C5  IDS d 505      13.337  23.705 -15.608  0.00  0.00     0.127 C 
ATOM     56  O2  IDS d 505      11.175  23.932 -19.189  0.00  0.00    -0.388 OA
ATOM     57  O62 IDS d 505      15.547  22.979 -15.006  0.00  0.00    -0.646 OA
ATOM     58  C1  IDS d 505      12.293  22.574 -17.535  0.00  0.00     0.159 C 
ATOM     59  O5  IDS d 505      13.411  22.693 -16.639  0.00  0.00    -0.343 OA
ATOM     60  O1  IDS d 505      11.294  21.748 -17.004  0.00  0.00    -0.348 OA
ATOM     61  O61 IDS d 505      14.504  24.034 -13.556  0.00  0.00    -0.646 OA
ATOM     62  C6  IDS d 505      14.535  23.561 -14.669  0.00  0.00     0.203 C 
ATOM     63  C3  IDS d 505      12.685  25.069 -17.708  0.00  0.00     0.068 C 
ATOM     64  C2  IDS d 505      11.646  23.947 -17.854  0.00  0.00     0.107 C 
ATOM     65  H   IDS d 505      12.600  25.735 -15.666  0.00  0.00     0.041 H 
ATOM     66  H   IDS d 505      14.234  25.528 -16.308  0.00  0.00     0.041 H 
ATOM     67  H   IDS d 505      12.454  23.577 -15.018  0.00  0.00     0.100 H 
ATOM     68  H   IDS d 505      10.518  23.227 -19.291  0.00  0.00     0.210 HD
ATOM     69  H   IDS d 505      12.690  22.148 -18.432  0.00  0.00     0.133 H 
ATOM     70  H   IDS d 505      13.487  24.871 -18.388  0.00  0.00     0.087 H 
ATOM     71  H   IDS d 505      10.839  24.122 -17.173  0.00  0.00     0.094 H 
ATOM     72  O4S SGN d 504      14.633  19.762 -21.109  0.00  0.00    -0.572 OA
ATOM     73  C2  SGN d 504      10.892  18.122 -16.413  0.00  0.00     0.081 C 
ATOM     74  O2S SGN d 504      11.228  15.983 -13.434  0.00  0.00    -0.296 OA
ATOM     75  C5  SGN d 504      10.556  19.858 -18.725  0.00  0.00     0.091 C 
ATOM     76  O3S SGN d 504      10.132  14.892 -15.249  0.00  0.00    -0.296 OA
ATOM     77  N   SGN d 504      10.349  17.327 -15.297  0.00  0.00    -0.210 NA
ATOM     78  O1S SGN d 504      12.312  15.779 -15.554  0.00  0.00    -0.296 OA
ATOM     79  S1  SGN d 504      11.066  15.911 -14.858  0.00  0.00     0.156 S 
ATOM     80  C4  SGN d 504      11.264  20.380 -17.428  0.00  0.00     0.095 C 
ATOM     81  O1  SGN d 504       8.809  17.725 -17.643  0.00  0.00    -0.348 OA
ATOM     82  O6S SGN d 504      13.248  21.513 -21.965  0.00  0.00    -0.572 OA
ATOM     83  O6  SGN d 504      12.444  20.130 -20.180  0.00  0.00    -0.254 OA
ATOM     84  O5S SGN d 504      12.672  19.233 -22.370  0.00  0.00    -0.572 OA
ATOM     85  O3  SGN d 504      11.266  20.071 -15.028  0.00  0.00    -0.391 OA
ATOM     86  O5  SGN d 504      10.685  18.414 -18.839  0.00  0.00    -0.349 OA
ATOM     87  C6  SGN d 504      11.077  20.460 -20.039  0.00  0.00     0.067 C 
ATOM     88  S2  SGN d 504      13.309  20.165 -21.480  0.00  0.00     0.251 S 
ATOM     89  C3  SGN d 504      10.642  19.635 -16.221  0.00  0.00     0.083 C 
ATOM     90  C1  SGN d 504      10.215  17.647 -17.728  0.00  0.00     0.150 C 
ATOM     91  H   SGN d 504      11.951  17.975 -16.450  0.00  0.00     0.076 H 
ATOM     92  H   SGN d 504      10.358  16.072 -13.013  0.00  0.00     0.231 HD
ATOM     93  H   SGN d 504       9.539  20.168 -18.601  0.00  0.00     0.090 H 
ATOM     94  H   SGN d 504       9.302  15.010 -14.761  0.00  0.00     0.231 HD
ATOM     95  H   SGN d 504       9.383  17.103 -15.540  0.00  0.00     0.140 HD
ATOM     96  H   SGN d 504      12.739  14.945 -15.298  0.00  0.00     0.231 HD
ATOM     97  H   SGN d 504      12.277  20.210 -17.730  0.00  0.00     0.091 H 
ATOM     98  H   SGN d 504      10.878  19.605 -14.271  0.00  0.00     0.210 HD
ATOM     99  H   SGN d 504      10.964  21.524 -20.017  0.00  0.00     0.080 H 
ATOM    100  H   SGN d 504      10.521  20.067 -20.864  0.00  0.00     0.080 H 
ATOM    101  H   SGN d 504       9.593  19.833 -16.158  0.00  0.00     0.089 H 
ATOM    102  H   SGN d 504      10.481  16.621 -17.876  0.00  0.00     0.131 H 
ATOM    103  C1  IDS d 501      -3.449  13.210 -20.082  0.00  0.00     0.156 C 
ATOM    104  O3  IDS d 501      -2.097  15.007 -17.851  0.00  0.00    -0.390 OA
ATOM    105  C2  IDS d 501      -3.575  14.721 -19.744  0.00  0.00     0.110 C 
ATOM    106  C4  IDS d 501      -0.999  14.904 -19.990  0.00  0.00     0.103 C 
ATOM    107  C6  IDS d 501       0.162  12.771 -20.910  0.00  0.00     0.206 C 
ATOM    108  C3  IDS d 501      -2.265  15.362 -19.209  0.00  0.00     0.092 C 
ATOM    109  O5  IDS d 501      -2.246  12.969 -20.809  0.00  0.00    -0.340 OA
ATOM    110  O2  IDS d 501      -3.960  15.402 -20.925  0.00  0.00    -0.388 OA
ATOM    111  C5  IDS d 501      -1.026  13.360 -20.152  0.00  0.00     0.152 C 
ATOM    112  O62 IDS d 501       1.097  12.291 -20.313  0.00  0.00    -0.646 OA
ATOM    113  O61 IDS d 501       0.204  12.770 -22.121  0.00  0.00    -0.646 OA
ATOM    114  O1  IDS d 501      -3.506  12.471 -18.890  0.00  0.00    -0.368 OA
ATOM    115  H   IDS d 501      -4.260  12.898 -20.708  0.00  0.00     0.133 H 
ATOM    116  H   IDS d 501      -2.877  15.284 -17.345  0.00  0.00     0.210 HD
ATOM    117  H   IDS d 501      -4.300  14.808 -18.962  0.00  0.00     0.094 H 
ATOM    118  H   IDS d 501      -1.150  15.685 -20.704  0.00  0.00     0.092 H 
ATOM    119  H   IDS d 501      -2.363  16.420 -19.335  0.00  0.00     0.091 H 
ATOM    120  H   IDS d 501      -3.272  15.292 -21.600  0.00  0.00     0.210 HD
ATOM    121  H   IDS d 501      -0.965  12.965 -19.159  0.00  0.00     0.104 H 
ATOM    122  H   IDS d 501      -2.777  12.740 -18.309  0.00  0.00     0.212 HD
ATOM    123  O3  IDS d 535      12.080  26.312 -17.998  0.00  0.00    -0.393 OA
ATOM    124  H   IDS d 535      12.736  27.021 -17.905  0.00  0.00     0.210 HD
ENDROOT
TORSDOF 37
ENDMDL
MODEL 5
REMARK VINA RESULT:      -8.0      2.611     12.868
REMARK  0 active torsions:
REMARK  status: ('A' for Active; 'I' for Inactive)
REMARK       I    between atoms: O3_1  and  C3_48 
REMARK       I    between atoms: C1_2  and  O1_8 
REMARK       I    between atoms: O2_5  and  C2_76 
REMARK       I    between atoms: O2_5  and  S_66 
REMARK       I    between atoms: C2_7  and  N_46 
REMARK       I    between atoms: O1_8  and  C4_39 
REMARK       I    between atoms: C2_12  and  N_23 
REMARK       I    between atoms: O2S_13  and  S1_25 
REMARK       I    between atoms: C1_14  and  O1_65 
REMARK       I    between atoms: O3_15  and  C3_69 
REMARK       I    between atoms: C5_16  and  C6_31 
REMARK       I    between atoms: C5_17  and  C6_68 
REMARK       I    between atoms: C5_18  and  C6_71 
REMARK       I    between atoms: O3S_19  and  S1_25 
REMARK       I    between atoms: C6_20  and  C5_28 
REMARK       I    between atoms: C6_20  and  O6_74 
REMARK       I    between atoms: C4_21  and  O1_35 
REMARK       I    between atoms: S2_22  and  O6_74 
REMARK       I    between atoms: N_23  and  S1_25 
REMARK       I    between atoms: O1S_24  and  S1_25 
REMARK       I    between atoms: C4_27  and  O1_63 
REMARK       I    between atoms: O1_29  and  C4_49 
REMARK       I    between atoms: O1_29  and  C1_73 
REMARK       I    between atoms: O2_30  and  C2_78 
REMARK       I    between atoms: O3_33  and  C3_42 
REMARK       I    between atoms: O1_35  and  C1_77 
REMARK       I    between atoms: O3S_37  and  S1_50 
REMARK       I    between atoms: C2_38  and  O2_45 
REMARK       I    between atoms: C6_40  and  C5_51 
REMARK       I    between atoms: C3_41  and  O3_67 
REMARK       I    between atoms: N_46  and  S1_50 
REMARK       I    between atoms: O6_47  and  C6_71 
REMARK       I    between atoms: O6_47  and  S2_72 
REMARK       I    between atoms: S1_50  and  O1S_61 
REMARK       I    between atoms: S1_50  and  O2S_54 
REMARK       I    between atoms: O3_56  and  C3_75 
REMARK       I    between atoms: C1_58  and  O1_63 
ROOT
ATOM      1  O3  SGN d 502       8.320  19.237 -20.927  0.00  0.00    -0.391 OA
ATOM      2  C1  SGN d 502      11.810  17.826 -20.727  0.00  0.00     0.150 C 
ATOM      3  O6S SGN d 502       9.653  12.454 -17.954  0.00  0.00    -0.572 OA
ATOM      4  C2  SGN d 502      10.538  18.410 -21.400  0.00  0.00     0.081 C 
ATOM      5  O1  SGN d 502      12.438  18.789 -19.906  0.00  0.00    -0.348 OA
ATOM      6  O5  SGN d 502      11.480  16.659 -19.960  0.00  0.00    -0.349 OA
ATOM      7  C6  SGN d 502      10.284  15.473 -18.236  0.00  0.00     0.067 C 
ATOM      8  S2  SGN d 502       9.857  13.032 -19.251  0.00  0.00     0.251 S 
ATOM      9  C5  SGN d 502      10.444  16.826 -18.956  0.00  0.00     0.091 C 
ATOM     10  O3S SGN d 502      12.361  18.798 -23.933  0.00  0.00    -0.296 OA
ATOM     11  N   SGN d 502      10.917  19.618 -22.147  0.00  0.00    -0.210 NA
ATOM     12  C3  SGN d 502       9.485  18.714 -20.318  0.00  0.00     0.083 C 
ATOM     13  C4  SGN d 502       9.138  17.387 -19.606  0.00  0.00     0.095 C 
ATOM     14  S1  SGN d 502      11.137  19.529 -23.769  0.00  0.00     0.156 S 
ATOM     15  O2S SGN d 502      11.246  20.886 -24.223  0.00  0.00    -0.296 OA
ATOM     16  O4S SGN d 502       8.926  12.553 -20.226  0.00  0.00    -0.572 OA
ATOM     17  O1S SGN d 502      10.024  18.836 -24.346  0.00  0.00    -0.296 OA
ATOM     18  O5S SGN d 502      11.221  12.931 -19.687  0.00  0.00    -0.572 OA
ATOM     19  O6  SGN d 502       9.606  14.568 -19.088  0.00  0.00    -0.254 OA
ATOM     20  H   SGN d 502       8.535  20.070 -21.374  0.00  0.00     0.210 HD
ATOM     21  H   SGN d 502      12.495  17.549 -21.500  0.00  0.00     0.131 H 
ATOM     22  H   SGN d 502      10.110  17.708 -22.085  0.00  0.00     0.076 H 
ATOM     23  H   SGN d 502       9.718  15.610 -17.338  0.00  0.00     0.080 H 
ATOM     24  H   SGN d 502      11.248  15.081 -17.991  0.00  0.00     0.080 H 
ATOM     25  H   SGN d 502      10.705  17.556 -18.219  0.00  0.00     0.090 H 
ATOM     26  H   SGN d 502      12.240  17.890 -23.614  0.00  0.00     0.231 HD
ATOM     27  H   SGN d 502      11.795  19.951 -21.747  0.00  0.00     0.140 HD
ATOM     28  H   SGN d 502       9.865  19.429 -19.618  0.00  0.00     0.089 H 
ATOM     29  H   SGN d 502       8.777  16.590 -20.221  0.00  0.00     0.091 H 
ATOM     30  H   SGN d 502      12.013  21.306 -23.802  0.00  0.00     0.231 HD
ATOM     31  H   SGN d 502       9.999  17.928 -24.005  0.00  0.00     0.231 HD
ATOM     32  O62 IDS d 503       4.485  19.750 -21.351  0.00  0.00    -0.646 OA
ATOM     33  O2  IDS d 503       5.687  16.005 -16.784  0.00  0.00    -0.244 OA
ATOM     34  O5  IDS d 503       6.051  17.172 -19.573  0.00  0.00    -0.340 OA
ATOM     35  C5  IDS d 503       5.413  18.457 -19.579  0.00  0.00     0.152 C 
ATOM     36  C4  IDS d 503       4.522  18.580 -18.321  0.00  0.00     0.103 C 
ATOM     37  O61 IDS d 503       4.282  17.696 -21.551  0.00  0.00    -0.646 OA
ATOM     38  O1  IDS d 503       8.131  17.791 -18.680  0.00  0.00    -0.348 OA
ATOM     39  C6  IDS d 503       4.682  18.642 -20.906  0.00  0.00     0.206 C 
ATOM     40  O1S IDS d 503       6.196  15.426 -14.512  0.00  0.00    -0.572 OA
ATOM     41  O3S IDS d 503       7.459  14.453 -16.290  0.00  0.00    -0.572 OA
ATOM     42  C3  IDS d 503       5.394  18.386 -17.050  0.00  0.00     0.094 C 
ATOM     43  O2S IDS d 503       5.185  13.824 -15.974  0.00  0.00    -0.572 OA
ATOM     44  S   IDS d 503       6.166  14.862 -15.828  0.00  0.00     0.252 S 
ATOM     45  O3  IDS d 503       6.140  19.571 -16.842  0.00  0.00    -0.390 OA
ATOM     46  C1  IDS d 503       7.011  16.957 -18.545  0.00  0.00     0.161 C 
ATOM     47  C2  IDS d 503       6.378  17.186 -17.145  0.00  0.00     0.134 C 
ATOM     48  H   IDS d 503       6.117  19.260 -19.520  0.00  0.00     0.104 H 
ATOM     49  H   IDS d 503       4.077  19.552 -18.381  0.00  0.00     0.092 H 
ATOM     50  H   IDS d 503       4.729  18.175 -16.238  0.00  0.00     0.091 H 
ATOM     51  H   IDS d 503       6.725  19.722 -17.601  0.00  0.00     0.210 HD
ATOM     52  H   IDS d 503       7.334  15.942 -18.638  0.00  0.00     0.133 H 
ATOM     53  H   IDS d 503       7.185  17.423 -16.483  0.00  0.00     0.097 H 
ATOM     54  C4  IDS d 505      -3.238  13.908 -22.441  0.00  0.00    -0.005 C 
ATOM     55  C5  IDS d 505      -2.911  14.071 -20.920  0.00  0.00     0.127 C 
ATOM     56  O2  IDS d 505      -0.670  16.450 -23.541  0.00  0.00    -0.388 OA
ATOM     57  O62 IDS d 505      -4.799  14.448 -19.483  0.00  0.00    -0.646 OA
ATOM     58  C1  IDS d 505      -1.406  15.990 -21.288  0.00  0.00     0.159 C 
ATOM     59  O5  IDS d 505      -2.567  15.448 -20.637  0.00  0.00    -0.343 OA
ATOM     60  O1  IDS d 505      -0.235  15.707 -20.572  0.00  0.00    -0.348 OA
ATOM     61  O61 IDS d 505      -4.277  12.467 -19.807  0.00  0.00    -0.646 OA
ATOM     62  C6  IDS d 505      -4.065  13.640 -20.014  0.00  0.00     0.203 C 
ATOM     63  C3  IDS d 505      -2.581  15.015 -23.307  0.00  0.00     0.068 C 
ATOM     64  C2  IDS d 505      -1.223  15.435 -22.725  0.00  0.00     0.107 C 
ATOM     65  H   IDS d 505      -2.880  12.955 -22.770  0.00  0.00     0.041 H 
ATOM     66  H   IDS d 505      -4.299  13.987 -22.558  0.00  0.00     0.041 H 
ATOM     67  H   IDS d 505      -2.083  13.427 -20.710  0.00  0.00     0.100 H 
ATOM     68  H   IDS d 505       0.188  16.723 -23.181  0.00  0.00     0.210 HD
ATOM     69  H   IDS d 505      -1.570  17.047 -21.330  0.00  0.00     0.133 H 
ATOM     70  H   IDS d 505      -3.218  15.875 -23.321  0.00  0.00     0.087 H 
ATOM     71  H   IDS d 505      -0.574  14.584 -22.693  0.00  0.00     0.094 H 
ATOM     72  O4S SGN d 504      -2.405  20.922 -20.373  0.00  0.00    -0.572 OA
ATOM     73  C2  SGN d 504       1.288  16.878 -17.415  0.00  0.00     0.081 C 
ATOM     74  O2S SGN d 504       1.442  15.497 -14.005  0.00  0.00    -0.296 OA
ATOM     75  C5  SGN d 504       1.214  17.895 -20.141  0.00  0.00     0.091 C 
ATOM     76  O3S SGN d 504       2.974  17.290 -14.358  0.00  0.00    -0.296 OA
ATOM     77  N   SGN d 504       1.974  16.197 -16.302  0.00  0.00    -0.210 NA
ATOM     78  O1S SGN d 504       0.655  17.638 -14.720  0.00  0.00    -0.296 OA
ATOM     79  S1  SGN d 504       1.729  16.690 -14.750  0.00  0.00     0.156 S 
ATOM     80  C4  SGN d 504       0.275  16.722 -19.700  0.00  0.00     0.095 C 
ATOM     81  O1  SGN d 504       3.476  17.606 -18.250  0.00  0.00    -0.348 OA
ATOM     82  O6S SGN d 504      -1.610  20.457 -22.580  0.00  0.00    -0.572 OA
ATOM     83  O6  SGN d 504      -0.538  19.437 -20.694  0.00  0.00    -0.254 OA
ATOM     84  O5S SGN d 504      -0.287  21.769 -21.088  0.00  0.00    -0.572 OA
ATOM     85  O3  SGN d 504       0.187  14.856 -18.161  0.00  0.00    -0.391 OA
ATOM     86  O5  SGN d 504       1.577  18.725 -19.004  0.00  0.00    -0.349 OA
ATOM     87  C6  SGN d 504       0.629  18.831 -21.210  0.00  0.00     0.067 C 
ATOM     88  S2  SGN d 504      -1.262  20.720 -21.214  0.00  0.00     0.251 S 
ATOM     89  C3  SGN d 504       1.011  15.922 -18.597  0.00  0.00     0.083 C 
ATOM     90  C1  SGN d 504       2.184  18.052 -17.898  0.00  0.00     0.150 C 
ATOM     91  H   SGN d 504       0.343  17.235 -17.064  0.00  0.00     0.076 H 
ATOM     92  H   SGN d 504       2.199  14.892 -14.059  0.00  0.00     0.231 HD
ATOM     93  H   SGN d 504       2.060  17.397 -20.568  0.00  0.00     0.090 H 
ATOM     94  H   SGN d 504       3.678  16.624 -14.389  0.00  0.00     0.231 HD
ATOM     95  H   SGN d 504       2.975  16.279 -16.481  0.00  0.00     0.140 HD
ATOM     96  H   SGN d 504       0.507  17.930 -13.806  0.00  0.00     0.231 HD
ATOM     97  H   SGN d 504      -0.599  17.301 -19.482  0.00  0.00     0.091 H 
ATOM     98  H   SGN d 504       0.647  14.354 -17.470  0.00  0.00     0.210 HD
ATOM     99  H   SGN d 504       0.384  18.268 -22.086  0.00  0.00     0.080 H 
ATOM    100  H   SGN d 504       1.346  19.582 -21.468  0.00  0.00     0.080 H 
ATOM    101  H   SGN d 504       1.929  15.521 -18.973  0.00  0.00     0.089 H 
ATOM    102  H   SGN d 504       2.283  18.739 -17.084  0.00  0.00     0.131 H 
ATOM    103  C1  IDS d 501      16.687  18.915 -18.823  0.00  0.00     0.156 C 
ATOM    104  O3  IDS d 501      14.650  16.490 -18.758  0.00  0.00    -0.390 OA
ATOM    105  C2  IDS d 501      16.283  17.865 -19.895  0.00  0.00     0.110 C 
ATOM    106  C4  IDS d 501      13.817  18.600 -19.562  0.00  0.00     0.103 C 
ATOM    107  C6  IDS d 501      13.497  20.689 -18.053  0.00  0.00     0.206 C 
ATOM    108  C3  IDS d 501      14.797  17.417 -19.815  0.00  0.00     0.092 C 
ATOM    109  O5  IDS d 501      15.691  19.931 -18.732  0.00  0.00    -0.340 OA
ATOM    110  O2  IDS d 501      16.513  18.433 -21.172  0.00  0.00    -0.388 OA
ATOM    111  C5  IDS d 501      14.363  19.481 -18.406  0.00  0.00     0.152 C 
ATOM    112  O62 IDS d 501      12.728  20.645 -17.121  0.00  0.00    -0.646 OA
ATOM    113  O61 IDS d 501      13.553  21.717 -18.692  0.00  0.00    -0.646 OA
ATOM    114  O1  IDS d 501      16.890  18.259 -17.599  0.00  0.00    -0.368 OA
ATOM    115  H   IDS d 501      17.602  19.397 -19.100  0.00  0.00     0.133 H 
ATOM    116  H   IDS d 501      15.253  15.743 -18.897  0.00  0.00     0.210 HD
ATOM    117  H   IDS d 501      16.875  16.992 -19.718  0.00  0.00     0.094 H 
ATOM    118  H   IDS d 501      13.759  18.783 -20.614  0.00  0.00     0.092 H 
ATOM    119  H   IDS d 501      14.552  16.985 -20.763  0.00  0.00     0.091 H 
ATOM    120  H   IDS d 501      15.955  19.219 -21.282  0.00  0.00     0.210 HD
ATOM    121  H   IDS d 501      14.358  18.853 -17.538  0.00  0.00     0.104 H 
ATOM    122  H   IDS d 501      16.071  17.815 -17.331  0.00  0.00     0.212 HD
ATOM    123  O3  IDS d 535      -2.398  14.509 -24.613  0.00  0.00    -0.393 OA
ATOM    124  H   IDS d 535      -3.256  14.243 -24.980  0.00  0.00     0.210 HD
ENDROOT
TORSDOF 37
ENDMDL
MODEL 6
REMARK VINA RESULT:      -7.7      2.700     13.084
REMARK  0 active torsions:
REMARK  status: ('A' for Active; 'I' for Inactive)
REMARK       I    between atoms: O3_1  and  C3_48 
REMARK       I    between atoms: C1_2  and  O1_8 
REMARK       I    between atoms: O2_5  and  C2_76 
REMARK       I    between atoms: O2_5  and  S_66 
REMARK       I    between atoms: C2_7  and  N_46 
REMARK       I    between atoms: O1_8  and  C4_39 
REMARK       I    between atoms: C2_12  and  N_23 
REMARK       I    between atoms: O2S_13  and  S1_25 
REMARK       I    between atoms: C1_14  and  O1_65 
REMARK       I    between atoms: O3_15  and  C3_69 
REMARK       I    between atoms: C5_16  and  C6_31 
REMARK       I    between atoms: C5_17  and  C6_68 
REMARK       I    between atoms: C5_18  and  C6_71 
REMARK       I    between atoms: O3S_19  and  S1_25 
REMARK       I    between atoms: C6_20  and  C5_28 
REMARK       I    between atoms: C6_20  and  O6_74 
REMARK       I    between atoms: C4_21  and  O1_35 
REMARK       I    between atoms: S2_22  and  O6_74 
REMARK       I    between atoms: N_23  and  S1_25 
REMARK       I    between atoms: O1S_24  and  S1_25 
REMARK       I    between atoms: C4_27  and  O1_63 
REMARK       I    between atoms: O1_29  and  C4_49 
REMARK       I    between atoms: O1_29  and  C1_73 
REMARK       I    between atoms: O2_30  and  C2_78 
REMARK       I    between atoms: O3_33  and  C3_42 
REMARK       I    between atoms: O1_35  and  C1_77 
REMARK       I    between atoms: O3S_37  and  S1_50 
REMARK       I    between atoms: C2_38  and  O2_45 
REMARK       I    between atoms: C6_40  and  C5_51 
REMARK       I    between atoms: C3_41  and  O3_67 
REMARK       I    between atoms: N_46  and  S1_50 
REMARK       I    between atoms: O6_47  and  C6_71 
REMARK       I    between atoms: O6_47  and  S2_72 
REMARK       I    between atoms: S1_50  and  O1S_61 
REMARK       I    between atoms: S1_50  and  O2S_54 
REMARK       I    between atoms: O3_56  and  C3_75 
REMARK       I    between atoms: C1_58  and  O1_63 
ROOT
ATOM      1  O3  SGN d 502       9.897  20.600 -18.581  0.00  0.00    -0.391 OA
ATOM      2  C1  SGN d 502      13.478  19.992 -19.594  0.00  0.00     0.150 C 
ATOM      3  O6S SGN d 502      12.403  13.694 -20.214  0.00  0.00    -0.572 OA
ATOM      4  C2  SGN d 502      12.051  20.602 -19.672  0.00  0.00     0.081 C 
ATOM      5  O1  SGN d 502      14.159  20.438 -18.439  0.00  0.00    -0.348 OA
ATOM      6  O5  SGN d 502      13.411  18.559 -19.609  0.00  0.00    -0.349 OA
ATOM      7  C6  SGN d 502      12.683  16.420 -18.769  0.00  0.00     0.067 C 
ATOM      8  S2  SGN d 502      12.300  14.918 -20.953  0.00  0.00     0.251 S 
ATOM      9  C5  SGN d 502      12.576  17.947 -18.592  0.00  0.00     0.091 C 
ATOM     10  O3S SGN d 502      13.311  22.656 -21.693  0.00  0.00    -0.296 OA
ATOM     11  N   SGN d 502      12.166  22.067 -19.622  0.00  0.00    -0.210 NA
ATOM     12  C3  SGN d 502      11.201  20.056 -18.509  0.00  0.00     0.083 C 
ATOM     13  C4  SGN d 502      11.122  18.519 -18.660  0.00  0.00     0.095 C 
ATOM     14  S1  SGN d 502      12.078  22.932 -21.012  0.00  0.00     0.156 S 
ATOM     15  O2S SGN d 502      11.971  24.305 -20.610  0.00  0.00    -0.296 OA
ATOM     16  O4S SGN d 502      11.248  14.896 -21.923  0.00  0.00    -0.572 OA
ATOM     17  O1S SGN d 502      10.946  22.481 -21.762  0.00  0.00    -0.296 OA
ATOM     18  O5S SGN d 502      13.559  15.331 -21.506  0.00  0.00    -0.572 OA
ATOM     19  O6  SGN d 502      11.942  16.029 -19.911  0.00  0.00    -0.254 OA
ATOM     20  H   SGN d 502       9.944  21.564 -18.487  0.00  0.00     0.210 HD
ATOM     21  H   SGN d 502      14.025  20.322 -20.452  0.00  0.00     0.131 H 
ATOM     22  H   SGN d 502      11.567  20.331 -20.587  0.00  0.00     0.076 H 
ATOM     23  H   SGN d 502      12.290  15.930 -17.904  0.00  0.00     0.080 H 
ATOM     24  H   SGN d 502      13.709  16.146 -18.896  0.00  0.00     0.080 H 
ATOM     25  H   SGN d 502      12.903  18.181 -17.601  0.00  0.00     0.090 H 
ATOM     26  H   SGN d 502      13.339  21.720 -21.944  0.00  0.00     0.231 HD
ATOM     27  H   SGN d 502      13.068  22.280 -19.197  0.00  0.00     0.140 HD
ATOM     28  H   SGN d 502      11.639  20.320 -17.570  0.00  0.00     0.089 H 
ATOM     29  H   SGN d 502      10.726  18.144 -19.580  0.00  0.00     0.091 H 
ATOM     30  H   SGN d 502      12.761  24.557 -20.106  0.00  0.00     0.231 HD
ATOM     31  H   SGN d 502      11.071  21.550 -22.007  0.00  0.00     0.231 HD
ATOM     32  O62 IDS d 503       6.021  20.537 -18.232  0.00  0.00    -0.646 OA
ATOM     33  O2  IDS d 503       8.420  15.195 -16.808  0.00  0.00    -0.244 OA
ATOM     34  O5  IDS d 503       8.133  17.752 -18.436  0.00  0.00    -0.340 OA
ATOM     35  C5  IDS d 503       7.388  18.681 -17.635  0.00  0.00     0.152 C 
ATOM     36  C4  IDS d 503       6.747  17.920 -16.451  0.00  0.00     0.103 C 
ATOM     37  O61 IDS d 503       5.976  18.942 -19.555  0.00  0.00    -0.646 OA
ATOM     38  O1  IDS d 503      10.278  18.148 -17.571  0.00  0.00    -0.348 OA
ATOM     39  C6  IDS d 503       6.403  19.429 -18.529  0.00  0.00     0.206 C 
ATOM     40  O1S IDS d 503       9.407  13.563 -15.351  0.00  0.00    -0.572 OA
ATOM     41  O3S IDS d 503      10.392  13.991 -17.484  0.00  0.00    -0.572 OA
ATOM     42  C3  IDS d 503       7.860  17.222 -15.623  0.00  0.00     0.094 C 
ATOM     43  O2S IDS d 503       8.289  12.882 -17.354  0.00  0.00    -0.572 OA
ATOM     44  S   IDS d 503       9.178  13.827 -16.740  0.00  0.00     0.252 S 
ATOM     45  O3  IDS d 503       8.518  18.209 -14.850  0.00  0.00    -0.390 OA
ATOM     46  C1  IDS d 503       9.288  17.188 -17.826  0.00  0.00     0.161 C 
ATOM     47  C2  IDS d 503       8.916  16.482 -16.493  0.00  0.00     0.134 C 
ATOM     48  H   IDS d 503       8.013  19.431 -17.199  0.00  0.00     0.104 H 
ATOM     49  H   IDS d 503       6.210  18.659 -15.894  0.00  0.00     0.092 H 
ATOM     50  H   IDS d 503       7.386  16.478 -15.016  0.00  0.00     0.091 H 
ATOM     51  H   IDS d 503       8.931  18.859 -15.439  0.00  0.00     0.210 HD
ATOM     52  H   IDS d 503       9.680  16.475 -18.519  0.00  0.00     0.133 H 
ATOM     53  H   IDS d 503       9.809  16.459 -15.903  0.00  0.00     0.097 H 
ATOM     54  C4  IDS d 505      -1.188  14.958 -21.676  0.00  0.00    -0.005 C 
ATOM     55  C5  IDS d 505      -0.592  14.310 -20.382  0.00  0.00     0.127 C 
ATOM     56  O2  IDS d 505       0.873  18.109 -21.372  0.00  0.00    -0.388 OA
ATOM     57  O62 IDS d 505      -2.196  13.471 -18.804  0.00  0.00    -0.646 OA
ATOM     58  C1  IDS d 505       0.629  16.353 -19.733  0.00  0.00     0.159 C 
ATOM     59  O5  IDS d 505      -0.330  15.337 -19.396  0.00  0.00    -0.343 OA
ATOM     60  O1  IDS d 505       1.937  15.944 -19.436  0.00  0.00    -0.348 OA
ATOM     61  O61 IDS d 505      -1.563  12.138 -20.261  0.00  0.00    -0.646 OA
ATOM     62  C6  IDS d 505      -1.505  13.245 -19.776  0.00  0.00     0.203 C 
ATOM     63  C3  IDS d 505      -0.815  16.458 -21.809  0.00  0.00     0.068 C 
ATOM     64  C2  IDS d 505       0.584  16.730 -21.236  0.00  0.00     0.107 C 
ATOM     65  H   IDS d 505      -0.811  14.432 -22.528  0.00  0.00     0.041 H 
ATOM     66  H   IDS d 505      -2.254  14.890 -21.615  0.00  0.00     0.041 H 
ATOM     67  H   IDS d 505       0.317  13.825 -20.669  0.00  0.00     0.100 H 
ATOM     68  H   IDS d 505       1.755  18.291 -21.012  0.00  0.00     0.210 HD
ATOM     69  H   IDS d 505       0.363  17.204 -19.141  0.00  0.00     0.133 H 
ATOM     70  H   IDS d 505      -1.520  17.045 -21.259  0.00  0.00     0.087 H 
ATOM     71  H   IDS d 505       1.304  16.142 -21.768  0.00  0.00     0.094 H 
ATOM     72  O4S SGN d 504      -0.633  19.668 -16.048  0.00  0.00    -0.572 OA
ATOM     73  C2  SGN d 504       3.920  15.435 -16.360  0.00  0.00     0.081 C 
ATOM     74  O2S SGN d 504       4.853  12.457 -14.405  0.00  0.00    -0.296 OA
ATOM     75  C5  SGN d 504       3.231  17.754 -17.978  0.00  0.00     0.091 C 
ATOM     76  O3S SGN d 504       6.115  14.393 -13.818  0.00  0.00    -0.296 OA
ATOM     77  N   SGN d 504       4.867  14.394 -15.920  0.00  0.00    -0.210 NA
ATOM     78  O1S SGN d 504       3.746  14.445 -13.671  0.00  0.00    -0.296 OA
ATOM     79  S1  SGN d 504       4.879  13.891 -14.353  0.00  0.00     0.156 S 
ATOM     80  C4  SGN d 504       2.507  16.382 -18.198  0.00  0.00     0.095 C 
ATOM     81  O1  SGN d 504       5.830  16.895 -16.846  0.00  0.00    -0.348 OA
ATOM     82  O6S SGN d 504      -0.235  20.657 -18.189  0.00  0.00    -0.572 OA
ATOM     83  O6  SGN d 504       1.269  18.986 -17.356  0.00  0.00    -0.254 OA
ATOM     84  O5S SGN d 504       1.221  21.145 -16.361  0.00  0.00    -0.572 OA
ATOM     85  O3  SGN d 504       2.891  14.000 -18.014  0.00  0.00    -0.391 OA
ATOM     86  O5  SGN d 504       3.725  17.867 -16.616  0.00  0.00    -0.349 OA
ATOM     87  C6  SGN d 504       2.367  18.996 -18.246  0.00  0.00     0.067 C 
ATOM     88  S2  SGN d 504       0.342  20.181 -16.965  0.00  0.00     0.251 S 
ATOM     89  C3  SGN d 504       3.512  15.259 -17.840  0.00  0.00     0.083 C 
ATOM     90  C1  SGN d 504       4.593  16.822 -16.169  0.00  0.00     0.150 C 
ATOM     91  H   SGN d 504       3.030  15.355 -15.772  0.00  0.00     0.076 H 
ATOM     92  H   SGN d 504       5.639  12.136 -14.875  0.00  0.00     0.231 HD
ATOM     93  H   SGN d 504       4.022  17.742 -18.699  0.00  0.00     0.090 H 
ATOM     94  H   SGN d 504       6.858  14.000 -14.300  0.00  0.00     0.231 HD
ATOM     95  H   SGN d 504       5.803  14.746 -16.122  0.00  0.00     0.140 HD
ATOM     96  H   SGN d 504       3.750  14.150 -12.746  0.00  0.00     0.231 HD
ATOM     97  H   SGN d 504       1.641  16.570 -17.598  0.00  0.00     0.091 H 
ATOM     98  H   SGN d 504       3.519  13.295 -17.790  0.00  0.00     0.210 HD
ATOM     99  H   SGN d 504       2.012  18.977 -19.255  0.00  0.00     0.080 H 
ATOM    100  H   SGN d 504       2.948  19.882 -18.097  0.00  0.00     0.080 H 
ATOM    101  H   SGN d 504       4.375  15.312 -18.471  0.00  0.00     0.089 H 
ATOM    102  H   SGN d 504       4.781  16.949 -15.124  0.00  0.00     0.131 H 
ATOM    103  C1  IDS d 501      18.506  20.732 -17.930  0.00  0.00     0.156 C 
ATOM    104  O3  IDS d 501      16.754  18.347 -19.062  0.00  0.00    -0.390 OA
ATOM    105  C2  IDS d 501      18.004  20.397 -19.362  0.00  0.00     0.110 C 
ATOM    106  C4  IDS d 501      15.590  20.350 -18.412  0.00  0.00     0.103 C 
ATOM    107  C6  IDS d 501      15.371  21.154 -15.952  0.00  0.00     0.206 C 
ATOM    108  C3  IDS d 501      16.609  19.712 -19.400  0.00  0.00     0.092 C 
ATOM    109  O5  IDS d 501      17.454  21.321 -17.168  0.00  0.00    -0.340 OA
ATOM    110  O2  IDS d 501      17.931  21.606 -20.094  0.00  0.00    -0.388 OA
ATOM    111  C5  IDS d 501      16.262  20.529 -17.024  0.00  0.00     0.152 C 
ATOM    112  O62 IDS d 501      14.802  20.460 -15.142  0.00  0.00    -0.646 OA
ATOM    113  O61 IDS d 501      15.206  22.353 -15.885  0.00  0.00    -0.646 OA
ATOM    114  O1  IDS d 501      19.000  19.561 -17.336  0.00  0.00    -0.368 OA
ATOM    115  H   IDS d 501      19.301  21.447 -17.972  0.00  0.00     0.133 H 
ATOM    116  H   IDS d 501      17.387  17.929 -19.667  0.00  0.00     0.210 HD
ATOM    117  H   IDS d 501      18.698  19.699 -19.783  0.00  0.00     0.094 H 
ATOM    118  H   IDS d 501      15.313  21.070 -19.154  0.00  0.00     0.092 H 
ATOM    119  H   IDS d 501      16.228  19.838 -20.392  0.00  0.00     0.091 H 
ATOM    120  H   IDS d 501      17.291  22.201 -19.673  0.00  0.00     0.210 HD
ATOM    121  H   IDS d 501      16.482  19.539 -16.681  0.00  0.00     0.104 H 
ATOM    122  H   IDS d 501      18.292  18.899 -17.289  0.00  0.00     0.212 HD
ATOM    123  O3  IDS d 535      -0.838  16.803 -23.179  0.00  0.00    -0.393 OA
ATOM    124  H   IDS d 535      -1.722  16.630 -23.541  0.00  0.00     0.210 HD
ENDROOT
TORSDOF 37
ENDMDL
MODEL 7
REMARK VINA RESULT:      -7.6      2.470      4.713
REMARK  0 active torsions:
REMARK  status: ('A' for Active; 'I' for Inactive)
REMARK       I    between atoms: O3_1  and  C3_48 
REMARK       I    between atoms: C1_2  and  O1_8 
REMARK       I    between atoms: O2_5  and  C2_76 
REMARK       I    between atoms: O2_5  and  S_66 
REMARK       I    between atoms: C2_7  and  N_46 
REMARK       I    between atoms: O1_8  and  C4_39 
REMARK       I    between atoms: C2_12  and  N_23 
REMARK       I    between atoms: O2S_13  and  S1_25 
REMARK       I    between atoms: C1_14  and  O1_65 
REMARK       I    between atoms: O3_15  and  C3_69 
REMARK       I    between atoms: C5_16  and  C6_31 
REMARK       I    between atoms: C5_17  and  C6_68 
REMARK       I    between atoms: C5_18  and  C6_71 
REMARK       I    between atoms: O3S_19  and  S1_25 
REMARK       I    between atoms: C6_20  and  C5_28 
REMARK       I    between atoms: C6_20  and  O6_74 
REMARK       I    between atoms: C4_21  and  O1_35 
REMARK       I    between atoms: S2_22  and  O6_74 
REMARK       I    between atoms: N_23  and  S1_25 
REMARK       I    between atoms: O1S_24  and  S1_25 
REMARK       I    between atoms: C4_27  and  O1_63 
REMARK       I    between atoms: O1_29  and  C4_49 
REMARK       I    between atoms: O1_29  and  C1_73 
REMARK       I    between atoms: O2_30  and  C2_78 
REMARK       I    between atoms: O3_33  and  C3_42 
REMARK       I    between atoms: O1_35  and  C1_77 
REMARK       I    between atoms: O3S_37  and  S1_50 
REMARK       I    between atoms: C2_38  and  O2_45 
REMARK       I    between atoms: C6_40  and  C5_51 
REMARK       I    between atoms: C3_41  and  O3_67 
REMARK       I    between atoms: N_46  and  S1_50 
REMARK       I    between atoms: O6_47  and  C6_71 
REMARK       I    between atoms: O6_47  and  S2_72 
REMARK       I    between atoms: S1_50  and  O1S_61 
REMARK       I    between atoms: S1_50  and  O2S_54 
REMARK       I    between atoms: O3_56  and  C3_75 
REMARK       I    between atoms: C1_58  and  O1_63 
ROOT
ATOM      1  O3  SGN d 502       4.756  19.399 -19.164  0.00  0.00    -0.391 OA
ATOM      2  C1  SGN d 502       2.221  16.977 -17.778  0.00  0.00     0.150 C 
ATOM      3  O6S SGN d 502       6.739  13.953 -14.364  0.00  0.00    -0.572 OA
ATOM      4  C2  SGN d 502       2.870  18.356 -18.076  0.00  0.00     0.081 C 
ATOM      5  O1  SGN d 502       1.766  16.362 -18.966  0.00  0.00    -0.348 OA
ATOM      6  O5  SGN d 502       3.154  16.121 -17.102  0.00  0.00    -0.349 OA
ATOM      7  C6  SGN d 502       5.246  14.943 -16.891  0.00  0.00     0.067 C 
ATOM      8  S2  SGN d 502       5.852  15.077 -14.286  0.00  0.00     0.251 S 
ATOM      9  C5  SGN d 502       4.429  15.914 -17.765  0.00  0.00     0.091 C 
ATOM     10  O3S SGN d 502       0.112  19.568 -17.173  0.00  0.00    -0.296 OA
ATOM     11  N   SGN d 502       1.893  19.187 -18.795  0.00  0.00    -0.210 NA
ATOM     12  C3  SGN d 502       4.156  18.146 -18.899  0.00  0.00     0.083 C 
ATOM     13  C4  SGN d 502       5.123  17.284 -18.056  0.00  0.00     0.095 C 
ATOM     14  S1  SGN d 502       1.036  20.319 -17.975  0.00  0.00     0.156 S 
ATOM     15  O2S SGN d 502       0.376  21.108 -18.975  0.00  0.00    -0.296 OA
ATOM     16  O4S SGN d 502       6.369  16.140 -13.480  0.00  0.00    -0.572 OA
ATOM     17  O1S SGN d 502       1.940  21.082 -17.168  0.00  0.00    -0.296 OA
ATOM     18  O5S SGN d 502       4.518  14.696 -13.916  0.00  0.00    -0.572 OA
ATOM     19  O6  SGN d 502       5.715  15.627 -15.744  0.00  0.00    -0.254 OA
ATOM     20  H   SGN d 502       4.151  19.941 -19.694  0.00  0.00     0.210 HD
ATOM     21  H   SGN d 502       1.377  17.140 -17.141  0.00  0.00     0.131 H 
ATOM     22  H   SGN d 502       3.140  18.858 -17.170  0.00  0.00     0.076 H 
ATOM     23  H   SGN d 502       6.078  14.571 -17.451  0.00  0.00     0.080 H 
ATOM     24  H   SGN d 502       4.627  14.123 -16.591  0.00  0.00     0.080 H 
ATOM     25  H   SGN d 502       4.318  15.466 -18.730  0.00  0.00     0.090 H 
ATOM     26  H   SGN d 502       0.602  19.052 -16.514  0.00  0.00     0.231 HD
ATOM     27  H   SGN d 502       1.216  18.550 -19.217  0.00  0.00     0.140 HD
ATOM     28  H   SGN d 502       3.930  17.662 -19.826  0.00  0.00     0.089 H 
ATOM     29  H   SGN d 502       5.391  17.662 -17.091  0.00  0.00     0.091 H 
ATOM     30  H   SGN d 502      -0.221  20.543 -19.491  0.00  0.00     0.231 HD
ATOM     31  H   SGN d 502       2.356  20.501 -16.512  0.00  0.00     0.231 HD
ATOM     32  O62 IDS d 503       7.740  21.847 -19.671  0.00  0.00    -0.646 OA
ATOM     33  O2  IDS d 503       9.680  16.307 -18.303  0.00  0.00    -0.244 OA
ATOM     34  O5  IDS d 503       7.856  18.735 -18.072  0.00  0.00    -0.340 OA
ATOM     35  C5  IDS d 503       8.051  19.523 -19.254  0.00  0.00     0.152 C 
ATOM     36  C4  IDS d 503       9.321  19.028 -19.984  0.00  0.00     0.103 C 
ATOM     37  O61 IDS d 503       8.393  21.368 -17.763  0.00  0.00    -0.646 OA
ATOM     38  O1  IDS d 503       6.275  17.208 -18.894  0.00  0.00    -0.348 OA
ATOM     39  C6  IDS d 503       8.063  21.000 -18.870  0.00  0.00     0.206 C 
ATOM     40  O1S IDS d 503      10.370  14.058 -18.773  0.00  0.00    -0.572 OA
ATOM     41  O3S IDS d 503       8.790  14.469 -17.030  0.00  0.00    -0.572 OA
ATOM     42  C3  IDS d 503       9.166  17.520 -20.326  0.00  0.00     0.094 C 
ATOM     43  O2S IDS d 503      11.057  15.140 -16.753  0.00  0.00    -0.572 OA
ATOM     44  S   IDS d 503       9.989  14.905 -17.682  0.00  0.00     0.252 S 
ATOM     45  O3  IDS d 503       8.285  17.408 -21.429  0.00  0.00    -0.390 OA
ATOM     46  C1  IDS d 503       7.527  17.366 -18.280  0.00  0.00     0.161 C 
ATOM     47  C2  IDS d 503       8.607  16.668 -19.151  0.00  0.00     0.134 C 
ATOM     48  H   IDS d 503       7.248  19.411 -19.953  0.00  0.00     0.104 H 
ATOM     49  H   IDS d 503       9.412  19.648 -20.851  0.00  0.00     0.092 H 
ATOM     50  H   IDS d 503      10.142  17.141 -20.543  0.00  0.00     0.091 H 
ATOM     51  H   IDS d 503       7.416  17.763 -21.187  0.00  0.00     0.210 HD
ATOM     52  H   IDS d 503       7.487  16.912 -17.313  0.00  0.00     0.133 H 
ATOM     53  H   IDS d 503       8.129  15.827 -19.609  0.00  0.00     0.097 H 
ATOM     54  C4  IDS d 505      15.535  24.492 -14.455  0.00  0.00    -0.005 C 
ATOM     55  C5  IDS d 505      15.857  23.191 -15.262  0.00  0.00     0.127 C 
ATOM     56  O2  IDS d 505      12.154  24.977 -16.069  0.00  0.00    -0.388 OA
ATOM     57  O62 IDS d 505      17.993  23.148 -16.360  0.00  0.00    -0.646 OA
ATOM     58  C1  IDS d 505      13.875  23.412 -16.714  0.00  0.00     0.159 C 
ATOM     59  O5  IDS d 505      15.303  23.290 -16.595  0.00  0.00    -0.343 OA
ATOM     60  O1  IDS d 505      13.250  22.158 -16.709  0.00  0.00    -0.348 OA
ATOM     61  O61 IDS d 505      17.949  22.428 -14.415  0.00  0.00    -0.646 OA
ATOM     62  C6  IDS d 505      17.355  22.905 -15.355  0.00  0.00     0.203 C 
ATOM     63  C3  IDS d 505      14.295  25.239 -15.013  0.00  0.00     0.068 C 
ATOM     64  C2  IDS d 505      13.258  24.249 -15.564  0.00  0.00     0.107 C 
ATOM     65  H   IDS d 505      15.347  24.227 -13.436  0.00  0.00     0.041 H 
ATOM     66  H   IDS d 505      16.377  25.146 -14.540  0.00  0.00     0.041 H 
ATOM     67  H   IDS d 505      15.410  22.377 -14.729  0.00  0.00     0.100 H 
ATOM     68  H   IDS d 505      11.493  24.360 -16.419  0.00  0.00     0.210 HD
ATOM     69  H   IDS d 505      13.708  23.907 -17.648  0.00  0.00     0.133 H 
ATOM     70  H   IDS d 505      14.602  25.880 -15.814  0.00  0.00     0.087 H 
ATOM     71  H   IDS d 505      12.946  23.591 -14.779  0.00  0.00     0.094 H 
ATOM     72  O4S SGN d 504      13.772  24.969 -21.585  0.00  0.00    -0.572 OA
ATOM     73  C2  SGN d 504      12.962  19.333 -19.074  0.00  0.00     0.081 C 
ATOM     74  O2S SGN d 504      14.663  16.079 -19.360  0.00  0.00    -0.296 OA
ATOM     75  C5  SGN d 504      11.583  21.877 -18.763  0.00  0.00     0.091 C 
ATOM     76  O3S SGN d 504      12.700  16.229 -20.706  0.00  0.00    -0.296 OA
ATOM     77  N   SGN d 504      13.033  17.868 -18.922  0.00  0.00    -0.210 NA
ATOM     78  O1S SGN d 504      14.449  17.807 -20.998  0.00  0.00    -0.296 OA
ATOM     79  S1  SGN d 504      13.770  16.948 -20.072  0.00  0.00     0.156 S 
ATOM     80  C4  SGN d 504      12.903  21.581 -17.974  0.00  0.00     0.095 C 
ATOM     81  O1  SGN d 504      10.520  19.148 -19.212  0.00  0.00    -0.348 OA
ATOM     82  O6S SGN d 504      12.273  26.136 -20.131  0.00  0.00    -0.572 OA
ATOM     83  O6  SGN d 504      12.434  23.747 -20.001  0.00  0.00    -0.254 OA
ATOM     84  O5S SGN d 504      11.409  24.769 -21.887  0.00  0.00    -0.572 OA
ATOM     85  O3  SGN d 504      14.148  19.745 -17.005  0.00  0.00    -0.391 OA
ATOM     86  O5  SGN d 504      11.528  21.099 -19.990  0.00  0.00    -0.349 OA
ATOM     87  C6  SGN d 504      11.375  23.348 -19.156  0.00  0.00     0.067 C 
ATOM     88  S2  SGN d 504      12.484  24.982 -20.957  0.00  0.00     0.251 S 
ATOM     89  C3  SGN d 504      12.959  20.056 -17.708  0.00  0.00     0.083 C 
ATOM     90  C1  SGN d 504      11.661  19.683 -19.848  0.00  0.00     0.150 C 
ATOM     91  H   SGN d 504      13.828  19.661 -19.608  0.00  0.00     0.076 H 
ATOM     92  H   SGN d 504      14.154  15.522 -18.750  0.00  0.00     0.231 HD
ATOM     93  H   SGN d 504      10.809  21.607 -18.075  0.00  0.00     0.090 H 
ATOM     94  H   SGN d 504      12.263  15.660 -20.054  0.00  0.00     0.231 HD
ATOM     95  H   SGN d 504      12.071  17.534 -18.853  0.00  0.00     0.140 HD
ATOM     96  H   SGN d 504      14.885  17.269 -21.678  0.00  0.00     0.231 HD
ATOM     97  H   SGN d 504      13.590  22.058 -18.642  0.00  0.00     0.091 H 
ATOM     98  H   SGN d 504      14.185  18.790 -16.838  0.00  0.00     0.210 HD
ATOM     99  H   SGN d 504      11.367  23.957 -18.276  0.00  0.00     0.080 H 
ATOM    100  H   SGN d 504      10.440  23.459 -19.665  0.00  0.00     0.080 H 
ATOM    101  H   SGN d 504      12.118  19.745 -17.125  0.00  0.00     0.089 H 
ATOM    102  H   SGN d 504      11.735  19.240 -20.820  0.00  0.00     0.131 H 
ATOM    103  C1  IDS d 501      -1.468  13.417 -19.297  0.00  0.00     0.156 C 
ATOM    104  O3  IDS d 501       0.981  13.520 -17.291  0.00  0.00    -0.390 OA
ATOM    105  C2  IDS d 501      -1.289  14.085 -17.906  0.00  0.00     0.110 C 
ATOM    106  C4  IDS d 501       0.776  15.329 -18.864  0.00  0.00     0.103 C 
ATOM    107  C6  IDS d 501       1.122  15.056 -21.424  0.00  0.00     0.206 C 
ATOM    108  C3  IDS d 501       0.149  14.610 -17.635  0.00  0.00     0.092 C 
ATOM    109  O5  IDS d 501      -0.849  14.212 -20.307  0.00  0.00    -0.340 OA
ATOM    110  O2  IDS d 501      -2.188  15.177 -17.826  0.00  0.00    -0.388 OA
ATOM    111  C5  IDS d 501       0.557  14.463 -20.135  0.00  0.00     0.152 C 
ATOM    112  O62 IDS d 501       2.194  14.695 -21.850  0.00  0.00    -0.646 OA
ATOM    113  O61 IDS d 501       0.519  15.900 -22.051  0.00  0.00    -0.646 OA
ATOM    114  O1  IDS d 501      -0.941  12.118 -19.249  0.00  0.00    -0.368 OA
ATOM    115  H   IDS d 501      -2.507  13.348 -19.547  0.00  0.00     0.133 H 
ATOM    116  H   IDS d 501       0.607  13.057 -16.525  0.00  0.00     0.210 HD
ATOM    117  H   IDS d 501      -1.484  13.334 -17.169  0.00  0.00     0.094 H 
ATOM    118  H   IDS d 501       0.328  16.251 -18.560  0.00  0.00     0.092 H 
ATOM    119  H   IDS d 501       0.075  15.322 -16.840  0.00  0.00     0.091 H 
ATOM    120  H   IDS d 501      -1.969  15.826 -18.512  0.00  0.00     0.210 HD
ATOM    121  H   IDS d 501       1.104  13.558 -19.964  0.00  0.00     0.104 H 
ATOM    122  H   IDS d 501       0.002  12.160 -19.023  0.00  0.00     0.212 HD
ATOM    123  O3  IDS d 535      13.719  25.991 -13.965  0.00  0.00    -0.393 OA
ATOM    124  H   IDS d 535      14.374  26.616 -13.617  0.00  0.00     0.210 HD
ENDROOT
TORSDOF 37
ENDMDL
MODEL 8
REMARK VINA RESULT:      -7.4      2.759      5.193
REMARK  0 active torsions:
REMARK  status: ('A' for Active; 'I' for Inactive)
REMARK       I    between atoms: O3_1  and  C3_48 
REMARK       I    between atoms: C1_2  and  O1_8 
REMARK       I    between atoms: O2_5  and  C2_76 
REMARK       I    between atoms: O2_5  and  S_66 
REMARK       I    between atoms: C2_7  and  N_46 
REMARK       I    between atoms: O1_8  and  C4_39 
REMARK       I    between atoms: C2_12  and  N_23 
REMARK       I    between atoms: O2S_13  and  S1_25 
REMARK       I    between atoms: C1_14  and  O1_65 
REMARK       I    between atoms: O3_15  and  C3_69 
REMARK       I    between atoms: C5_16  and  C6_31 
REMARK       I    between atoms: C5_17  and  C6_68 
REMARK       I    between atoms: C5_18  and  C6_71 
REMARK       I    between atoms: O3S_19  and  S1_25 
REMARK       I    between atoms: C6_20  and  C5_28 
REMARK       I    between atoms: C6_20  and  O6_74 
REMARK       I    between atoms: C4_21  and  O1_35 
REMARK       I    between atoms: S2_22  and  O6_74 
REMARK       I    between atoms: N_23  and  S1_25 
REMARK       I    between atoms: O1S_24  and  S1_25 
REMARK       I    between atoms: C4_27  and  O1_63 
REMARK       I    between atoms: O1_29  and  C4_49 
REMARK       I    between atoms: O1_29  and  C1_73 
REMARK       I    between atoms: O2_30  and  C2_78 
REMARK       I    between atoms: O3_33  and  C3_42 
REMARK       I    between atoms: O1_35  and  C1_77 
REMARK       I    between atoms: O3S_37  and  S1_50 
REMARK       I    between atoms: C2_38  and  O2_45 
REMARK       I    between atoms: C6_40  and  C5_51 
REMARK       I    between atoms: C3_41  and  O3_67 
REMARK       I    between atoms: N_46  and  S1_50 
REMARK       I    between atoms: O6_47  and  C6_71 
REMARK       I    between atoms: O6_47  and  S2_72 
REMARK       I    between atoms: S1_50  and  O1S_61 
REMARK       I    between atoms: S1_50  and  O2S_54 
REMARK       I    between atoms: O3_56  and  C3_75 
REMARK       I    between atoms: C1_58  and  O1_63 
ROOT
ATOM      1  O3  SGN d 502       4.762  19.467 -19.661  0.00  0.00    -0.391 OA
ATOM      2  C1  SGN d 502       2.450  17.002 -17.989  0.00  0.00     0.150 C 
ATOM      3  O6S SGN d 502       7.407  13.904 -15.338  0.00  0.00    -0.572 OA
ATOM      4  C2  SGN d 502       3.050  18.391 -18.341  0.00  0.00     0.081 C 
ATOM      5  O1  SGN d 502       1.828  16.417 -19.116  0.00  0.00    -0.348 OA
ATOM      6  O5  SGN d 502       3.469  16.132 -17.477  0.00  0.00    -0.349 OA
ATOM      7  C6  SGN d 502       5.569  14.955 -17.599  0.00  0.00     0.067 C 
ATOM      8  S2  SGN d 502       6.541  15.023 -15.105  0.00  0.00     0.251 S 
ATOM      9  C5  SGN d 502       4.636  15.946 -18.321  0.00  0.00     0.091 C 
ATOM     10  O3S SGN d 502       0.451  19.570 -17.021  0.00  0.00    -0.296 OA
ATOM     11  N   SGN d 502       1.980  19.237 -18.891  0.00  0.00    -0.210 NA
ATOM     12  C3  SGN d 502       4.204  18.206 -19.345  0.00  0.00     0.083 C 
ATOM     13  C4  SGN d 502       5.282  17.325 -18.672  0.00  0.00     0.095 C 
ATOM     14  S1  SGN d 502       1.251  20.344 -17.927  0.00  0.00     0.156 S 
ATOM     15  O2S SGN d 502       0.455  21.157 -18.801  0.00  0.00    -0.296 OA
ATOM     16  O4S SGN d 502       7.170  16.067 -14.354  0.00  0.00    -0.572 OA
ATOM     17  O1S SGN d 502       2.261  21.089 -17.238  0.00  0.00    -0.296 OA
ATOM     18  O5S SGN d 502       5.274  14.629 -14.557  0.00  0.00    -0.572 OA
ATOM     19  O6  SGN d 502       6.198  15.611 -16.514  0.00  0.00    -0.254 OA
ATOM     20  H   SGN d 502       4.087  20.022 -20.084  0.00  0.00     0.210 HD
ATOM     21  H   SGN d 502       1.706  17.146 -17.235  0.00  0.00     0.131 H 
ATOM     22  H   SGN d 502       3.447  18.869 -17.471  0.00  0.00     0.076 H 
ATOM     23  H   SGN d 502       6.312  14.601 -18.282  0.00  0.00     0.080 H 
ATOM     24  H   SGN d 502       4.998  14.126 -17.235  0.00  0.00     0.080 H 
ATOM     25  H   SGN d 502       4.387  15.523 -19.271  0.00  0.00     0.090 H 
ATOM     26  H   SGN d 502       1.029  19.038 -16.453  0.00  0.00     0.231 HD
ATOM     27  H   SGN d 502       1.250  18.610 -19.228  0.00  0.00     0.140 HD
ATOM     28  H   SGN d 502       3.848  17.746 -20.243  0.00  0.00     0.089 H 
ATOM     29  H   SGN d 502       5.686  17.679 -17.747  0.00  0.00     0.091 H 
ATOM     30  H   SGN d 502      -0.210  20.604 -19.241  0.00  0.00     0.231 HD
ATOM     31  H   SGN d 502       2.767  20.493 -16.664  0.00  0.00     0.231 HD
ATOM     32  O62 IDS d 503       7.643  21.937 -20.525  0.00  0.00    -0.646 OA
ATOM     33  O2  IDS d 503       9.756  16.370 -19.595  0.00  0.00    -0.244 OA
ATOM     34  O5  IDS d 503       7.985  18.785 -19.041  0.00  0.00    -0.340 OA
ATOM     35  C5  IDS d 503       8.009  19.604 -20.218  0.00  0.00     0.152 C 
ATOM     36  C4  IDS d 503       9.161  19.132 -21.135  0.00  0.00     0.103 C 
ATOM     37  O61 IDS d 503       8.563  21.411 -18.744  0.00  0.00    -0.646 OA
ATOM     38  O1  IDS d 503       6.302  17.275 -19.668  0.00  0.00    -0.348 OA
ATOM     39  C6  IDS d 503       8.078  21.071 -19.802  0.00  0.00     0.206 C 
ATOM     40  O1S IDS d 503      10.370  14.136 -20.218  0.00  0.00    -0.572 OA
ATOM     41  O3S IDS d 503       9.056  14.496 -18.256  0.00  0.00    -0.572 OA
ATOM     42  C3  IDS d 503       8.958  17.634 -21.491  0.00  0.00     0.094 C 
ATOM     43  O2S IDS d 503      11.340  15.166 -18.289  0.00  0.00    -0.572 OA
ATOM     44  S   IDS d 503      10.150  14.952 -19.062  0.00  0.00     0.252 S 
ATOM     45  O3  IDS d 503       7.928  17.547 -22.459  0.00  0.00    -0.390 OA
ATOM     46  C1  IDS d 503       7.628  17.421 -19.236  0.00  0.00     0.161 C 
ATOM     47  C2  IDS d 503       8.572  16.749 -20.271  0.00  0.00     0.134 C 
ATOM     48  H   IDS d 503       7.115  19.508 -20.797  0.00  0.00     0.104 H 
ATOM     49  H   IDS d 503       9.127  19.775 -21.990  0.00  0.00     0.092 H 
ATOM     50  H   IDS d 503       9.893  17.263 -21.856  0.00  0.00     0.091 H 
ATOM     51  H   IDS d 503       7.103  17.893 -22.086  0.00  0.00     0.210 HD
ATOM     52  H   IDS d 503       7.728  16.942 -18.286  0.00  0.00     0.133 H 
ATOM     53  H   IDS d 503       8.033  15.919 -20.678  0.00  0.00     0.097 H 
ATOM     54  C4  IDS d 505      16.106  24.469 -16.412  0.00  0.00    -0.005 C 
ATOM     55  C5  IDS d 505      16.309  23.190 -17.290  0.00  0.00     0.127 C 
ATOM     56  O2  IDS d 505      12.530  24.986 -17.512  0.00  0.00    -0.388 OA
ATOM     57  O62 IDS d 505      18.266  23.183 -18.684  0.00  0.00    -0.646 OA
ATOM     58  C1  IDS d 505      14.140  23.443 -18.437  0.00  0.00     0.159 C 
ATOM     59  O5  IDS d 505      15.570  23.323 -18.527  0.00  0.00    -0.343 OA
ATOM     60  O1  IDS d 505      13.521  22.188 -18.376  0.00  0.00    -0.348 OA
ATOM     61  O61 IDS d 505      18.500  22.412 -16.772  0.00  0.00    -0.646 OA
ATOM     62  C6  IDS d 505      17.778  22.912 -17.605  0.00  0.00     0.203 C 
ATOM     63  C3  IDS d 505      14.800  25.227 -16.767  0.00  0.00     0.068 C 
ATOM     64  C2  IDS d 505      13.694  24.248 -17.189  0.00  0.00     0.107 C 
ATOM     65  H   IDS d 505      16.067  24.177 -15.383  0.00  0.00     0.041 H 
ATOM     66  H   IDS d 505      16.928  25.128 -16.599  0.00  0.00     0.041 H 
ATOM     67  H   IDS d 505      15.942  22.362 -16.721  0.00  0.00     0.100 H 
ATOM     68  H   IDS d 505      11.825  24.376 -17.780  0.00  0.00     0.210 HD
ATOM     69  H   IDS d 505      13.841  23.962 -19.324  0.00  0.00     0.133 H 
ATOM     70  H   IDS d 505      14.990  25.889 -17.586  0.00  0.00     0.087 H 
ATOM     71  H   IDS d 505      13.497  23.570 -16.385  0.00  0.00     0.094 H 
ATOM     72  O4S SGN d 504      13.341  25.127 -23.200  0.00  0.00    -0.572 OA
ATOM     73  C2  SGN d 504      12.895  19.424 -20.748  0.00  0.00     0.081 C 
ATOM     74  O2S SGN d 504      14.536  16.184 -21.361  0.00  0.00    -0.296 OA
ATOM     75  C5  SGN d 504      11.577  21.955 -20.177  0.00  0.00     0.091 C 
ATOM     76  O3S SGN d 504      12.400  16.363 -22.407  0.00  0.00    -0.296 OA
ATOM     77  N   SGN d 504      12.986  17.956 -20.647  0.00  0.00    -0.210 NA
ATOM     78  O1S SGN d 504      14.090  17.954 -22.905  0.00  0.00    -0.296 OA
ATOM     79  S1  SGN d 504      13.551  17.069 -21.915  0.00  0.00     0.156 S 
ATOM     80  C4  SGN d 504      12.996  21.643 -19.592  0.00  0.00     0.095 C 
ATOM     81  O1  SGN d 504      10.459  19.236 -20.540  0.00  0.00    -0.348 OA
ATOM     82  O6S SGN d 504      12.066  26.250 -21.517  0.00  0.00    -0.572 OA
ATOM     83  O6  SGN d 504      12.243  23.860 -21.474  0.00  0.00    -0.254 OA
ATOM     84  O5S SGN d 504      10.959  24.928 -23.167  0.00  0.00    -0.572 OA
ATOM     85  O3  SGN d 504      14.365  19.786 -18.861  0.00  0.00    -0.391 OA
ATOM     86  O5  SGN d 504      11.346  21.210 -21.403  0.00  0.00    -0.349 OA
ATOM     87  C6  SGN d 504      11.315  23.435 -20.496  0.00  0.00     0.067 C 
ATOM     88  S2  SGN d 504      12.156  25.119 -22.394  0.00  0.00     0.251 S 
ATOM     89  C3  SGN d 504      13.089  20.112 -19.378  0.00  0.00     0.083 C 
ATOM     90  C1  SGN d 504      11.497  19.790 -21.319  0.00  0.00     0.150 C 
ATOM     91  H   SGN d 504      13.676  19.769 -21.392  0.00  0.00     0.076 H 
ATOM     92  H   SGN d 504      14.119  15.611 -20.698  0.00  0.00     0.231 HD
ATOM     93  H   SGN d 504      10.910  21.665 -19.392  0.00  0.00     0.090 H 
ATOM     94  H   SGN d 504      12.061  15.776 -21.714  0.00  0.00     0.231 HD
ATOM     95  H   SGN d 504      12.044  17.618 -20.449  0.00  0.00     0.140 HD
ATOM     96  H   SGN d 504      14.424  17.435 -23.654  0.00  0.00     0.231 HD
ATOM     97  H   SGN d 504      13.581  22.140 -20.339  0.00  0.00     0.091 H 
ATOM     98  H   SGN d 504      14.425  18.827 -18.726  0.00  0.00     0.210 HD
ATOM     99  H   SGN d 504      11.434  24.021 -19.609  0.00  0.00     0.080 H 
ATOM    100  H   SGN d 504      10.318  23.557 -20.864  0.00  0.00     0.080 H 
ATOM    101  H   SGN d 504      12.340  19.783 -18.689  0.00  0.00     0.089 H 
ATOM    102  H   SGN d 504      11.431  19.374 -22.302  0.00  0.00     0.131 H 
ATOM    103  C1  IDS d 501      -1.422  13.472 -19.058  0.00  0.00     0.156 C 
ATOM    104  O3  IDS d 501       1.289  13.530 -17.421  0.00  0.00    -0.390 OA
ATOM    105  C2  IDS d 501      -1.045  14.104 -17.690  0.00  0.00     0.110 C 
ATOM    106  C4  IDS d 501       0.863  15.379 -18.901  0.00  0.00     0.103 C 
ATOM    107  C6  IDS d 501       0.838  15.174 -21.490  0.00  0.00     0.206 C 
ATOM    108  C3  IDS d 501       0.417  14.626 -17.614  0.00  0.00     0.092 C 
ATOM    109  O5  IDS d 501      -0.954  14.295 -20.124  0.00  0.00    -0.340 OA
ATOM    110  O2  IDS d 501      -1.922  15.190 -17.453  0.00  0.00    -0.388 OA
ATOM    111  C5  IDS d 501       0.463  14.545 -20.149  0.00  0.00     0.152 C 
ATOM    112  O62 IDS d 501       1.838  14.827 -22.074  0.00  0.00    -0.646 OA
ATOM    113  O61 IDS d 501       0.152  16.032 -22.001  0.00  0.00    -0.646 OA
ATOM    114  O1  IDS d 501      -0.894  12.173 -19.119  0.00  0.00    -0.368 OA
ATOM    115  H   IDS d 501      -2.486  13.406 -19.157  0.00  0.00     0.133 H 
ATOM    116  H   IDS d 501       1.029  13.046 -16.622  0.00  0.00     0.210 HD
ATOM    117  H   IDS d 501      -1.133  13.333 -16.953  0.00  0.00     0.094 H 
ATOM    118  H   IDS d 501       0.463  16.291 -18.512  0.00  0.00     0.092 H 
ATOM    119  H   IDS d 501       0.459  15.317 -16.798  0.00  0.00     0.091 H 
ATOM    120  H   IDS d 501      -1.804  15.858 -18.146  0.00  0.00     0.210 HD
ATOM    121  H   IDS d 501       1.028  13.638 -20.082  0.00  0.00     0.104 H 
ATOM    122  H   IDS d 501       0.071  12.212 -19.030  0.00  0.00     0.212 HD
ATOM    123  O3  IDS d 535      14.380  25.950 -15.628  0.00  0.00    -0.393 OA
ATOM    124  H   IDS d 535      15.079  26.567 -15.361  0.00  0.00     0.210 HD
ENDROOT
TORSDOF 37
ENDMDL
MODEL 9
REMARK VINA RESULT:      -7.4      2.749     12.914
REMARK  0 active torsions:
REMARK  status: ('A' for Active; 'I' for Inactive)
REMARK       I    between atoms: O3_1  and  C3_48 
REMARK       I    between atoms: C1_2  and  O1_8 
REMARK       I    between atoms: O2_5  and  C2_76 
REMARK       I    between atoms: O2_5  and  S_66 
REMARK       I    between atoms: C2_7  and  N_46 
REMARK       I    between atoms: O1_8  and  C4_39 
REMARK       I    between atoms: C2_12  and  N_23 
REMARK       I    between atoms: O2S_13  and  S1_25 
REMARK       I    between atoms: C1_14  and  O1_65 
REMARK       I    between atoms: O3_15  and  C3_69 
REMARK       I    between atoms: C5_16  and  C6_31 
REMARK       I    between atoms: C5_17  and  C6_68 
REMARK       I    between atoms: C5_18  and  C6_71 
REMARK       I    between atoms: O3S_19  and  S1_25 
REMARK       I    between atoms: C6_20  and  C5_28 
REMARK       I    between atoms: C6_20  and  O6_74 
REMARK       I    between atoms: C4_21  and  O1_35 
REMARK       I    between atoms: S2_22  and  O6_74 
REMARK       I    between atoms: N_23  and  S1_25 
REMARK       I    between atoms: O1S_24  and  S1_25 
REMARK       I    between atoms: C4_27  and  O1_63 
REMARK       I    between atoms: O1_29  and  C4_49 
REMARK       I    between atoms: O1_29  and  C1_73 
REMARK       I    between atoms: O2_30  and  C2_78 
REMARK       I    between atoms: O3_33  and  C3_42 
REMARK       I    between atoms: O1_35  and  C1_77 
REMARK       I    between atoms: O3S_37  and  S1_50 
REMARK       I    between atoms: C2_38  and  O2_45 
REMARK       I    between atoms: C6_40  and  C5_51 
REMARK       I    between atoms: C3_41  and  O3_67 
REMARK       I    between atoms: N_46  and  S1_50 
REMARK       I    between atoms: O6_47  and  C6_71 
REMARK       I    between atoms: O6_47  and  S2_72 
REMARK       I    between atoms: S1_50  and  O1S_61 
REMARK       I    between atoms: S1_50  and  O2S_54 
REMARK       I    between atoms: O3_56  and  C3_75 
REMARK       I    between atoms: C1_58  and  O1_63 
ROOT
ATOM      1  O3  SGN d 502       7.891  19.866 -21.033  0.00  0.00    -0.391 OA
ATOM      2  C1  SGN d 502      11.569  19.047 -21.151  0.00  0.00     0.150 C 
ATOM      3  O6S SGN d 502      10.490  13.133 -18.902  0.00  0.00    -0.572 OA
ATOM      4  C2  SGN d 502      10.179  19.475 -21.696  0.00  0.00     0.081 C 
ATOM      5  O1  SGN d 502      12.084  20.013 -20.257  0.00  0.00    -0.348 OA
ATOM      6  O5  SGN d 502      11.482  17.769 -20.505  0.00  0.00    -0.349 OA
ATOM      7  C6  SGN d 502      10.605  16.228 -18.872  0.00  0.00     0.067 C 
ATOM      8  S2  SGN d 502      10.515  13.867 -20.133  0.00  0.00     0.251 S 
ATOM      9  C5  SGN d 502      10.498  17.655 -19.443  0.00  0.00     0.091 C 
ATOM     10  O3S SGN d 502      11.751  20.422 -24.250  0.00  0.00    -0.296 OA
ATOM     11  N   SGN d 502      10.310  20.801 -22.320  0.00  0.00    -0.210 NA
ATOM     12  C3  SGN d 502       9.162  19.486 -20.540  0.00  0.00     0.083 C 
ATOM     13  C4  SGN d 502       9.080  18.053 -19.965  0.00  0.00     0.095 C 
ATOM     14  S1  SGN d 502      10.438  20.917 -23.950  0.00  0.00     0.156 S 
ATOM     15  O2S SGN d 502      10.297  22.312 -24.253  0.00  0.00    -0.296 OA
ATOM     16  O4S SGN d 502       9.614  13.342 -21.113  0.00  0.00    -0.572 OA
ATOM     17  O1S SGN d 502       9.418  20.110 -24.549  0.00  0.00    -0.296 OA
ATOM     18  O5S SGN d 502      11.847  14.042 -20.639  0.00  0.00    -0.572 OA
ATOM     19  O6  SGN d 502      10.030  15.314 -19.788  0.00  0.00    -0.254 OA
ATOM     20  H   SGN d 502       7.940  20.765 -21.393  0.00  0.00     0.210 HD
ATOM     21  H   SGN d 502      12.240  18.970 -21.981  0.00  0.00     0.131 H 
ATOM     22  H   SGN d 502       9.828  18.786 -22.435  0.00  0.00     0.076 H 
ATOM     23  H   SGN d 502      10.082  16.175 -17.940  0.00  0.00     0.080 H 
ATOM     24  H   SGN d 502      11.634  15.981 -18.716  0.00  0.00     0.080 H 
ATOM     25  H   SGN d 502      10.683  18.339 -18.641  0.00  0.00     0.090 H 
ATOM     26  H   SGN d 502      11.800  19.479 -24.029  0.00  0.00     0.231 HD
ATOM     27  H   SGN d 502      11.145  21.233 -21.925  0.00  0.00     0.140 HD
ATOM     28  H   SGN d 502       9.464  20.179 -19.783  0.00  0.00     0.089 H 
ATOM     29  H   SGN d 502       8.814  17.274 -20.649  0.00  0.00     0.091 H 
ATOM     30  H   SGN d 502      11.011  22.810 -23.824  0.00  0.00     0.231 HD
ATOM     31  H   SGN d 502       9.561  19.180 -24.312  0.00  0.00     0.231 HD
ATOM     32  O62 IDS d 503       4.005  19.769 -21.222  0.00  0.00    -0.646 OA
ATOM     33  O2  IDS d 503       6.084  15.829 -17.162  0.00  0.00    -0.244 OA
ATOM     34  O5  IDS d 503       6.077  17.322 -19.816  0.00  0.00    -0.340 OA
ATOM     35  C5  IDS d 503       5.240  18.475 -19.650  0.00  0.00     0.152 C 
ATOM     36  C4  IDS d 503       4.422  18.317 -18.347  0.00  0.00     0.103 C 
ATOM     37  O61 IDS d 503       4.124  17.742 -21.641  0.00  0.00    -0.646 OA
ATOM     38  O1  IDS d 503       8.081  18.185 -18.955  0.00  0.00    -0.348 OA
ATOM     39  C6  IDS d 503       4.406  18.670 -20.913  0.00  0.00     0.206 C 
ATOM     40  O1S IDS d 503       6.823  15.113 -14.995  0.00  0.00    -0.572 OA
ATOM     41  O3S IDS d 503       8.112  14.554 -16.926  0.00  0.00    -0.572 OA
ATOM     42  C3  IDS d 503       5.393  18.142 -17.146  0.00  0.00     0.094 C 
ATOM     43  O2S IDS d 503       5.994  13.524 -16.579  0.00  0.00    -0.572 OA
ATOM     44  S   IDS d 503       6.801  14.691 -16.363  0.00  0.00     0.252 S 
ATOM     45  O3  IDS d 503       5.949  19.408 -16.842  0.00  0.00    -0.390 OA
ATOM     46  C1  IDS d 503       7.122  17.166 -18.864  0.00  0.00     0.161 C 
ATOM     47  C2  IDS d 503       6.550  17.140 -17.420  0.00  0.00     0.134 C 
ATOM     48  H   IDS d 503       5.807  19.374 -19.534  0.00  0.00     0.104 H 
ATOM     49  H   IDS d 503       3.824  19.201 -18.277  0.00  0.00     0.092 H 
ATOM     50  H   IDS d 503       4.824  17.741 -16.334  0.00  0.00     0.091 H 
ATOM     51  H   IDS d 503       6.453  19.732 -17.604  0.00  0.00     0.210 HD
ATOM     52  H   IDS d 503       7.599  16.234 -19.085  0.00  0.00     0.133 H 
ATOM     53  H   IDS d 503       7.348  17.440 -16.773  0.00  0.00     0.097 H 
ATOM     54  C4  IDS d 505      -2.725  12.858 -22.606  0.00  0.00    -0.005 C 
ATOM     55  C5  IDS d 505      -2.333  12.916 -21.093  0.00  0.00     0.127 C 
ATOM     56  O2  IDS d 505      -0.677  15.894 -23.531  0.00  0.00    -0.388 OA
ATOM     57  O62 IDS d 505      -4.162  12.822 -19.539  0.00  0.00    -0.646 OA
ATOM     58  C1  IDS d 505      -1.184  15.088 -21.312  0.00  0.00     0.159 C 
ATOM     59  O5  IDS d 505      -2.199  14.295 -20.674  0.00  0.00    -0.343 OA
ATOM     60  O1  IDS d 505       0.060  14.933 -20.686  0.00  0.00    -0.348 OA
ATOM     61  O61 IDS d 505      -3.348  11.000 -20.106  0.00  0.00    -0.646 OA
ATOM     62  C6  IDS d 505      -3.341  12.207 -20.189  0.00  0.00     0.203 C 
ATOM     63  C3  IDS d 505      -2.312  14.142 -23.372  0.00  0.00     0.068 C 
ATOM     64  C2  IDS d 505      -1.005  14.722 -22.808  0.00  0.00     0.107 C 
ATOM     65  H   IDS d 505      -2.239  12.017 -23.056  0.00  0.00     0.041 H 
ATOM     66  H   IDS d 505      -3.790  12.770 -22.665  0.00  0.00     0.041 H 
ATOM     67  H   IDS d 505      -1.400  12.402 -20.995  0.00  0.00     0.100 H 
ATOM     68  H   IDS d 505       0.147  16.268 -23.182  0.00  0.00     0.210 HD
ATOM     69  H   IDS d 505      -1.519  16.101 -21.228  0.00  0.00     0.133 H 
ATOM     70  H   IDS d 505      -3.079  14.880 -23.260  0.00  0.00     0.087 H 
ATOM     71  H   IDS d 505      -0.227  13.993 -22.902  0.00  0.00     0.094 H 
ATOM     72  O4S SGN d 504      -2.908  19.662 -19.807  0.00  0.00    -0.572 OA
ATOM     73  C2  SGN d 504       1.570  16.013 -17.491  0.00  0.00     0.081 C 
ATOM     74  O2S SGN d 504       2.162  14.333 -14.267  0.00  0.00    -0.296 OA
ATOM     75  C5  SGN d 504       1.161  17.278 -20.080  0.00  0.00     0.091 C 
ATOM     76  O3S SGN d 504       3.358  16.385 -14.486  0.00  0.00    -0.296 OA
ATOM     77  N   SGN d 504       2.427  15.346 -16.493  0.00  0.00    -0.210 NA
ATOM     78  O1S SGN d 504       0.995  16.374 -14.701  0.00  0.00    -0.296 OA
ATOM     79  S1  SGN d 504       2.204  15.628 -14.886  0.00  0.00     0.156 S 
ATOM     80  C4  SGN d 504       0.453  15.924 -19.730  0.00  0.00     0.095 C 
ATOM     81  O1  SGN d 504       3.555  17.179 -18.338  0.00  0.00    -0.348 OA
ATOM     82  O6S SGN d 504      -2.190  19.566 -22.086  0.00  0.00    -0.572 OA
ATOM     83  O6  SGN d 504      -0.850  18.552 -20.376  0.00  0.00    -0.254 OA
ATOM     84  O5S SGN d 504      -1.005  20.921 -20.518  0.00  0.00    -0.572 OA
ATOM     85  O3  SGN d 504       0.767  13.922 -18.407  0.00  0.00    -0.391 OA
ATOM     86  O5  SGN d 504       1.455  18.035 -18.875  0.00  0.00    -0.349 OA
ATOM     87  C6  SGN d 504       0.365  18.207 -21.009  0.00  0.00     0.067 C 
ATOM     88  S2  SGN d 504      -1.803  19.742 -20.716  0.00  0.00     0.251 S 
ATOM     89  C3  SGN d 504       1.378  15.150 -18.758  0.00  0.00     0.083 C 
ATOM     90  C1  SGN d 504       2.232  17.364 -17.880  0.00  0.00     0.150 C 
ATOM     91  H   SGN d 504       0.604  16.168 -17.060  0.00  0.00     0.076 H 
ATOM     92  H   SGN d 504       3.002  13.873 -14.422  0.00  0.00     0.231 HD
ATOM     93  H   SGN d 504       2.047  16.974 -20.597  0.00  0.00     0.090 H 
ATOM     94  H   SGN d 504       4.157  15.853 -14.623  0.00  0.00     0.231 HD
ATOM     95  H   SGN d 504       3.388  15.612 -16.707  0.00  0.00     0.140 HD
ATOM     96  H   SGN d 504       0.860  16.542 -13.755  0.00  0.00     0.231 HD
ATOM     97  H   SGN d 504      -0.487  16.323 -19.410  0.00  0.00     0.091 H 
ATOM     98  H   SGN d 504       1.344  13.436 -17.798  0.00  0.00     0.210 HD
ATOM     99  H   SGN d 504       0.159  17.704 -21.931  0.00  0.00     0.080 H 
ATOM    100  H   SGN d 504       0.933  19.090 -21.214  0.00  0.00     0.080 H 
ATOM    101  H   SGN d 504       2.323  14.949 -19.218  0.00  0.00     0.089 H 
ATOM    102  H   SGN d 504       2.270  17.970 -16.999  0.00  0.00     0.131 H 
ATOM    103  C1  IDS d 501      16.317  20.737 -19.362  0.00  0.00     0.156 C 
ATOM    104  O3  IDS d 501      14.707  18.011 -19.476  0.00  0.00    -0.390 OA
ATOM    105  C2  IDS d 501      16.021  19.750 -20.525  0.00  0.00     0.110 C 
ATOM    106  C4  IDS d 501      13.495  20.022 -19.999  0.00  0.00     0.103 C 
ATOM    107  C6  IDS d 501      12.937  21.863 -18.253  0.00  0.00     0.206 C 
ATOM    108  C3  IDS d 501      14.635  19.053 -20.428  0.00  0.00     0.092 C 
ATOM    109  O5  IDS d 501      15.177  21.556 -19.112  0.00  0.00    -0.340 OA
ATOM    110  O2  IDS d 501      16.074  20.477 -21.739  0.00  0.00    -0.388 OA
ATOM    111  C5  IDS d 501      13.963  20.859 -18.778  0.00  0.00     0.152 C 
ATOM    112  O62 IDS d 501      12.246  21.594 -17.298  0.00  0.00    -0.646 OA
ATOM    113  O61 IDS d 501      12.785  22.945 -18.775  0.00  0.00    -0.646 OA
ATOM    114  O1  IDS d 501      16.700  20.002 -18.229  0.00  0.00    -0.368 OA
ATOM    115  H   IDS d 501      17.122  21.392 -19.624  0.00  0.00     0.133 H 
ATOM    116  H   IDS d 501      15.413  17.394 -19.724  0.00  0.00     0.210 HD
ATOM    117  H   IDS d 501      16.756  18.975 -20.473  0.00  0.00     0.094 H 
ATOM    118  H   IDS d 501      13.340  20.301 -21.020  0.00  0.00     0.092 H 
ATOM    119  H   IDS d 501      14.403  18.686 -21.405  0.00  0.00     0.091 H 
ATOM    120  H   IDS d 501      15.391  21.165 -21.735  0.00  0.00     0.210 HD
ATOM    121  H   IDS d 501      14.114  20.154 -17.987  0.00  0.00     0.104 H 
ATOM    122  H   IDS d 501      15.982  19.401 -17.975  0.00  0.00     0.212 HD
ATOM    123  O3  IDS d 535      -2.132  13.812 -24.733  0.00  0.00    -0.393 OA
ATOM    124  H   IDS d 535      -2.957  13.445 -25.089  0.00  0.00     0.210 HD
ENDROOT
TORSDOF 37
ENDMDL
MODEL 10
REMARK VINA RESULT:      -7.3      4.794     12.194
REMARK  0 active torsions:
REMARK  status: ('A' for Active; 'I' for Inactive)
REMARK       I    between atoms: O3_1  and  C3_48 
REMARK       I    between atoms: C1_2  and  O1_8 
REMARK       I    between atoms: O2_5  and  C2_76 
REMARK       I    between atoms: O2_5  and  S_66 
REMARK       I    between atoms: C2_7  and  N_46 
REMARK       I    between atoms: O1_8  and  C4_39 
REMARK       I    between atoms: C2_12  and  N_23 
REMARK       I    between atoms: O2S_13  and  S1_25 
REMARK       I    between atoms: C1_14  and  O1_65 
REMARK       I    between atoms: O3_15  and  C3_69 
REMARK       I    between atoms: C5_16  and  C6_31 
REMARK       I    between atoms: C5_17  and  C6_68 
REMARK       I    between atoms: C5_18  and  C6_71 
REMARK       I    between atoms: O3S_19  and  S1_25 
REMARK       I    between atoms: C6_20  and  C5_28 
REMARK       I    between atoms: C6_20  and  O6_74 
REMARK       I    between atoms: C4_21  and  O1_35 
REMARK       I    between atoms: S2_22  and  O6_74 
REMARK       I    between atoms: N_23  and  S1_25 
REMARK       I    between atoms: O1S_24  and  S1_25 
REMARK       I    between atoms: C4_27  and  O1_63 
REMARK       I    between atoms: O1_29  and  C4_49 
REMARK       I    between atoms: O1_29  and  C1_73 
REMARK       I    between atoms: O2_30  and  C2_78 
REMARK       I    between atoms: O3_33  and  C3_42 
REMARK       I    between atoms: O1_35  and  C1_77 
REMARK       I    between atoms: O3S_37  and  S1_50 
REMARK       I    between atoms: C2_38  and  O2_45 
REMARK       I    between atoms: C6_40  and  C5_51 
REMARK       I    between atoms: C3_41  and  O3_67 
REMARK       I    between atoms: N_46  and  S1_50 
REMARK       I    between atoms: O6_47  and  C6_71 
REMARK       I    between atoms: O6_47  and  S2_72 
REMARK       I    between atoms: S1_50  and  O1S_61 
REMARK       I    between atoms: S1_50  and  O2S_54 
REMARK       I    between atoms: O3_56  and  C3_75 
REMARK       I    between atoms: C1_58  and  O1_63 
ROOT
ATOM      1  O3  SGN d 502       9.172  20.292 -23.458  0.00  0.00    -0.391 OA
ATOM      2  C1  SGN d 502      10.886  19.418 -26.700  0.00  0.00     0.150 C 
ATOM      3  O6S SGN d 502      10.727  13.159 -25.285  0.00  0.00    -0.572 OA
ATOM      4  C2  SGN d 502       9.791  20.016 -25.775  0.00  0.00     0.081 C 
ATOM      5  O1  SGN d 502      12.113  20.102 -26.543  0.00  0.00    -0.348 OA
ATOM      6  O5  SGN d 502      11.060  18.019 -26.431  0.00  0.00    -0.349 OA
ATOM      7  C6  SGN d 502      11.537  16.135 -25.005  0.00  0.00     0.067 C 
ATOM      8  S2  SGN d 502       9.920  14.187 -25.876  0.00  0.00     0.251 S 
ATOM      9  C5  SGN d 502      11.354  17.664 -25.054  0.00  0.00     0.091 C 
ATOM     10  O3S SGN d 502       8.810  21.544 -28.343  0.00  0.00    -0.296 OA
ATOM     11  N   SGN d 502       9.670  21.453 -26.062  0.00  0.00    -0.210 NA
ATOM     12  C3  SGN d 502      10.172  19.758 -24.305  0.00  0.00     0.083 C 
ATOM     13  C4  SGN d 502      10.254  18.228 -24.097  0.00  0.00     0.095 C 
ATOM     14  S1  SGN d 502       8.453  21.984 -27.024  0.00  0.00     0.156 S 
ATOM     15  O2S SGN d 502       8.459  23.414 -26.905  0.00  0.00    -0.296 OA
ATOM     16  O4S SGN d 502       8.517  13.962 -25.703  0.00  0.00    -0.572 OA
ATOM     17  O1S SGN d 502       7.227  21.392 -26.582  0.00  0.00    -0.296 OA
ATOM     18  O5S SGN d 502      10.278  14.446 -27.242  0.00  0.00    -0.572 OA
ATOM     19  O6  SGN d 502      10.273  15.509 -25.117  0.00  0.00    -0.254 OA
ATOM     20  H   SGN d 502       9.118  21.251 -23.586  0.00  0.00     0.210 HD
ATOM     21  H   SGN d 502      10.564  19.538 -27.713  0.00  0.00     0.131 H 
ATOM     22  H   SGN d 502       8.843  19.553 -25.954  0.00  0.00     0.076 H 
ATOM     23  H   SGN d 502      11.992  15.859 -24.077  0.00  0.00     0.080 H 
ATOM     24  H   SGN d 502      12.165  15.824 -25.814  0.00  0.00     0.080 H 
ATOM     25  H   SGN d 502      12.260  18.111 -24.703  0.00  0.00     0.090 H 
ATOM     26  H   SGN d 502       8.793  20.575 -28.375  0.00  0.00     0.231 HD
ATOM     27  H   SGN d 502      10.543  21.742 -26.503  0.00  0.00     0.140 HD
ATOM     28  H   SGN d 502      11.108  20.220 -24.075  0.00  0.00     0.089 H 
ATOM     29  H   SGN d 502       9.377  17.661 -24.328  0.00  0.00     0.091 H 
ATOM     30  H   SGN d 502       9.310  23.761 -27.217  0.00  0.00     0.231 HD
ATOM     31  H   SGN d 502       7.278  20.429 -26.684  0.00  0.00     0.231 HD
ATOM     32  O62 IDS d 503       6.882  20.367 -20.311  0.00  0.00    -0.646 OA
ATOM     33  O2  IDS d 503      10.362  15.446 -20.351  0.00  0.00    -0.244 OA
ATOM     34  O5  IDS d 503       8.569  17.576 -21.585  0.00  0.00    -0.340 OA
ATOM     35  C5  IDS d 503       8.517  18.672 -20.660  0.00  0.00     0.152 C 
ATOM     36  C4  IDS d 503       9.086  18.207 -19.300  0.00  0.00     0.103 C 
ATOM     37  O61 IDS d 503       6.135  18.516 -20.870  0.00  0.00    -0.646 OA
ATOM     38  O1  IDS d 503      10.556  18.124 -22.706  0.00  0.00    -0.348 OA
ATOM     39  C6  IDS d 503       7.092  19.215 -20.611  0.00  0.00     0.206 C 
ATOM     40  O1S IDS d 503      12.343  14.170 -19.900  0.00  0.00    -0.572 OA
ATOM     41  O3S IDS d 503      11.357  14.092 -22.074  0.00  0.00    -0.572 OA
ATOM     42  C3  IDS d 503      10.540  17.696 -19.494  0.00  0.00     0.094 C 
ATOM     43  O2S IDS d 503      10.243  13.073 -20.233  0.00  0.00    -0.572 OA
ATOM     44  S   IDS d 503      11.129  14.118 -20.659  0.00  0.00     0.252 S 
ATOM     45  O3  IDS d 503      11.385  18.822 -19.651  0.00  0.00    -0.390 OA
ATOM     46  C1  IDS d 503       9.869  17.146 -21.972  0.00  0.00     0.161 C 
ATOM     47  C2  IDS d 503      10.715  16.764 -20.726  0.00  0.00     0.134 C 
ATOM     48  H   IDS d 503       9.131  19.492 -20.970  0.00  0.00     0.104 H 
ATOM     49  H   IDS d 503       9.023  19.061 -18.657  0.00  0.00     0.092 H 
ATOM     50  H   IDS d 503      10.791  17.116 -18.631  0.00  0.00     0.091 H 
ATOM     51  H   IDS d 503      11.120  19.317 -20.442  0.00  0.00     0.210 HD
ATOM     52  H   IDS d 503       9.732  16.290 -22.597  0.00  0.00     0.133 H 
ATOM     53  H   IDS d 503      11.741  16.861 -21.016  0.00  0.00     0.097 H 
ATOM     54  C4  IDS d 505       0.487  14.265 -16.209  0.00  0.00    -0.005 C 
ATOM     55  C5  IDS d 505       1.934  13.916 -15.726  0.00  0.00     0.127 C 
ATOM     56  O2  IDS d 505       1.567  17.372 -18.065  0.00  0.00    -0.388 OA
ATOM     57  O62 IDS d 505       2.168  13.478 -13.375  0.00  0.00    -0.646 OA
ATOM     58  C1  IDS d 505       2.890  16.034 -16.553  0.00  0.00     0.159 C 
ATOM     59  O5  IDS d 505       2.667  15.134 -15.454  0.00  0.00    -0.343 OA
ATOM     60  O1  IDS d 505       4.035  15.683 -17.281  0.00  0.00    -0.348 OA
ATOM     61  O61 IDS d 505       1.728  11.842 -14.572  0.00  0.00    -0.646 OA
ATOM     62  C6  IDS d 505       1.946  13.028 -14.481  0.00  0.00     0.203 C 
ATOM     63  C3  IDS d 505       0.396  15.691 -16.814  0.00  0.00     0.068 C 
ATOM     64  C2  IDS d 505       1.696  16.064 -17.542  0.00  0.00     0.107 C 
ATOM     65  H   IDS d 505       0.193  13.555 -16.954  0.00  0.00     0.041 H 
ATOM     66  H   IDS d 505      -0.160  14.228 -15.358  0.00  0.00     0.041 H 
ATOM     67  H   IDS d 505       2.400  13.365 -16.515  0.00  0.00     0.100 H 
ATOM     68  H   IDS d 505       2.384  17.617 -18.527  0.00  0.00     0.210 HD
ATOM     69  H   IDS d 505       3.013  17.000 -16.109  0.00  0.00     0.133 H 
ATOM     70  H   IDS d 505       0.241  16.398 -16.025  0.00  0.00     0.087 H 
ATOM     71  H   IDS d 505       1.874  15.360 -18.329  0.00  0.00     0.094 H 
ATOM     72  O4S SGN d 504       4.236  20.111 -13.774  0.00  0.00    -0.572 OA
ATOM     73  C2  SGN d 504       7.684  15.849 -16.720  0.00  0.00     0.081 C 
ATOM     74  O2S SGN d 504      10.210  13.373 -15.695  0.00  0.00    -0.296 OA
ATOM     75  C5  SGN d 504       5.672  17.755 -17.608  0.00  0.00     0.091 C 
ATOM     76  O3S SGN d 504      11.165  15.373 -16.576  0.00  0.00    -0.296 OA
ATOM     77  N   SGN d 504       8.798  14.920 -16.985  0.00  0.00    -0.210 NA
ATOM     78  O1S SGN d 504       9.703  15.491 -14.710  0.00  0.00    -0.296 OA
ATOM     79  S1  SGN d 504      10.038  14.782 -15.910  0.00  0.00     0.156 S 
ATOM     80  C4  SGN d 504       5.252  16.379 -16.986  0.00  0.00     0.095 C 
ATOM     81  O1  SGN d 504       8.355  17.133 -18.699  0.00  0.00    -0.348 OA
ATOM     82  O6S SGN d 504       2.768  20.588 -15.601  0.00  0.00    -0.572 OA
ATOM     83  O6  SGN d 504       4.638  19.124 -15.932  0.00  0.00    -0.254 OA
ATOM     84  O5S SGN d 504       4.993  21.452 -15.602  0.00  0.00    -0.572 OA
ATOM     85  O3  SGN d 504       6.019  14.094 -16.777  0.00  0.00    -0.391 OA
ATOM     86  O5  SGN d 504       6.980  18.164 -17.125  0.00  0.00    -0.349 OA
ATOM     87  C6  SGN d 504       4.707  18.918 -17.328  0.00  0.00     0.067 C 
ATOM     88  S2  SGN d 504       4.124  20.391 -15.175  0.00  0.00     0.251 S 
ATOM     89  C3  SGN d 504       6.356  15.351 -17.334  0.00  0.00     0.083 C 
ATOM     90  C1  SGN d 504       8.048  17.233 -17.325  0.00  0.00     0.150 C 
ATOM     91  H   SGN d 504       7.542  15.917 -15.662  0.00  0.00     0.076 H 
ATOM     92  H   SGN d 504      10.434  12.943 -16.536  0.00  0.00     0.231 HD
ATOM     93  H   SGN d 504       5.666  17.569 -18.662  0.00  0.00     0.090 H 
ATOM     94  H   SGN d 504      11.365  14.870 -17.381  0.00  0.00     0.231 HD
ATOM     95  H   SGN d 504       9.211  15.203 -17.873  0.00  0.00     0.140 HD
ATOM     96  H   SGN d 504      10.432  15.413 -14.074  0.00  0.00     0.231 HD
ATOM     97  H   SGN d 504       5.091  16.710 -15.981  0.00  0.00     0.091 H 
ATOM     98  H   SGN d 504       6.710  13.448 -16.994  0.00  0.00     0.210 HD
ATOM     99  H   SGN d 504       3.735  18.678 -17.705  0.00  0.00     0.080 H 
ATOM    100  H   SGN d 504       5.059  19.806 -17.811  0.00  0.00     0.080 H 
ATOM    101  H   SGN d 504       6.453  15.248 -18.394  0.00  0.00     0.089 H 
ATOM    102  H   SGN d 504       8.919  17.589 -16.817  0.00  0.00     0.131 H 
ATOM    103  C1  IDS d 501      15.307  20.437 -29.531  0.00  0.00     0.156 C 
ATOM    104  O3  IDS d 501      13.701  17.886 -28.559  0.00  0.00    -0.390 OA
ATOM    105  C2  IDS d 501      13.978  19.796 -30.017  0.00  0.00     0.110 C 
ATOM    106  C4  IDS d 501      13.090  20.001 -27.588  0.00  0.00     0.103 C 
ATOM    107  C6  IDS d 501      14.625  21.341 -25.976  0.00  0.00     0.206 C 
ATOM    108  C3  IDS d 501      13.138  19.141 -28.884  0.00  0.00     0.092 C 
ATOM    109  O5  IDS d 501      15.080  21.199 -28.347  0.00  0.00    -0.340 OA
ATOM    110  O2  IDS d 501      13.199  20.811 -30.624  0.00  0.00    -0.388 OA
ATOM    111  C5  IDS d 501      14.525  20.477 -27.232  0.00  0.00     0.152 C 
ATOM    112  O62 IDS d 501      14.955  20.855 -24.920  0.00  0.00    -0.646 OA
ATOM    113  O61 IDS d 501      14.375  22.526 -26.001  0.00  0.00    -0.646 OA
ATOM    114  O1  IDS d 501      16.256  19.422 -29.335  0.00  0.00    -0.368 OA
ATOM    115  H   IDS d 501      15.687  21.113 -30.269  0.00  0.00     0.133 H 
ATOM    116  H   IDS d 501      13.740  17.333 -29.355  0.00  0.00     0.210 HD
ATOM    117  H   IDS d 501      14.238  19.011 -30.697  0.00  0.00     0.094 H 
ATOM    118  H   IDS d 501      12.248  20.539 -27.969  0.00  0.00     0.092 H 
ATOM    119  H   IDS d 501      12.138  19.047 -29.253  0.00  0.00     0.091 H 
ATOM    120  H   IDS d 501      12.991  21.495 -29.968  0.00  0.00     0.210 HD
ATOM    121  H   IDS d 501      15.079  19.586 -27.020  0.00  0.00     0.104 H 
ATOM    122  H   IDS d 501      15.929  18.799 -28.668  0.00  0.00     0.212 HD
ATOM    123  O3  IDS d 535      -0.681  15.719 -17.728  0.00  0.00    -0.393 OA
ATOM    124  H   IDS d 535      -1.502  15.483 -17.268  0.00  0.00     0.210 HD
ENDROOT
TORSDOF 37
ENDMDL
MODEL 11
REMARK VINA RESULT:      -7.1      5.550     11.772
REMARK  0 active torsions:
REMARK  status: ('A' for Active; 'I' for Inactive)
REMARK       I    between atoms: O3_1  and  C3_48 
REMARK       I    between atoms: C1_2  and  O1_8 
REMARK       I    between atoms: O2_5  and  C2_76 
REMARK       I    between atoms: O2_5  and  S_66 
REMARK       I    between atoms: C2_7  and  N_46 
REMARK       I    between atoms: O1_8  and  C4_39 
REMARK       I    between atoms: C2_12  and  N_23 
REMARK       I    between atoms: O2S_13  and  S1_25 
REMARK       I    between atoms: C1_14  and  O1_65 
REMARK       I    between atoms: O3_15  and  C3_69 
REMARK       I    between atoms: C5_16  and  C6_31 
REMARK       I    between atoms: C5_17  and  C6_68 
REMARK       I    between atoms: C5_18  and  C6_71 
REMARK       I    between atoms: O3S_19  and  S1_25 
REMARK       I    between atoms: C6_20  and  C5_28 
REMARK       I    between atoms: C6_20  and  O6_74 
REMARK       I    between atoms: C4_21  and  O1_35 
REMARK       I    between atoms: S2_22  and  O6_74 
REMARK       I    between atoms: N_23  and  S1_25 
REMARK       I    between atoms: O1S_24  and  S1_25 
REMARK       I    between atoms: C4_27  and  O1_63 
REMARK       I    between atoms: O1_29  and  C4_49 
REMARK       I    between atoms: O1_29  and  C1_73 
REMARK       I    between atoms: O2_30  and  C2_78 
REMARK       I    between atoms: O3_33  and  C3_42 
REMARK       I    between atoms: O1_35  and  C1_77 
REMARK       I    between atoms: O3S_37  and  S1_50 
REMARK       I    between atoms: C2_38  and  O2_45 
REMARK       I    between atoms: C6_40  and  C5_51 
REMARK       I    between atoms: C3_41  and  O3_67 
REMARK       I    between atoms: N_46  and  S1_50 
REMARK       I    between atoms: O6_47  and  C6_71 
REMARK       I    between atoms: O6_47  and  S2_72 
REMARK       I    between atoms: S1_50  and  O1S_61 
REMARK       I    between atoms: S1_50  and  O2S_54 
REMARK       I    between atoms: O3_56  and  C3_75 
REMARK       I    between atoms: C1_58  and  O1_63 
ROOT
ATOM      1  O3  SGN d 502      12.475  17.937 -23.572  0.00  0.00    -0.391 OA
ATOM      2  C1  SGN d 502      12.789  15.869 -26.709  0.00  0.00     0.150 C 
ATOM      3  O6S SGN d 502       7.820  12.193 -24.977  0.00  0.00    -0.572 OA
ATOM      4  C2  SGN d 502      12.596  17.150 -25.851  0.00  0.00     0.081 C 
ATOM      5  O1  SGN d 502      14.091  15.342 -26.549  0.00  0.00    -0.348 OA
ATOM      6  O5  SGN d 502      11.808  14.881 -26.362  0.00  0.00    -0.349 OA
ATOM      7  C6  SGN d 502      10.660  13.421 -24.827  0.00  0.00     0.067 C 
ATOM      8  S2  SGN d 502       8.111  13.428 -25.646  0.00  0.00     0.251 S 
ATOM      9  C5  SGN d 502      11.742  14.510 -24.960  0.00  0.00     0.091 C 
ATOM     10  O3S SGN d 502      13.128  18.719 -28.524  0.00  0.00    -0.296 OA
ATOM     11  N   SGN d 502      13.639  18.119 -26.216  0.00  0.00    -0.210 NA
ATOM     12  C3  SGN d 502      12.661  16.775 -24.358  0.00  0.00     0.083 C 
ATOM     13  C4  SGN d 502      11.519  15.774 -24.068  0.00  0.00     0.095 C 
ATOM     14  S1  SGN d 502      13.278  19.346 -27.242  0.00  0.00     0.156 S 
ATOM     15  O2S SGN d 502      14.404  20.235 -27.197  0.00  0.00    -0.296 OA
ATOM     16  O4S SGN d 502       7.066  14.397 -25.505  0.00  0.00    -0.572 OA
ATOM     17  O1S SGN d 502      12.062  19.964 -26.808  0.00  0.00    -0.296 OA
ATOM     18  O5S SGN d 502       8.507  13.231 -27.011  0.00  0.00    -0.572 OA
ATOM     19  O6  SGN d 502       9.381  14.015 -24.946  0.00  0.00    -0.254 OA
ATOM     20  H   SGN d 502      13.191  18.567 -23.751  0.00  0.00     0.210 HD
ATOM     21  H   SGN d 502      12.662  16.138 -27.736  0.00  0.00     0.131 H 
ATOM     22  H   SGN d 502      11.640  17.595 -26.035  0.00  0.00     0.076 H 
ATOM     23  H   SGN d 502      10.746  12.946 -23.872  0.00  0.00     0.080 H 
ATOM     24  H   SGN d 502      10.790  12.691 -25.598  0.00  0.00     0.080 H 
ATOM     25  H   SGN d 502      12.663  14.097 -24.605  0.00  0.00     0.090 H 
ATOM     26  H   SGN d 502      12.358  18.129 -28.507  0.00  0.00     0.231 HD
ATOM     27  H   SGN d 502      14.399  17.590 -26.643  0.00  0.00     0.140 HD
ATOM     28  H   SGN d 502      13.611  16.342 -24.123  0.00  0.00     0.089 H 
ATOM     29  H   SGN d 502      10.525  16.096 -24.298  0.00  0.00     0.091 H 
ATOM     30  H   SGN d 502      15.198  19.767 -27.500  0.00  0.00     0.231 HD
ATOM     31  H   SGN d 502      11.337  19.320 -26.858  0.00  0.00     0.231 HD
ATOM     32  O62 IDS d 503      11.177  19.954 -20.507  0.00  0.00    -0.646 OA
ATOM     33  O2  IDS d 503       9.488  14.178 -20.182  0.00  0.00    -0.244 OA
ATOM     34  O5  IDS d 503      10.014  16.831 -21.580  0.00  0.00    -0.340 OA
ATOM     35  C5  IDS d 503      10.859  17.604 -20.716  0.00  0.00     0.152 C 
ATOM     36  C4  IDS d 503      10.878  16.948 -19.316  0.00  0.00     0.103 C 
ATOM     37  O61 IDS d 503       9.251  19.359 -20.992  0.00  0.00    -0.646 OA
ATOM     38  O1  IDS d 503      11.655  15.553 -22.666  0.00  0.00    -0.348 OA
ATOM     39  C6  IDS d 503      10.399  19.058 -20.740  0.00  0.00     0.206 C 
ATOM     40  O1S IDS d 503       9.730  11.862 -19.603  0.00  0.00    -0.572 OA
ATOM     41  O3S IDS d 503       9.010  12.461 -21.800  0.00  0.00    -0.572 OA
ATOM     42  C3  IDS d 503      11.378  15.482 -19.438  0.00  0.00     0.094 C 
ATOM     43  O2S IDS d 503       7.558  12.806 -19.945  0.00  0.00    -0.572 OA
ATOM     44  S   IDS d 503       8.919  12.736 -20.397  0.00  0.00     0.252 S 
ATOM     45  O3  IDS d 503      12.781  15.510 -19.626  0.00  0.00    -0.390 OA
ATOM     46  C1  IDS d 503      10.478  15.526 -21.904  0.00  0.00     0.161 C 
ATOM     47  C2  IDS d 503      10.731  14.697 -20.614  0.00  0.00     0.134 C 
ATOM     48  H   IDS d 503      11.876  17.615 -21.048  0.00  0.00     0.104 H 
ATOM     49  H   IDS d 503      11.520  17.563 -18.721  0.00  0.00     0.092 H 
ATOM     50  H   IDS d 503      11.098  14.975 -18.539  0.00  0.00     0.091 H 
ATOM     51  H   IDS d 503      12.987  15.979 -20.450  0.00  0.00     0.210 HD
ATOM     52  H   IDS d 503       9.709  15.066 -22.488  0.00  0.00     0.133 H 
ATOM     53  H   IDS d 503      11.439  13.938 -20.876  0.00  0.00     0.097 H 
ATOM     54  C4  IDS d 505       2.509  21.407 -16.297  0.00  0.00    -0.005 C 
ATOM     55  C5  IDS d 505       3.146  20.087 -15.751  0.00  0.00     0.127 C 
ATOM     56  O2  IDS d 505       5.574  22.383 -18.277  0.00  0.00    -0.388 OA
ATOM     57  O62 IDS d 505       2.998  19.765 -13.375  0.00  0.00    -0.646 OA
ATOM     58  C1  IDS d 505       5.381  20.604 -16.656  0.00  0.00     0.159 C 
ATOM     59  O5  IDS d 505       4.561  20.284 -15.520  0.00  0.00    -0.343 OA
ATOM     60  O1  IDS d 505       5.803  19.449 -17.329  0.00  0.00    -0.348 OA
ATOM     61  O61 IDS d 505       1.418  19.027 -14.498  0.00  0.00    -0.646 OA
ATOM     62  C6  IDS d 505       2.485  19.597 -14.463  0.00  0.00     0.203 C 
ATOM     63  C3  IDS d 505       3.555  22.328 -16.978  0.00  0.00     0.068 C 
ATOM     64  C2  IDS d 505       4.641  21.501 -17.683  0.00  0.00     0.107 C 
ATOM     65  H   IDS d 505       1.755  21.155 -17.013  0.00  0.00     0.041 H 
ATOM     66  H   IDS d 505       2.095  21.940 -15.466  0.00  0.00     0.041 H 
ATOM     67  H   IDS d 505       2.988  19.335 -16.496  0.00  0.00     0.100 H 
ATOM     68  H   IDS d 505       6.264  21.870 -18.725  0.00  0.00     0.210 HD
ATOM     69  H   IDS d 505       6.223  21.133 -16.260  0.00  0.00     0.133 H 
ATOM     70  H   IDS d 505       4.029  22.933 -16.232  0.00  0.00     0.087 H 
ATOM     71  H   IDS d 505       4.184  20.881 -18.427  0.00  0.00     0.094 H 
ATOM     72  O4S SGN d 504       9.468  22.238 -14.052  0.00  0.00    -0.572 OA
ATOM     73  C2  SGN d 504       8.214  16.729 -16.663  0.00  0.00     0.081 C 
ATOM     74  O2S SGN d 504       7.869  13.276 -15.432  0.00  0.00    -0.296 OA
ATOM     75  C5  SGN d 504       8.436  19.435 -17.711  0.00  0.00     0.091 C 
ATOM     76  O3S SGN d 504      10.009  13.718 -16.385  0.00  0.00    -0.296 OA
ATOM     77  N   SGN d 504       8.174  15.267 -16.844  0.00  0.00    -0.210 NA
ATOM     78  O1S SGN d 504       9.232  15.042 -14.575  0.00  0.00    -0.296 OA
ATOM     79  S1  SGN d 504       8.859  14.272 -15.725  0.00  0.00     0.156 S 
ATOM     80  C4  SGN d 504       7.111  18.946 -17.033  0.00  0.00     0.095 C 
ATOM     81  O1  SGN d 504       9.594  16.888 -18.684  0.00  0.00    -0.348 OA
ATOM     82  O6S SGN d 504       8.890  23.578 -15.946  0.00  0.00    -0.572 OA
ATOM     83  O6  SGN d 504       8.900  21.189 -16.142  0.00  0.00    -0.254 OA
ATOM     84  O5S SGN d 504      10.950  22.373 -15.922  0.00  0.00    -0.572 OA
ATOM     85  O3  SGN d 504       5.804  16.940 -16.681  0.00  0.00    -0.391 OA
ATOM     86  O5  SGN d 504       9.580  18.692 -17.209  0.00  0.00    -0.349 OA
ATOM     87  C6  SGN d 504       8.752  20.927 -17.522  0.00  0.00     0.067 C 
ATOM     88  S2  SGN d 504       9.588  22.419 -15.468  0.00  0.00     0.251 S 
ATOM     89  C3  SGN d 504       6.986  17.424 -17.291  0.00  0.00     0.083 C 
ATOM     90  C1  SGN d 504       9.511  17.269 -17.327  0.00  0.00     0.150 C 
ATOM     91  H   SGN d 504       8.201  16.942 -15.615  0.00  0.00     0.076 H 
ATOM     92  H   SGN d 504       7.654  12.786 -16.242  0.00  0.00     0.231 HD
ATOM     93  H   SGN d 504       8.265  19.264 -18.754  0.00  0.00     0.090 H 
ATOM     94  H   SGN d 504       9.723  13.205 -17.156  0.00  0.00     0.231 HD
ATOM     95  H   SGN d 504       8.633  15.069 -17.733  0.00  0.00     0.140 HD
ATOM     96  H   SGN d 504       9.637  14.459 -13.913  0.00  0.00     0.231 HD
ATOM     97  H   SGN d 504       7.291  19.334 -16.051  0.00  0.00     0.091 H 
ATOM     98  H   SGN d 504       5.724  15.987 -16.842  0.00  0.00     0.210 HD
ATOM     99  H   SGN d 504       7.952  21.517 -17.917  0.00  0.00     0.080 H 
ATOM    100  H   SGN d 504       9.656  21.175 -18.039  0.00  0.00     0.080 H 
ATOM    101  H   SGN d 504       6.942  17.224 -18.342  0.00  0.00     0.089 H 
ATOM    102  H   SGN d 504      10.342  16.836 -16.811  0.00  0.00     0.131 H 
ATOM    103  C1  IDS d 501      16.277  12.882 -29.448  0.00  0.00     0.156 C 
ATOM    104  O3  IDS d 501      13.301  12.611 -28.397  0.00  0.00    -0.390 OA
ATOM    105  C2  IDS d 501      14.938  13.496 -29.942  0.00  0.00     0.110 C 
ATOM    106  C4  IDS d 501      14.598  14.456 -27.556  0.00  0.00     0.103 C 
ATOM    107  C6  IDS d 501      16.635  14.178 -25.968  0.00  0.00     0.206 C 
ATOM    108  C3  IDS d 501      13.928  13.811 -28.804  0.00  0.00     0.092 C 
ATOM    109  O5  IDS d 501      16.757  13.599 -28.313  0.00  0.00    -0.340 OA
ATOM    110  O2  IDS d 501      15.236  14.701 -30.625  0.00  0.00    -0.388 OA
ATOM    111  C5  IDS d 501      15.870  13.649 -27.180  0.00  0.00     0.152 C 
ATOM    112  O62 IDS d 501      16.483  13.678 -24.878  0.00  0.00    -0.646 OA
ATOM    113  O61 IDS d 501      17.406  15.107 -26.062  0.00  0.00    -0.646 OA
ATOM    114  O1  IDS d 501      16.077  11.521 -29.170  0.00  0.00    -0.368 OA
ATOM    115  H   IDS d 501      17.026  12.961 -30.208  0.00  0.00     0.133 H 
ATOM    116  H   IDS d 501      12.876  12.193 -29.161  0.00  0.00     0.210 HD
ATOM    117  H   IDS d 501      14.471  12.768 -30.572  0.00  0.00     0.094 H 
ATOM    118  H   IDS d 501      14.488  15.427 -27.991  0.00  0.00     0.092 H 
ATOM    119  H   IDS d 501      13.224  14.515 -29.199  0.00  0.00     0.091 H 
ATOM    120  H   IDS d 501      15.655  15.325 -30.013  0.00  0.00     0.210 HD
ATOM    121  H   IDS d 501      15.522  12.675 -26.905  0.00  0.00     0.104 H 
ATOM    122  H   IDS d 501      15.399  11.428 -28.482  0.00  0.00     0.212 HD
ATOM    123  O3  IDS d 535       2.889  23.137 -17.925  0.00  0.00    -0.393 OA
ATOM    124  H   IDS d 535       2.203  23.659 -17.480  0.00  0.00     0.210 HD
ENDROOT
TORSDOF 37
ENDMDL
MODEL 12
REMARK VINA RESULT:      -7.1      3.199     12.967
REMARK  0 active torsions:
REMARK  status: ('A' for Active; 'I' for Inactive)
REMARK       I    between atoms: O3_1  and  C3_48 
REMARK       I    between atoms: C1_2  and  O1_8 
REMARK       I    between atoms: O2_5  and  C2_76 
REMARK       I    between atoms: O2_5  and  S_66 
REMARK       I    between atoms: C2_7  and  N_46 
REMARK       I    between atoms: O1_8  and  C4_39 
REMARK       I    between atoms: C2_12  and  N_23 
REMARK       I    between atoms: O2S_13  and  S1_25 
REMARK       I    between atoms: C1_14  and  O1_65 
REMARK       I    between atoms: O3_15  and  C3_69 
REMARK       I    between atoms: C5_16  and  C6_31 
REMARK       I    between atoms: C5_17  and  C6_68 
REMARK       I    between atoms: C5_18  and  C6_71 
REMARK       I    between atoms: O3S_19  and  S1_25 
REMARK       I    between atoms: C6_20  and  C5_28 
REMARK       I    between atoms: C6_20  and  O6_74 
REMARK       I    between atoms: C4_21  and  O1_35 
REMARK       I    between atoms: S2_22  and  O6_74 
REMARK       I    between atoms: N_23  and  S1_25 
REMARK       I    between atoms: O1S_24  and  S1_25 
REMARK       I    between atoms: C4_27  and  O1_63 
REMARK       I    between atoms: O1_29  and  C4_49 
REMARK       I    between atoms: O1_29  and  C1_73 
REMARK       I    between atoms: O2_30  and  C2_78 
REMARK       I    between atoms: O3_33  and  C3_42 
REMARK       I    between atoms: O1_35  and  C1_77 
REMARK       I    between atoms: O3S_37  and  S1_50 
REMARK       I    between atoms: C2_38  and  O2_45 
REMARK       I    between atoms: C6_40  and  C5_51 
REMARK       I    between atoms: C3_41  and  O3_67 
REMARK       I    between atoms: N_46  and  S1_50 
REMARK       I    between atoms: O6_47  and  C6_71 
REMARK       I    between atoms: O6_47  and  S2_72 
REMARK       I    between atoms: S1_50  and  O1S_61 
REMARK       I    between atoms: S1_50  and  O2S_54 
REMARK       I    between atoms: O3_56  and  C3_75 
REMARK       I    between atoms: C1_58  and  O1_63 
ROOT
ATOM      1  O3  SGN d 502       5.129  22.078 -18.234  0.00  0.00    -0.391 OA
ATOM      2  C1  SGN d 502       8.772  22.513 -19.101  0.00  0.00     0.150 C 
ATOM      3  O6S SGN d 502       9.449  16.212 -20.119  0.00  0.00    -0.572 OA
ATOM      4  C2  SGN d 502       7.237  22.725 -19.215  0.00  0.00     0.081 C 
ATOM      5  O1  SGN d 502       9.270  23.046 -17.890  0.00  0.00    -0.348 OA
ATOM      6  O5  SGN d 502       9.093  21.118 -19.198  0.00  0.00    -0.349 OA
ATOM      7  C6  SGN d 502       8.939  18.812 -18.515  0.00  0.00     0.067 C 
ATOM      8  S2  SGN d 502       9.045  17.411 -20.795  0.00  0.00     0.251 S 
ATOM      9  C5  SGN d 502       8.420  20.239 -18.258  0.00  0.00     0.091 C 
ATOM     10  O3S SGN d 502       7.965  25.170 -21.054  0.00  0.00    -0.296 OA
ATOM     11  N   SGN d 502       6.953  24.161 -19.078  0.00  0.00    -0.210 NA
ATOM     12  C3  SGN d 502       6.528  21.896 -18.127  0.00  0.00     0.083 C 
ATOM     13  C4  SGN d 502       6.870  20.407 -18.366  0.00  0.00     0.095 C 
ATOM     14  S1  SGN d 502       6.681  25.062 -20.421  0.00  0.00     0.156 S 
ATOM     15  O2S SGN d 502       6.196  26.327 -19.949  0.00  0.00    -0.296 OA
ATOM     16  O4S SGN d 502       8.070  17.174 -21.815  0.00  0.00    -0.572 OA
ATOM     17  O1S SGN d 502       5.737  24.376 -21.250  0.00  0.00    -0.296 OA
ATOM     18  O5S SGN d 502      10.164  18.179 -21.261  0.00  0.00    -0.572 OA
ATOM     19  O6  SGN d 502       8.369  18.315 -19.711  0.00  0.00    -0.254 OA
ATOM     20  H   SGN d 502       4.912  23.011 -18.084  0.00  0.00     0.210 HD
ATOM     21  H   SGN d 502       9.238  23.033 -19.911  0.00  0.00     0.131 H 
ATOM     22  H   SGN d 502       6.874  22.397 -20.166  0.00  0.00     0.076 H 
ATOM     23  H   SGN d 502       8.664  18.179 -17.698  0.00  0.00     0.080 H 
ATOM     24  H   SGN d 502      10.005  18.829 -18.606  0.00  0.00     0.080 H 
ATOM     25  H   SGN d 502       8.640  20.486 -17.241  0.00  0.00     0.090 H 
ATOM     26  H   SGN d 502       8.251  24.294 -21.355  0.00  0.00     0.231 HD
ATOM     27  H   SGN d 502       7.751  24.578 -18.598  0.00  0.00     0.140 HD
ATOM     28  H   SGN d 502       6.848  22.205 -17.155  0.00  0.00     0.089 H 
ATOM     29  H   SGN d 502       6.619  20.002 -19.324  0.00  0.00     0.091 H 
ATOM     30  H   SGN d 502       6.873  26.746 -19.395  0.00  0.00     0.231 HD
ATOM     31  H   SGN d 502       6.115  23.531 -21.539  0.00  0.00     0.231 HD
ATOM     32  O62 IDS d 503       1.403  20.963 -18.079  0.00  0.00    -0.646 OA
ATOM     33  O2  IDS d 503       5.101  16.369 -16.836  0.00  0.00    -0.244 OA
ATOM     34  O5  IDS d 503       4.190  18.860 -18.333  0.00  0.00    -0.340 OA
ATOM     35  C5  IDS d 503       3.197  19.502 -17.520  0.00  0.00     0.152 C 
ATOM     36  C4  IDS d 503       2.746  18.521 -16.413  0.00  0.00     0.103 C 
ATOM     37  O61 IDS d 503       1.831  19.505 -19.489  0.00  0.00    -0.646 OA
ATOM     38  O1  IDS d 503       6.121  19.754 -17.343  0.00  0.00    -0.348 OA
ATOM     39  C6  IDS d 503       2.078  20.018 -18.418  0.00  0.00     0.206 C 
ATOM     40  O1S IDS d 503       6.441  14.966 -15.425  0.00  0.00    -0.572 OA
ATOM     41  O3S IDS d 503       7.344  15.780 -17.481  0.00  0.00    -0.572 OA
ATOM     42  C3  IDS d 503       3.978  18.091 -15.570  0.00  0.00     0.094 C 
ATOM     43  O2S IDS d 503       5.613  14.146 -17.515  0.00  0.00    -0.572 OA
ATOM     44  S   IDS d 503       6.195  15.251 -16.807  0.00  0.00     0.252 S 
ATOM     45  O3  IDS d 503       4.322  19.163 -14.712  0.00  0.00    -0.390 OA
ATOM     46  C1  IDS d 503       5.434  18.584 -17.698  0.00  0.00     0.161 C 
ATOM     47  C2  IDS d 503       5.221  17.718 -16.427  0.00  0.00     0.134 C 
ATOM     48  H   IDS d 503       3.583  20.361 -17.012  0.00  0.00     0.104 H 
ATOM     49  H   IDS d 503       2.013  19.052 -15.843  0.00  0.00     0.092 H 
ATOM     50  H   IDS d 503       3.702  17.209 -15.030  0.00  0.00     0.091 H 
ATOM     51  H   IDS d 503       4.564  19.938 -15.243  0.00  0.00     0.210 HD
ATOM     52  H   IDS d 503       6.026  18.049 -18.410  0.00  0.00     0.133 H 
ATOM     53  H   IDS d 503       6.068  17.894 -15.796  0.00  0.00     0.097 H 
ATOM     54  C4  IDS d 505      -3.926  13.908 -22.177  0.00  0.00    -0.005 C 
ATOM     55  C5  IDS d 505      -3.221  13.358 -20.894  0.00  0.00     0.127 C 
ATOM     56  O2  IDS d 505      -2.799  17.467 -21.598  0.00  0.00    -0.388 OA
ATOM     57  O62 IDS d 505      -4.592  12.020 -19.445  0.00  0.00    -0.646 OA
ATOM     58  C1  IDS d 505      -2.615  15.604 -20.073  0.00  0.00     0.159 C 
ATOM     59  O5  IDS d 505      -3.277  14.350 -19.840  0.00  0.00    -0.343 OA
ATOM     60  O1  IDS d 505      -1.257  15.540 -19.736  0.00  0.00    -0.348 OA
ATOM     61  O61 IDS d 505      -3.577  11.003 -20.941  0.00  0.00    -0.646 OA
ATOM     62  C6  IDS d 505      -3.834  12.051 -20.393  0.00  0.00     0.203 C 
ATOM     63  C3  IDS d 505      -3.966  15.459 -22.209  0.00  0.00     0.068 C 
ATOM     64  C2  IDS d 505      -2.711  16.055 -21.554  0.00  0.00     0.107 C 
ATOM     65  H   IDS d 505      -3.395  13.560 -23.038  0.00  0.00     0.041 H 
ATOM     66  H   IDS d 505      -4.936  13.555 -22.173  0.00  0.00     0.041 H 
ATOM     67  H   IDS d 505      -2.206  13.153 -21.162  0.00  0.00     0.100 H 
ATOM     68  H   IDS d 505      -2.010  17.853 -21.186  0.00  0.00     0.210 HD
ATOM     69  H   IDS d 505      -3.120  16.313 -19.449  0.00  0.00     0.133 H 
ATOM     70  H   IDS d 505      -4.821  15.800 -21.663  0.00  0.00     0.087 H 
ATOM     71  H   IDS d 505      -1.843  15.716 -22.081  0.00  0.00     0.094 H 
ATOM     72  O4S SGN d 504      -4.841  18.212 -16.277  0.00  0.00    -0.572 OA
ATOM     73  C2  SGN d 504       0.688  15.373 -16.598  0.00  0.00     0.081 C 
ATOM     74  O2S SGN d 504       2.323  12.627 -14.767  0.00  0.00    -0.296 OA
ATOM     75  C5  SGN d 504      -0.545  17.528 -18.118  0.00  0.00     0.091 C 
ATOM     76  O3S SGN d 504       2.998  14.786 -14.013  0.00  0.00    -0.296 OA
ATOM     77  N   SGN d 504       1.865  14.595 -16.171  0.00  0.00    -0.210 NA
ATOM     78  O1S SGN d 504       0.700  14.196 -13.980  0.00  0.00    -0.296 OA
ATOM     79  S1  SGN d 504       1.961  14.010 -14.634  0.00  0.00     0.156 S 
ATOM     80  C4  SGN d 504      -0.865  16.030 -18.448  0.00  0.00     0.095 C 
ATOM     81  O1  SGN d 504       2.151  17.317 -16.908  0.00  0.00    -0.348 OA
ATOM     82  O6S SGN d 504      -4.654  19.412 -18.338  0.00  0.00    -0.572 OA
ATOM     83  O6  SGN d 504      -2.784  18.149 -17.526  0.00  0.00    -0.254 OA
ATOM     84  O5S SGN d 504      -3.443  20.146 -16.416  0.00  0.00    -0.572 OA
ATOM     85  O3  SGN d 504       0.138  13.829 -18.378  0.00  0.00    -0.391 OA
ATOM     86  O5  SGN d 504      -0.144  17.677 -16.728  0.00  0.00    -0.349 OA
ATOM     87  C6  SGN d 504      -1.701  18.510 -18.358  0.00  0.00     0.067 C 
ATOM     88  S2  SGN d 504      -4.011  19.026 -17.115  0.00  0.00     0.251 S 
ATOM     89  C3  SGN d 504       0.392  15.194 -18.104  0.00  0.00     0.083 C 
ATOM     90  C1  SGN d 504       0.958  16.874 -16.298  0.00  0.00     0.150 C 
ATOM     91  H   SGN d 504      -0.166  15.020 -16.060  0.00  0.00     0.076 H 
ATOM     92  H   SGN d 504       3.181  12.559 -15.215  0.00  0.00     0.231 HD
ATOM     93  H   SGN d 504       0.244  17.774 -18.798  0.00  0.00     0.090 H 
ATOM     94  H   SGN d 504       3.836  14.638 -14.478  0.00  0.00     0.231 HD
ATOM     95  H   SGN d 504       2.679  15.196 -16.307  0.00  0.00     0.140 HD
ATOM     96  H   SGN d 504       0.752  13.852 -13.073  0.00  0.00     0.231 HD
ATOM     97  H   SGN d 504      -1.769  15.940 -17.882  0.00  0.00     0.091 H 
ATOM     98  H   SGN d 504       0.924  13.303 -18.163  0.00  0.00     0.210 HD
ATOM     99  H   SGN d 504      -2.004  18.465 -19.383  0.00  0.00     0.080 H 
ATOM    100  H   SGN d 504      -1.384  19.507 -18.132  0.00  0.00     0.080 H 
ATOM    101  H   SGN d 504       1.228  15.516 -18.688  0.00  0.00     0.089 H 
ATOM    102  H   SGN d 504       1.071  16.976 -15.239  0.00  0.00     0.131 H 
ATOM    103  C1  IDS d 501      13.360  24.451 -17.153  0.00  0.00     0.156 C 
ATOM    104  O3  IDS d 501      12.351  21.767 -18.499  0.00  0.00    -0.390 OA
ATOM    105  C2  IDS d 501      13.013  24.090 -18.624  0.00  0.00     0.110 C 
ATOM    106  C4  IDS d 501      10.670  23.341 -17.798  0.00  0.00     0.103 C 
ATOM    107  C6  IDS d 501      10.163  23.892 -15.311  0.00  0.00     0.206 C 
ATOM    108  C3  IDS d 501      11.855  23.064 -18.769  0.00  0.00     0.092 C 
ATOM    109  O5  IDS d 501      12.164  24.688 -16.412  0.00  0.00    -0.340 OA
ATOM    110  O2  IDS d 501      12.642  25.283 -19.291  0.00  0.00    -0.388 OA
ATOM    111  C5  IDS d 501      11.224  23.599 -16.371  0.00  0.00     0.152 C 
ATOM    112  O62 IDS d 501       9.776  23.020 -14.570  0.00  0.00    -0.646 OA
ATOM    113  O61 IDS d 501       9.681  24.996 -15.186  0.00  0.00    -0.646 OA
ATOM    114  O1  IDS d 501      14.130  23.417 -16.601  0.00  0.00    -0.368 OA
ATOM    115  H   IDS d 501      13.934  25.353 -17.116  0.00  0.00     0.133 H 
ATOM    116  H   IDS d 501      13.092  21.574 -19.095  0.00  0.00     0.210 HD
ATOM    117  H   IDS d 501      13.882  23.632 -19.048  0.00  0.00     0.094 H 
ATOM    118  H   IDS d 501      10.235  24.009 -18.512  0.00  0.00     0.092 H 
ATOM    119  H   IDS d 501      11.487  23.150 -19.770  0.00  0.00     0.091 H 
ATOM    120  H   IDS d 501      11.853  25.657 -18.870  0.00  0.00     0.210 HD
ATOM    121  H   IDS d 501      11.690  22.682 -16.073  0.00  0.00     0.104 H 
ATOM    122  H   IDS d 501      13.625  22.589 -16.625  0.00  0.00     0.212 HD
ATOM    123  O3  IDS d 535      -4.037  15.876 -23.557  0.00  0.00    -0.393 OA
ATOM    124  H   IDS d 535      -4.829  15.499 -23.971  0.00  0.00     0.210 HD
ENDROOT
TORSDOF 37
ENDMDL
MODEL 13
REMARK VINA RESULT:      -7.0      2.919     13.070
REMARK  0 active torsions:
REMARK  status: ('A' for Active; 'I' for Inactive)
REMARK       I    between atoms: O3_1  and  C3_48 
REMARK       I    between atoms: C1_2  and  O1_8 
REMARK       I    between atoms: O2_5  and  C2_76 
REMARK       I    between atoms: O2_5  and  S_66 
REMARK       I    between atoms: C2_7  and  N_46 
REMARK       I    between atoms: O1_8  and  C4_39 
REMARK       I    between atoms: C2_12  and  N_23 
REMARK       I    between atoms: O2S_13  and  S1_25 
REMARK       I    between atoms: C1_14  and  O1_65 
REMARK       I    between atoms: O3_15  and  C3_69 
REMARK       I    between atoms: C5_16  and  C6_31 
REMARK       I    between atoms: C5_17  and  C6_68 
REMARK       I    between atoms: C5_18  and  C6_71 
REMARK       I    between atoms: O3S_19  and  S1_25 
REMARK       I    between atoms: C6_20  and  C5_28 
REMARK       I    between atoms: C6_20  and  O6_74 
REMARK       I    between atoms: C4_21  and  O1_35 
REMARK       I    between atoms: S2_22  and  O6_74 
REMARK       I    between atoms: N_23  and  S1_25 
REMARK       I    between atoms: O1S_24  and  S1_25 
REMARK       I    between atoms: C4_27  and  O1_63 
REMARK       I    between atoms: O1_29  and  C4_49 
REMARK       I    between atoms: O1_29  and  C1_73 
REMARK       I    between atoms: O2_30  and  C2_78 
REMARK       I    between atoms: O3_33  and  C3_42 
REMARK       I    between atoms: O1_35  and  C1_77 
REMARK       I    between atoms: O3S_37  and  S1_50 
REMARK       I    between atoms: C2_38  and  O2_45 
REMARK       I    between atoms: C6_40  and  C5_51 
REMARK       I    between atoms: C3_41  and  O3_67 
REMARK       I    between atoms: N_46  and  S1_50 
REMARK       I    between atoms: O6_47  and  C6_71 
REMARK       I    between atoms: O6_47  and  S2_72 
REMARK       I    between atoms: S1_50  and  O1S_61 
REMARK       I    between atoms: S1_50  and  O2S_54 
REMARK       I    between atoms: O3_56  and  C3_75 
REMARK       I    between atoms: C1_58  and  O1_63 
ROOT
ATOM      1  O3  SGN d 502       9.788  20.816 -19.720  0.00  0.00    -0.391 OA
ATOM      2  C1  SGN d 502      13.246  20.325 -21.139  0.00  0.00     0.150 C 
ATOM      3  O6S SGN d 502      12.298  14.000 -21.687  0.00  0.00    -0.572 OA
ATOM      4  C2  SGN d 502      11.802  20.891 -21.049  0.00  0.00     0.081 C 
ATOM      5  O1  SGN d 502      14.041  20.785 -20.065  0.00  0.00    -0.348 OA
ATOM      6  O5  SGN d 502      13.221  18.890 -21.159  0.00  0.00    -0.349 OA
ATOM      7  C6  SGN d 502      12.658  16.726 -20.260  0.00  0.00     0.067 C 
ATOM      8  S2  SGN d 502      12.074  15.224 -22.399  0.00  0.00     0.251 S 
ATOM      9  C5  SGN d 502      12.526  18.247 -20.058  0.00  0.00     0.091 C 
ATOM     10  O3S SGN d 502      12.761  22.993 -23.182  0.00  0.00    -0.296 OA
ATOM     11  N   SGN d 502      11.878  22.358 -20.999  0.00  0.00    -0.210 NA
ATOM     12  C3  SGN d 502      11.107  20.312 -19.802  0.00  0.00     0.083 C 
ATOM     13  C4  SGN d 502      11.058  18.775 -19.955  0.00  0.00     0.095 C 
ATOM     14  S1  SGN d 502      11.606  23.227 -22.362  0.00  0.00     0.156 S 
ATOM     15  O2S SGN d 502      11.504  24.594 -21.939  0.00  0.00    -0.296 OA
ATOM     16  O4S SGN d 502      10.919  15.174 -23.243  0.00  0.00    -0.572 OA
ATOM     17  O1S SGN d 502      10.409  22.745 -22.983  0.00  0.00    -0.296 OA
ATOM     18  O5S SGN d 502      13.248  15.678 -23.088  0.00  0.00    -0.572 OA
ATOM     19  O6  SGN d 502      11.804  16.318 -21.313  0.00  0.00    -0.254 OA
ATOM     20  H   SGN d 502       9.816  21.781 -19.623  0.00  0.00     0.210 HD
ATOM     21  H   SGN d 502      13.682  20.676 -22.051  0.00  0.00     0.131 H 
ATOM     22  H   SGN d 502      11.225  20.610 -21.905  0.00  0.00     0.076 H 
ATOM     23  H   SGN d 502      12.381  16.220 -19.359  0.00  0.00     0.080 H 
ATOM     24  H   SGN d 502      13.671  16.484 -20.505  0.00  0.00     0.080 H 
ATOM     25  H   SGN d 502      12.957  18.487 -19.109  0.00  0.00     0.090 H 
ATOM     26  H   SGN d 502      12.788  22.059 -23.443  0.00  0.00     0.231 HD
ATOM     27  H   SGN d 502      12.816  22.596 -20.678  0.00  0.00     0.140 HD
ATOM     28  H   SGN d 502      11.642  20.585 -18.916  0.00  0.00     0.089 H 
ATOM     29  H   SGN d 502      10.571  18.392 -20.828  0.00  0.00     0.091 H 
ATOM     30  H   SGN d 502      12.339  24.868 -21.527  0.00  0.00     0.231 HD
ATOM     31  H   SGN d 502      10.533  21.820 -23.248  0.00  0.00     0.231 HD
ATOM     32  O62 IDS d 503       5.981  20.632 -18.932  0.00  0.00    -0.646 OA
ATOM     33  O2  IDS d 503       8.686  15.359 -17.837  0.00  0.00    -0.244 OA
ATOM     34  O5  IDS d 503       8.138  17.915 -19.399  0.00  0.00    -0.340 OA
ATOM     35  C5  IDS d 503       7.461  18.816 -18.511  0.00  0.00     0.152 C 
ATOM     36  C4  IDS d 503       6.983  18.030 -17.268  0.00  0.00     0.103 C 
ATOM     37  O61 IDS d 503       5.833  19.043 -20.255  0.00  0.00    -0.646 OA
ATOM     38  O1  IDS d 503      10.355  18.372 -18.781  0.00  0.00    -0.348 OA
ATOM     39  C6  IDS d 503       6.359  19.537 -19.280  0.00  0.00     0.206 C 
ATOM     40  O1S IDS d 503       9.881  13.752 -16.516  0.00  0.00    -0.572 OA
ATOM     41  O3S IDS d 503      10.603  14.220 -18.744  0.00  0.00    -0.572 OA
ATOM     42  C3  IDS d 503       8.204  17.362 -16.578  0.00  0.00     0.094 C 
ATOM     43  O2S IDS d 503       8.563  13.046 -18.384  0.00  0.00    -0.572 OA
ATOM     44  S   IDS d 503       9.487  14.015 -17.868  0.00  0.00     0.252 S 
ATOM     45  O3  IDS d 503       8.916  18.364 -15.876  0.00  0.00    -0.390 OA
ATOM     46  C1  IDS d 503       9.372  17.383 -18.929  0.00  0.00     0.161 C 
ATOM     47  C2  IDS d 503       9.175  16.659 -17.569  0.00  0.00     0.134 C 
ATOM     48  H   IDS d 503       8.109  19.583 -18.142  0.00  0.00     0.104 H 
ATOM     49  H   IDS d 503       6.492  18.749 -16.647  0.00  0.00     0.092 H 
ATOM     50  H   IDS d 503       7.825  16.601 -15.928  0.00  0.00     0.091 H 
ATOM     51  H   IDS d 503       9.239  19.030 -16.503  0.00  0.00     0.210 HD
ATOM     52  H   IDS d 503       9.704  16.686 -19.669  0.00  0.00     0.133 H 
ATOM     53  H   IDS d 503      10.130  16.661 -17.085  0.00  0.00     0.097 H 
ATOM     54  C4  IDS d 505      -1.403  14.850 -21.581  0.00  0.00    -0.005 C 
ATOM     55  C5  IDS d 505      -0.644  14.215 -20.369  0.00  0.00     0.127 C 
ATOM     56  O2  IDS d 505       0.583  18.062 -21.486  0.00  0.00    -0.388 OA
ATOM     57  O62 IDS d 505      -2.032  13.319 -18.625  0.00  0.00    -0.646 OA
ATOM     58  C1  IDS d 505       0.581  16.291 -19.845  0.00  0.00     0.159 C 
ATOM     59  O5  IDS d 505      -0.303  15.244 -19.410  0.00  0.00    -0.343 OA
ATOM     60  O1  IDS d 505       1.925  15.922 -19.703  0.00  0.00    -0.348 OA
ATOM     61  O61 IDS d 505      -1.530  12.013 -20.157  0.00  0.00    -0.646 OA
ATOM     62  C6  IDS d 505      -1.450  13.119 -19.672  0.00  0.00     0.203 C 
ATOM     63  C3  IDS d 505      -1.093  16.362 -21.743  0.00  0.00     0.068 C 
ATOM     64  C2  IDS d 505       0.354  16.674 -21.330  0.00  0.00     0.107 C 
ATOM     65  H   IDS d 505      -1.111  14.341 -22.475  0.00  0.00     0.041 H 
ATOM     66  H   IDS d 505      -2.453  14.749 -21.399  0.00  0.00     0.041 H 
ATOM     67  H   IDS d 505       0.241  13.759 -20.762  0.00  0.00     0.100 H 
ATOM     68  H   IDS d 505       1.495  18.269 -21.228  0.00  0.00     0.210 HD
ATOM     69  H   IDS d 505       0.358  17.130 -19.220  0.00  0.00     0.133 H 
ATOM     70  H   IDS d 505      -1.748  16.925 -21.111  0.00  0.00     0.087 H 
ATOM     71  H   IDS d 505       1.025  16.111 -21.945  0.00  0.00     0.094 H 
ATOM     72  O4S SGN d 504      -0.352  19.546 -16.012  0.00  0.00    -0.572 OA
ATOM     73  C2  SGN d 504       4.261  15.458 -16.877  0.00  0.00     0.081 C 
ATOM     74  O2S SGN d 504       5.500  12.500 -15.067  0.00  0.00    -0.296 OA
ATOM     75  C5  SGN d 504       3.322  17.763 -18.386  0.00  0.00     0.091 C 
ATOM     76  O3S SGN d 504       6.762  14.471 -14.611  0.00  0.00    -0.296 OA
ATOM     77  N   SGN d 504       5.283  14.445 -16.557  0.00  0.00    -0.210 NA
ATOM     78  O1S SGN d 504       4.425  14.449 -14.194  0.00  0.00    -0.296 OA
ATOM     79  S1  SGN d 504       5.489  13.934 -15.005  0.00  0.00     0.156 S 
ATOM     80  C4  SGN d 504       2.620  16.370 -18.534  0.00  0.00     0.095 C 
ATOM     81  O1  SGN d 504       6.058  16.978 -17.565  0.00  0.00    -0.348 OA
ATOM     82  O6S SGN d 504      -0.230  20.559 -18.175  0.00  0.00    -0.572 OA
ATOM     83  O6  SGN d 504       1.408  18.931 -17.534  0.00  0.00    -0.254 OA
ATOM     84  O5S SGN d 504       1.409  21.082 -16.521  0.00  0.00    -0.572 OA
ATOM     85  O3  SGN d 504       3.094  14.000 -18.415  0.00  0.00    -0.391 OA
ATOM     86  O5  SGN d 504       3.965  17.884 -17.088  0.00  0.00    -0.349 OA
ATOM     87  C6  SGN d 504       2.396  18.979 -18.543  0.00  0.00     0.067 C 
ATOM     88  S2  SGN d 504       0.496  20.094 -17.029  0.00  0.00     0.251 S 
ATOM     89  C3  SGN d 504       3.693  15.277 -18.303  0.00  0.00     0.083 C 
ATOM     90  C1  SGN d 504       4.910  16.864 -16.752  0.00  0.00     0.150 C 
ATOM     91  H   SGN d 504       3.447  15.348 -16.192  0.00  0.00     0.076 H 
ATOM     92  H   SGN d 504       6.236  12.206 -15.626  0.00  0.00     0.231 HD
ATOM     93  H   SGN d 504       4.026  17.779 -19.192  0.00  0.00     0.090 H 
ATOM     94  H   SGN d 504       7.457  14.104 -15.177  0.00  0.00     0.231 HD
ATOM     95  H   SGN d 504       6.179  14.826 -16.861  0.00  0.00     0.140 HD
ATOM     96  H   SGN d 504       4.543  14.150 -13.278  0.00  0.00     0.231 HD
ATOM     97  H   SGN d 504       1.823  16.528 -17.837  0.00  0.00     0.091 H 
ATOM     98  H   SGN d 504       3.764  13.314 -18.271  0.00  0.00     0.210 HD
ATOM     99  H   SGN d 504       1.930  18.955 -19.505  0.00  0.00     0.080 H 
ATOM    100  H   SGN d 504       2.964  19.882 -18.453  0.00  0.00     0.080 H 
ATOM    101  H   SGN d 504       4.475  15.360 -19.027  0.00  0.00     0.089 H 
ATOM    102  H   SGN d 504       5.212  16.991 -15.734  0.00  0.00     0.131 H 
ATOM    103  C1  IDS d 501      18.406  21.211 -20.053  0.00  0.00     0.156 C 
ATOM    104  O3  IDS d 501      16.610  18.779 -20.998  0.00  0.00    -0.390 OA
ATOM    105  C2  IDS d 501      17.755  20.868 -21.420  0.00  0.00     0.110 C 
ATOM    106  C4  IDS d 501      15.467  20.742 -20.203  0.00  0.00     0.103 C 
ATOM    107  C6  IDS d 501      15.506  21.526 -17.727  0.00  0.00     0.206 C 
ATOM    108  C3  IDS d 501      16.386  20.140 -21.306  0.00  0.00     0.092 C 
ATOM    109  O5  IDS d 501      17.432  21.764 -19.170  0.00  0.00    -0.340 OA
ATOM    110  O2  IDS d 501      17.562  22.078 -22.129  0.00  0.00    -0.388 OA
ATOM    111  C5  IDS d 501      16.288  20.934 -18.898  0.00  0.00     0.152 C 
ATOM    112  O62 IDS d 501      15.055  20.811 -16.863  0.00  0.00    -0.646 OA
ATOM    113  O61 IDS d 501      15.315  22.718 -17.631  0.00  0.00    -0.646 OA
ATOM    114  O1  IDS d 501      19.000  20.052 -19.528  0.00  0.00    -0.368 OA
ATOM    115  H   IDS d 501      19.170  21.950 -20.178  0.00  0.00     0.133 H 
ATOM    116  H   IDS d 501      17.181  18.384 -21.675  0.00  0.00     0.210 HD
ATOM    117  H   IDS d 501      18.417  20.194 -21.923  0.00  0.00     0.094 H 
ATOM    118  H   IDS d 501      15.087  21.456 -20.902  0.00  0.00     0.092 H 
ATOM    119  H   IDS d 501      15.890  20.260 -22.247  0.00  0.00     0.091 H 
ATOM    120  H   IDS d 501      16.957  22.651 -21.633  0.00  0.00     0.210 HD
ATOM    121  H   IDS d 501      16.575  19.949 -18.591  0.00  0.00     0.104 H 
ATOM    122  H   IDS d 501      18.322  19.369 -19.407  0.00  0.00     0.212 HD
ATOM    123  O3  IDS d 535      -1.283  16.713 -23.098  0.00  0.00    -0.393 OA
ATOM    124  H   IDS d 535      -2.197  16.515 -23.358  0.00  0.00     0.210 HD
ENDROOT
TORSDOF 37
ENDMDL
MODEL 14
REMARK VINA RESULT:      -7.0      2.217      2.884
REMARK  0 active torsions:
REMARK  status: ('A' for Active; 'I' for Inactive)
REMARK       I    between atoms: O3_1  and  C3_48 
REMARK       I    between atoms: C1_2  and  O1_8 
REMARK       I    between atoms: O2_5  and  C2_76 
REMARK       I    between atoms: O2_5  and  S_66 
REMARK       I    between atoms: C2_7  and  N_46 
REMARK       I    between atoms: O1_8  and  C4_39 
REMARK       I    between atoms: C2_12  and  N_23 
REMARK       I    between atoms: O2S_13  and  S1_25 
REMARK       I    between atoms: C1_14  and  O1_65 
REMARK       I    between atoms: O3_15  and  C3_69 
REMARK       I    between atoms: C5_16  and  C6_31 
REMARK       I    between atoms: C5_17  and  C6_68 
REMARK       I    between atoms: C5_18  and  C6_71 
REMARK       I    between atoms: O3S_19  and  S1_25 
REMARK       I    between atoms: C6_20  and  C5_28 
REMARK       I    between atoms: C6_20  and  O6_74 
REMARK       I    between atoms: C4_21  and  O1_35 
REMARK       I    between atoms: S2_22  and  O6_74 
REMARK       I    between atoms: N_23  and  S1_25 
REMARK       I    between atoms: O1S_24  and  S1_25 
REMARK       I    between atoms: C4_27  and  O1_63 
REMARK       I    between atoms: O1_29  and  C4_49 
REMARK       I    between atoms: O1_29  and  C1_73 
REMARK       I    between atoms: O2_30  and  C2_78 
REMARK       I    between atoms: O3_33  and  C3_42 
REMARK       I    between atoms: O1_35  and  C1_77 
REMARK       I    between atoms: O3S_37  and  S1_50 
REMARK       I    between atoms: C2_38  and  O2_45 
REMARK       I    between atoms: C6_40  and  C5_51 
REMARK       I    between atoms: C3_41  and  O3_67 
REMARK       I    between atoms: N_46  and  S1_50 
REMARK       I    between atoms: O6_47  and  C6_71 
REMARK       I    between atoms: O6_47  and  S2_72 
REMARK       I    between atoms: S1_50  and  O1S_61 
REMARK       I    between atoms: S1_50  and  O2S_54 
REMARK       I    between atoms: O3_56  and  C3_75 
REMARK       I    between atoms: C1_58  and  O1_63 
ROOT
ATOM      1  O3  SGN d 502       3.724  17.951 -21.000  0.00  0.00    -0.391 OA
ATOM      2  C1  SGN d 502       0.245  16.932 -19.963  0.00  0.00     0.150 C 
ATOM      3  O6S SGN d 502       1.285  18.909 -13.946  0.00  0.00    -0.572 OA
ATOM      4  C2  SGN d 502       1.335  17.685 -20.775  0.00  0.00     0.081 C 
ATOM      5  O1  SGN d 502       0.288  15.543 -20.221  0.00  0.00    -0.348 OA
ATOM      6  O5  SGN d 502       0.404  17.181 -18.559  0.00  0.00    -0.349 OA
ATOM      7  C6  SGN d 502       1.641  17.180 -16.491  0.00  0.00     0.067 C 
ATOM      8  S2  SGN d 502       0.863  19.407 -15.223  0.00  0.00     0.251 S 
ATOM      9  C5  SGN d 502       1.710  16.877 -18.000  0.00  0.00     0.091 C 
ATOM     10  O3S SGN d 502      -0.991  18.388 -22.770  0.00  0.00    -0.296 OA
ATOM     11  N   SGN d 502       1.154  17.376 -22.200  0.00  0.00    -0.210 NA
ATOM     12  C3  SGN d 502       2.728  17.260 -20.271  0.00  0.00     0.083 C 
ATOM     13  C4  SGN d 502       2.830  17.642 -18.776  0.00  0.00     0.095 C 
ATOM     14  S1  SGN d 502       0.387  18.454 -23.169  0.00  0.00     0.156 S 
ATOM     15  O2S SGN d 502       0.591  17.987 -24.510  0.00  0.00    -0.296 OA
ATOM     16  O4S SGN d 502       1.197  20.784 -15.422  0.00  0.00    -0.572 OA
ATOM     17  O1S SGN d 502       0.943  19.754 -22.940  0.00  0.00    -0.296 OA
ATOM     18  O5S SGN d 502      -0.518  19.124 -15.491  0.00  0.00    -0.572 OA
ATOM     19  O6  SGN d 502       1.651  18.582 -16.294  0.00  0.00    -0.254 OA
ATOM     20  H   SGN d 502       3.662  17.712 -21.938  0.00  0.00     0.210 HD
ATOM     21  H   SGN d 502      -0.710  17.300 -20.274  0.00  0.00     0.131 H 
ATOM     22  H   SGN d 502       1.249  18.743 -20.643  0.00  0.00     0.076 H 
ATOM     23  H   SGN d 502       2.486  16.745 -16.000  0.00  0.00     0.080 H 
ATOM     24  H   SGN d 502       0.743  16.767 -16.083  0.00  0.00     0.080 H 
ATOM     25  H   SGN d 502       1.970  15.846 -18.112  0.00  0.00     0.090 H 
ATOM     26  H   SGN d 502      -1.080  18.712 -21.861  0.00  0.00     0.231 HD
ATOM     27  H   SGN d 502       0.626  16.505 -22.250  0.00  0.00     0.140 HD
ATOM     28  H   SGN d 502       2.866  16.207 -20.401  0.00  0.00     0.089 H 
ATOM     29  H   SGN d 502       2.676  18.672 -18.530  0.00  0.00     0.091 H 
ATOM     30  H   SGN d 502       0.196  17.107 -24.609  0.00  0.00     0.231 HD
ATOM     31  H   SGN d 502       0.776  20.018 -22.021  0.00  0.00     0.231 HD
ATOM     32  O62 IDS d 503       7.132  19.772 -21.465  0.00  0.00    -0.646 OA
ATOM     33  O2  IDS d 503       6.356  18.039 -15.745  0.00  0.00    -0.244 OA
ATOM     34  O5  IDS d 503       5.489  19.185 -18.430  0.00  0.00    -0.340 OA
ATOM     35  C5  IDS d 503       6.478  18.797 -19.394  0.00  0.00     0.152 C 
ATOM     36  C4  IDS d 503       7.725  18.270 -18.648  0.00  0.00     0.103 C 
ATOM     37  O61 IDS d 503       6.560  21.116 -19.994  0.00  0.00    -0.646 OA
ATOM     38  O1  IDS d 503       4.162  17.250 -18.451  0.00  0.00    -0.348 OA
ATOM     39  C6  IDS d 503       6.738  19.967 -20.338  0.00  0.00     0.206 C 
ATOM     40  O1S IDS d 503       6.476  16.526 -13.887  0.00  0.00    -0.572 OA
ATOM     41  O3S IDS d 503       4.442  17.698 -14.325  0.00  0.00    -0.572 OA
ATOM     42  C3  IDS d 503       7.319  17.077 -17.739  0.00  0.00     0.094 C 
ATOM     43  O2S IDS d 503       6.343  18.886 -13.521  0.00  0.00    -0.572 OA
ATOM     44  S   IDS d 503       5.873  17.763 -14.282  0.00  0.00     0.252 S 
ATOM     45  O3  IDS d 503       7.126  15.942 -18.562  0.00  0.00    -0.390 OA
ATOM     46  C1  IDS d 503       4.916  18.132 -17.663  0.00  0.00     0.161 C 
ATOM     47  C2  IDS d 503       6.020  17.329 -16.922  0.00  0.00     0.134 C 
ATOM     48  H   IDS d 503       6.144  17.991 -20.014  0.00  0.00     0.104 H 
ATOM     49  H   IDS d 503       8.421  17.996 -19.413  0.00  0.00     0.092 H 
ATOM     50  H   IDS d 503       8.106  16.936 -17.028  0.00  0.00     0.091 H 
ATOM     51  H   IDS d 503       6.406  16.115 -19.189  0.00  0.00     0.210 HD
ATOM     52  H   IDS d 503       4.262  18.594 -16.954  0.00  0.00     0.133 H 
ATOM     53  H   IDS d 503       5.610  16.359 -16.729  0.00  0.00     0.097 H 
ATOM     54  C4  IDS d 505      11.625  27.316 -17.238  0.00  0.00    -0.005 C 
ATOM     55  C5  IDS d 505      11.901  26.012 -16.419  0.00  0.00     0.127 C 
ATOM     56  O2  IDS d 505       9.841  25.506 -20.032  0.00  0.00    -0.388 OA
ATOM     57  O62 IDS d 505      14.172  25.692 -15.705  0.00  0.00    -0.646 OA
ATOM     58  C1  IDS d 505      11.091  24.526 -18.214  0.00  0.00     0.159 C 
ATOM     59  O5  IDS d 505      12.152  24.910 -17.323  0.00  0.00    -0.343 OA
ATOM     60  O1  IDS d 505      10.205  23.629 -17.603  0.00  0.00    -0.348 OA
ATOM     61  O61 IDS d 505      12.943  26.743 -14.405  0.00  0.00    -0.646 OA
ATOM     62  C6  IDS d 505      13.077  26.154 -15.454  0.00  0.00     0.203 C 
ATOM     63  C3  IDS d 505      11.125  27.015 -18.675  0.00  0.00     0.068 C 
ATOM     64  C2  IDS d 505      10.263  25.743 -18.702  0.00  0.00     0.107 C 
ATOM     65  H   IDS d 505      10.881  27.892 -16.728  0.00  0.00     0.041 H 
ATOM     66  H   IDS d 505      12.547  27.854 -17.319  0.00  0.00     0.041 H 
ATOM     67  H   IDS d 505      11.027  25.825 -15.832  0.00  0.00     0.100 H 
ATOM     68  H   IDS d 505       9.296  24.704 -20.060  0.00  0.00     0.210 HD
ATOM     69  H   IDS d 505      11.573  24.062 -19.049  0.00  0.00     0.133 H 
ATOM     70  H   IDS d 505      11.968  26.859 -19.316  0.00  0.00     0.087 H 
ATOM     71  H   IDS d 505       9.418  25.875 -18.058  0.00  0.00     0.094 H 
ATOM     72  O4S SGN d 504      13.922  21.695 -21.396  0.00  0.00    -0.572 OA
ATOM     73  C2  SGN d 504      10.312  20.076 -16.592  0.00  0.00     0.081 C 
ATOM     74  O2S SGN d 504      10.858  18.367 -13.375  0.00  0.00    -0.296 OA
ATOM     75  C5  SGN d 504       9.802  21.465 -19.097  0.00  0.00     0.091 C 
ATOM     76  O3S SGN d 504       9.988  16.925 -15.064  0.00  0.00    -0.296 OA
ATOM     77  N   SGN d 504       9.854  19.343 -15.397  0.00  0.00    -0.210 NA
ATOM     78  O1S SGN d 504      12.027  18.081 -15.441  0.00  0.00    -0.296 OA
ATOM     79  S1  SGN d 504      10.754  18.109 -14.783  0.00  0.00     0.156 S 
ATOM     80  C4  SGN d 504      10.386  22.232 -17.862  0.00  0.00     0.095 C 
ATOM     81  O1  SGN d 504       8.346  19.238 -17.795  0.00  0.00    -0.348 OA
ATOM     82  O6S SGN d 504      12.326  23.113 -22.473  0.00  0.00    -0.572 OA
ATOM     83  O6  SGN d 504      11.674  21.842 -20.548  0.00  0.00    -0.254 OA
ATOM     84  O5S SGN d 504      12.098  20.742 -22.613  0.00  0.00    -0.572 OA
ATOM     85  O3  SGN d 504      10.357  22.205 -15.443  0.00  0.00    -0.391 OA
ATOM     86  O5  SGN d 504      10.140  20.053 -19.038  0.00  0.00    -0.349 OA
ATOM     87  C6  SGN d 504      10.271  21.982 -20.466  0.00  0.00     0.067 C 
ATOM     88  S2  SGN d 504      12.566  21.854 -21.831  0.00  0.00     0.251 S 
ATOM     89  C3  SGN d 504       9.841  21.547 -16.584  0.00  0.00     0.083 C 
ATOM     90  C1  SGN d 504       9.751  19.358 -17.851  0.00  0.00     0.150 C 
ATOM     91  H   SGN d 504      11.381  20.082 -16.596  0.00  0.00     0.076 H 
ATOM     92  H   SGN d 504       9.972  18.375 -12.981  0.00  0.00     0.231 HD
ATOM     93  H   SGN d 504       8.747  21.635 -19.025  0.00  0.00     0.090 H 
ATOM     94  H   SGN d 504       9.136  16.976 -14.605  0.00  0.00     0.231 HD
ATOM     95  H   SGN d 504       8.939  18.954 -15.625  0.00  0.00     0.140 HD
ATOM     96  H   SGN d 504      12.561  17.354 -15.082  0.00  0.00     0.231 HD
ATOM     97  H   SGN d 504      11.422  22.178 -18.127  0.00  0.00     0.091 H 
ATOM     98  H   SGN d 504      10.017  21.777 -14.641  0.00  0.00     0.210 HD
ATOM     99  H   SGN d 504      10.005  23.013 -20.572  0.00  0.00     0.080 H 
ATOM    100  H   SGN d 504       9.803  21.419 -21.247  0.00  0.00     0.080 H 
ATOM    101  H   SGN d 504       8.772  21.595 -16.560  0.00  0.00     0.089 H 
ATOM    102  H   SGN d 504      10.167  18.373 -17.872  0.00  0.00     0.131 H 
ATOM    103  C1  IDS d 501      -3.051  12.723 -19.854  0.00  0.00     0.156 C 
ATOM    104  O3  IDS d 501      -2.043  14.944 -17.833  0.00  0.00    -0.390 OA
ATOM    105  C2  IDS d 501      -3.404  14.228 -19.700  0.00  0.00     0.110 C 
ATOM    106  C4  IDS d 501      -0.875  14.758 -19.929  0.00  0.00     0.103 C 
ATOM    107  C6  IDS d 501       0.610  12.726 -20.573  0.00  0.00     0.206 C 
ATOM    108  C3  IDS d 501      -2.217  15.112 -19.226  0.00  0.00     0.092 C 
ATOM    109  O5  IDS d 501      -1.803  12.579 -20.530  0.00  0.00    -0.340 OA
ATOM    110  O2  IDS d 501      -3.845  14.705 -20.958  0.00  0.00    -0.388 OA
ATOM    111  C5  IDS d 501      -0.674  13.218 -19.907  0.00  0.00     0.152 C 
ATOM    112  O62 IDS d 501       1.585  12.461 -19.910  0.00  0.00    -0.646 OA
ATOM    113  O61 IDS d 501       0.689  12.592 -21.775  0.00  0.00    -0.646 OA
ATOM    114  O1  IDS d 501      -3.038  12.126 -18.584  0.00  0.00    -0.368 OA
ATOM    115  H   IDS d 501      -3.789  12.226 -20.450  0.00  0.00     0.133 H 
ATOM    116  H   IDS d 501      -2.869  15.161 -17.375  0.00  0.00     0.210 HD
ATOM    117  H   IDS d 501      -4.158  14.297 -18.943  0.00  0.00     0.094 H 
ATOM    118  H   IDS d 501      -1.114  15.421 -20.733  0.00  0.00     0.092 H 
ATOM    119  H   IDS d 501      -2.463  16.123 -19.478  0.00  0.00     0.091 H 
ATOM    120  H   IDS d 501      -3.129  14.620 -21.606  0.00  0.00     0.210 HD
ATOM    121  H   IDS d 501      -0.588  12.953 -18.874  0.00  0.00     0.104 H 
ATOM    122  H   IDS d 501      -2.374  12.564 -18.028  0.00  0.00     0.212 HD
ATOM    123  O3  IDS d 535      10.356  28.114 -19.120  0.00  0.00    -0.393 OA
ATOM    124  H   IDS d 535      10.900  28.917 -19.102  0.00  0.00     0.210 HD
ENDROOT
TORSDOF 37
ENDMDL
MODEL 15
REMARK VINA RESULT:      -7.0      2.381      4.658
REMARK  0 active torsions:
REMARK  status: ('A' for Active; 'I' for Inactive)
REMARK       I    between atoms: O3_1  and  C3_48 
REMARK       I    between atoms: C1_2  and  O1_8 
REMARK       I    between atoms: O2_5  and  C2_76 
REMARK       I    between atoms: O2_5  and  S_66 
REMARK       I    between atoms: C2_7  and  N_46 
REMARK       I    between atoms: O1_8  and  C4_39 
REMARK       I    between atoms: C2_12  and  N_23 
REMARK       I    between atoms: O2S_13  and  S1_25 
REMARK       I    between atoms: C1_14  and  O1_65 
REMARK       I    between atoms: O3_15  and  C3_69 
REMARK       I    between atoms: C5_16  and  C6_31 
REMARK       I    between atoms: C5_17  and  C6_68 
REMARK       I    between atoms: C5_18  and  C6_71 
REMARK       I    between atoms: O3S_19  and  S1_25 
REMARK       I    between atoms: C6_20  and  C5_28 
REMARK       I    between atoms: C6_20  and  O6_74 
REMARK       I    between atoms: C4_21  and  O1_35 
REMARK       I    between atoms: S2_22  and  O6_74 
REMARK       I    between atoms: N_23  and  S1_25 
REMARK       I    between atoms: O1S_24  and  S1_25 
REMARK       I    between atoms: C4_27  and  O1_63 
REMARK       I    between atoms: O1_29  and  C4_49 
REMARK       I    between atoms: O1_29  and  C1_73 
REMARK       I    between atoms: O2_30  and  C2_78 
REMARK       I    between atoms: O3_33  and  C3_42 
REMARK       I    between atoms: O1_35  and  C1_77 
REMARK       I    between atoms: O3S_37  and  S1_50 
REMARK       I    between atoms: C2_38  and  O2_45 
REMARK       I    between atoms: C6_40  and  C5_51 
REMARK       I    between atoms: C3_41  and  O3_67 
REMARK       I    between atoms: N_46  and  S1_50 
REMARK       I    between atoms: O6_47  and  C6_71 
REMARK       I    between atoms: O6_47  and  S2_72 
REMARK       I    between atoms: S1_50  and  O1S_61 
REMARK       I    between atoms: S1_50  and  O2S_54 
REMARK       I    between atoms: O3_56  and  C3_75 
REMARK       I    between atoms: C1_58  and  O1_63 
ROOT
ATOM      1  O3  SGN d 502       5.054  19.505 -18.966  0.00  0.00    -0.391 OA
ATOM      2  C1  SGN d 502       2.081  17.477 -17.843  0.00  0.00     0.150 C 
ATOM      3  O6S SGN d 502       5.900  12.947 -15.373  0.00  0.00    -0.572 OA
ATOM      4  C2  SGN d 502       3.018  18.712 -17.940  0.00  0.00     0.081 C 
ATOM      5  O1  SGN d 502       1.457  17.213 -19.083  0.00  0.00    -0.348 OA
ATOM      6  O5  SGN d 502       2.815  16.325 -17.402  0.00  0.00    -0.349 OA
ATOM      7  C6  SGN d 502       4.589  14.700 -17.564  0.00  0.00     0.067 C 
ATOM      8  S2  SGN d 502       5.297  14.201 -15.030  0.00  0.00     0.251 S 
ATOM      9  C5  SGN d 502       3.986  15.974 -18.186  0.00  0.00     0.091 C 
ATOM     10  O3S SGN d 502       0.642  20.302 -16.629  0.00  0.00    -0.296 OA
ATOM     11  N   SGN d 502       2.232  19.857 -18.424  0.00  0.00    -0.210 NA
ATOM     12  C3  SGN d 502       4.192  18.386 -18.882  0.00  0.00     0.083 C 
ATOM     13  C4  SGN d 502       4.965  17.189 -18.281  0.00  0.00     0.095 C 
ATOM     14  S1  SGN d 502       1.686  20.972 -17.353  0.00  0.00     0.156 S 
ATOM     15  O2S SGN d 502       1.190  22.061 -18.144  0.00  0.00    -0.296 OA
ATOM     16  O4S SGN d 502       6.071  14.953 -14.090  0.00  0.00    -0.572 OA
ATOM     17  O1S SGN d 502       2.766  21.352 -16.494  0.00  0.00    -0.296 OA
ATOM     18  O5S SGN d 502       3.925  14.058 -14.633  0.00  0.00    -0.572 OA
ATOM     19  O6  SGN d 502       5.241  15.035 -16.353  0.00  0.00    -0.254 OA
ATOM     20  H   SGN d 502       4.572  20.257 -19.343  0.00  0.00     0.210 HD
ATOM     21  H   SGN d 502       1.319  17.696 -17.125  0.00  0.00     0.131 H 
ATOM     22  H   SGN d 502       3.425  18.961 -16.983  0.00  0.00     0.076 H 
ATOM     23  H   SGN d 502       5.295  14.270 -18.242  0.00  0.00     0.080 H 
ATOM     24  H   SGN d 502       3.809  13.994 -17.368  0.00  0.00     0.080 H 
ATOM     25  H   SGN d 502       3.743  15.754 -19.204  0.00  0.00     0.090 H 
ATOM     26  H   SGN d 502       1.023  19.576 -16.111  0.00  0.00     0.231 HD
ATOM     27  H   SGN d 502       1.414  19.476 -18.899  0.00  0.00     0.140 HD
ATOM     28  H   SGN d 502       3.831  18.148 -19.860  0.00  0.00     0.089 H 
ATOM     29  H   SGN d 502       5.345  17.310 -17.288  0.00  0.00     0.091 H 
ATOM     30  H   SGN d 502       0.462  21.749 -18.705  0.00  0.00     0.231 HD
ATOM     31  H   SGN d 502       3.061  20.580 -15.986  0.00  0.00     0.231 HD
ATOM     32  O62 IDS d 503       8.499  21.293 -19.255  0.00  0.00    -0.646 OA
ATOM     33  O2  IDS d 503       9.167  15.307 -19.043  0.00  0.00    -0.244 OA
ATOM     34  O5  IDS d 503       7.955  17.985 -18.247  0.00  0.00    -0.340 OA
ATOM     35  C5  IDS d 503       8.285  18.922 -19.282  0.00  0.00     0.152 C 
ATOM     36  C4  IDS d 503       9.382  18.309 -20.182  0.00  0.00     0.103 C 
ATOM     37  O61 IDS d 503       9.091  20.329 -17.517  0.00  0.00    -0.646 OA
ATOM     38  O1  IDS d 503       6.040  17.025 -19.204  0.00  0.00    -0.348 OA
ATOM     39  C6  IDS d 503       8.648  20.259 -18.644  0.00  0.00     0.206 C 
ATOM     40  O1S IDS d 503       9.307  13.093 -19.956  0.00  0.00    -0.572 OA
ATOM     41  O3S IDS d 503       7.924  13.499 -18.053  0.00  0.00    -0.572 OA
ATOM     42  C3  IDS d 503       8.875  16.965 -20.774  0.00  0.00     0.094 C 
ATOM     43  O2S IDS d 503      10.292  13.594 -17.834  0.00  0.00    -0.572 OA
ATOM     44  S   IDS d 503       9.168  13.779 -18.707  0.00  0.00     0.252 S 
ATOM     45  O3  IDS d 503       7.955  17.259 -21.809  0.00  0.00    -0.390 OA
ATOM     46  C1  IDS d 503       7.315  16.787 -18.670  0.00  0.00     0.161 C 
ATOM     47  C2  IDS d 503       8.176  16.047 -19.730  0.00  0.00     0.134 C 
ATOM     48  H   IDS d 503       7.455  19.122 -19.926  0.00  0.00     0.104 H 
ATOM     49  H   IDS d 503       9.583  19.047 -20.930  0.00  0.00     0.092 H 
ATOM     50  H   IDS d 503       9.731  16.430 -21.129  0.00  0.00     0.091 H 
ATOM     51  H   IDS d 503       7.199  17.742 -21.443  0.00  0.00     0.210 HD
ATOM     52  H   IDS d 503       7.205  16.176 -17.798  0.00  0.00     0.133 H 
ATOM     53  H   IDS d 503       7.503  15.434 -20.293  0.00  0.00     0.097 H 
ATOM     54  C4  IDS d 505      16.865  21.131 -14.260  0.00  0.00    -0.005 C 
ATOM     55  C5  IDS d 505      16.853  19.968 -15.307  0.00  0.00     0.127 C 
ATOM     56  O2  IDS d 505      13.632  22.641 -15.500  0.00  0.00    -0.388 OA
ATOM     57  O62 IDS d 505      18.885  19.670 -16.554  0.00  0.00    -0.646 OA
ATOM     58  C1  IDS d 505      14.927  20.889 -16.542  0.00  0.00     0.159 C 
ATOM     59  O5  IDS d 505      16.292  20.438 -16.555  0.00  0.00    -0.343 OA
ATOM     60  O1  IDS d 505      14.032  19.824 -16.712  0.00  0.00    -0.348 OA
ATOM     61  O61 IDS d 505      18.743  18.620 -14.770  0.00  0.00    -0.646 OA
ATOM     62  C6  IDS d 505      18.243  19.385 -15.563  0.00  0.00     0.203 C 
ATOM     63  C3  IDS d 505      15.811  22.223 -14.580  0.00  0.00     0.068 C 
ATOM     64  C2  IDS d 505      14.557  21.606 -15.218  0.00  0.00     0.107 C 
ATOM     65  H   IDS d 505      16.657  20.724 -13.292  0.00  0.00     0.041 H 
ATOM     66  H   IDS d 505      17.831  21.589 -14.291  0.00  0.00     0.041 H 
ATOM     67  H   IDS d 505      16.251  19.186 -14.895  0.00  0.00     0.100 H 
ATOM     68  H   IDS d 505      12.836  22.261 -15.903  0.00  0.00     0.210 HD
ATOM     69  H   IDS d 505      14.846  21.577 -17.358  0.00  0.00     0.133 H 
ATOM     70  H   IDS d 505      16.229  22.921 -15.276  0.00  0.00     0.087 H 
ATOM     71  H   IDS d 505      14.129  20.896 -14.541  0.00  0.00     0.094 H 
ATOM     72  O4S SGN d 504      15.017  23.328 -21.036  0.00  0.00    -0.572 OA
ATOM     73  C2  SGN d 504      13.025  17.632 -19.512  0.00  0.00     0.081 C 
ATOM     74  O2S SGN d 504      13.926  14.201 -20.500  0.00  0.00    -0.296 OA
ATOM     75  C5  SGN d 504      12.276  20.310 -18.651  0.00  0.00     0.091 C 
ATOM     76  O3S SGN d 504      12.005  15.029 -21.645  0.00  0.00    -0.296 OA
ATOM     77  N   SGN d 504      12.764  16.186 -19.629  0.00  0.00    -0.210 NA
ATOM     78  O1S SGN d 504      14.058  16.213 -21.784  0.00  0.00    -0.296 OA
ATOM     79  S1  SGN d 504      13.233  15.363 -20.977  0.00  0.00     0.156 S 
ATOM     80  C4  SGN d 504      13.520  19.588 -18.029  0.00  0.00     0.095 C 
ATOM     81  O1  SGN d 504      10.603  18.015 -19.495  0.00  0.00    -0.348 OA
ATOM     82  O6S SGN d 504      13.875  24.495 -19.289  0.00  0.00    -0.572 OA
ATOM     83  O6  SGN d 504      13.490  22.150 -19.598  0.00  0.00    -0.254 OA
ATOM     84  O5S SGN d 504      12.663  23.710 -21.189  0.00  0.00    -0.572 OA
ATOM     85  O3  SGN d 504      14.344  17.375 -17.499  0.00  0.00    -0.391 OA
ATOM     86  O5  SGN d 504      12.003  19.811 -19.989  0.00  0.00    -0.349 OA
ATOM     87  C6  SGN d 504      12.397  21.838 -18.759  0.00  0.00     0.067 C 
ATOM     88  S2  SGN d 504      13.788  23.502 -20.320  0.00  0.00     0.251 S 
ATOM     89  C3  SGN d 504      13.235  18.066 -18.044  0.00  0.00     0.083 C 
ATOM     90  C1  SGN d 504      11.814  18.399 -20.111  0.00  0.00     0.150 C 
ATOM     91  H   SGN d 504      13.925  17.859 -20.044  0.00  0.00     0.076 H 
ATOM     92  H   SGN d 504      13.325  13.663 -19.961  0.00  0.00     0.231 HD
ATOM     93  H   SGN d 504      11.485  20.089 -17.965  0.00  0.00     0.090 H 
ATOM     94  H   SGN d 504      11.472  14.456 -21.073  0.00  0.00     0.231 HD
ATOM     95  H   SGN d 504      11.755  16.063 -19.547  0.00  0.00     0.140 HD
ATOM     96  H   SGN d 504      14.336  15.732 -22.580  0.00  0.00     0.231 HD
ATOM     97  H   SGN d 504      14.275  20.022 -18.652  0.00  0.00     0.091 H 
ATOM     98  H   SGN d 504      14.167  16.421 -17.508  0.00  0.00     0.210 HD
ATOM     99  H   SGN d 504      12.558  22.255 -17.787  0.00  0.00     0.080 H 
ATOM    100  H   SGN d 504      11.496  22.245 -19.168  0.00  0.00     0.080 H 
ATOM    101  H   SGN d 504      12.365  17.841 -17.463  0.00  0.00     0.089 H 
ATOM    102  H   SGN d 504      11.751  18.144 -21.148  0.00  0.00     0.131 H 
ATOM    103  C1  IDS d 501      -2.374  15.164 -19.685  0.00  0.00     0.156 C 
ATOM    104  O3  IDS d 501       0.100  14.346 -17.885  0.00  0.00    -0.390 OA
ATOM    105  C2  IDS d 501      -2.000  15.500 -18.215  0.00  0.00     0.110 C 
ATOM    106  C4  IDS d 501       0.261  16.421 -19.092  0.00  0.00     0.103 C 
ATOM    107  C6  IDS d 501       0.448  16.571 -21.678  0.00  0.00     0.206 C 
ATOM    108  C3  IDS d 501      -0.472  15.636 -17.966  0.00  0.00     0.092 C 
ATOM    109  O5  IDS d 501      -1.625  15.982 -20.581  0.00  0.00    -0.340 OA
ATOM    110  O2  IDS d 501      -2.622  16.726 -17.875  0.00  0.00    -0.388 OA
ATOM    111  C5  IDS d 501      -0.193  15.882 -20.475  0.00  0.00     0.152 C 
ATOM    112  O62 IDS d 501       1.394  16.073 -22.242  0.00  0.00    -0.646 OA
ATOM    113  O61 IDS d 501       0.034  17.630 -22.097  0.00  0.00    -0.646 OA
ATOM    114  O1  IDS d 501      -2.157  13.796 -19.908  0.00  0.00    -0.368 OA
ATOM    115  H   IDS d 501      -3.409  15.372 -19.863  0.00  0.00     0.133 H 
ATOM    116  H   IDS d 501      -0.343  13.839 -17.187  0.00  0.00     0.210 HD
ATOM    117  H   IDS d 501      -2.336  14.683 -17.611  0.00  0.00     0.094 H 
ATOM    118  H   IDS d 501       0.046  17.344 -18.596  0.00  0.00     0.092 H 
ATOM    119  H   IDS d 501      -0.354  16.183 -17.054  0.00  0.00     0.091 H 
ATOM    120  H   IDS d 501      -2.284  17.430 -18.449  0.00  0.00     0.210 HD
ATOM    121  H   IDS d 501       0.138  14.864 -20.510  0.00  0.00     0.104 H 
ATOM    122  H   IDS d 501      -1.222  13.587 -19.751  0.00  0.00     0.212 HD
ATOM    123  O3  IDS d 535      15.458  22.869 -13.375  0.00  0.00    -0.393 OA
ATOM    124  H   IDS d 535      16.250  23.258 -12.972  0.00  0.00     0.210 HD
ENDROOT
TORSDOF 37
ENDMDL
MODEL 16
REMARK VINA RESULT:      -6.9      1.181      1.241
REMARK  0 active torsions:
REMARK  status: ('A' for Active; 'I' for Inactive)
REMARK       I    between atoms: O3_1  and  C3_48 
REMARK       I    between atoms: C1_2  and  O1_8 
REMARK       I    between atoms: O2_5  and  C2_76 
REMARK       I    between atoms: O2_5  and  S_66 
REMARK       I    between atoms: C2_7  and  N_46 
REMARK       I    between atoms: O1_8  and  C4_39 
REMARK       I    between atoms: C2_12  and  N_23 
REMARK       I    between atoms: O2S_13  and  S1_25 
REMARK       I    between atoms: C1_14  and  O1_65 
REMARK       I    between atoms: O3_15  and  C3_69 
REMARK       I    between atoms: C5_16  and  C6_31 
REMARK       I    between atoms: C5_17  and  C6_68 
REMARK       I    between atoms: C5_18  and  C6_71 
REMARK       I    between atoms: O3S_19  and  S1_25 
REMARK       I    between atoms: C6_20  and  C5_28 
REMARK       I    between atoms: C6_20  and  O6_74 
REMARK       I    between atoms: C4_21  and  O1_35 
REMARK       I    between atoms: S2_22  and  O6_74 
REMARK       I    between atoms: N_23  and  S1_25 
REMARK       I    between atoms: O1S_24  and  S1_25 
REMARK       I    between atoms: C4_27  and  O1_63 
REMARK       I    between atoms: O1_29  and  C4_49 
REMARK       I    between atoms: O1_29  and  C1_73 
REMARK       I    between atoms: O2_30  and  C2_78 
REMARK       I    between atoms: O3_33  and  C3_42 
REMARK       I    between atoms: O1_35  and  C1_77 
REMARK       I    between atoms: O3S_37  and  S1_50 
REMARK       I    between atoms: C2_38  and  O2_45 
REMARK       I    between atoms: C6_40  and  C5_51 
REMARK       I    between atoms: C3_41  and  O3_67 
REMARK       I    between atoms: N_46  and  S1_50 
REMARK       I    between atoms: O6_47  and  C6_71 
REMARK       I    between atoms: O6_47  and  S2_72 
REMARK       I    between atoms: S1_50  and  O1S_61 
REMARK       I    between atoms: S1_50  and  O2S_54 
REMARK       I    between atoms: O3_56  and  C3_75 
REMARK       I    between atoms: C1_58  and  O1_63 
ROOT
ATOM      1  O3  SGN d 502       3.661  17.504 -20.826  0.00  0.00    -0.391 OA
ATOM      2  C1  SGN d 502       0.132  18.222 -19.710  0.00  0.00     0.150 C 
ATOM      3  O6S SGN d 502       2.093  19.378 -13.708  0.00  0.00    -0.572 OA
ATOM      4  C2  SGN d 502       1.432  18.388 -20.544  0.00  0.00     0.081 C 
ATOM      5  O1  SGN d 502      -0.488  16.981 -19.977  0.00  0.00    -0.348 OA
ATOM      6  O5  SGN d 502       0.416  18.344 -18.309  0.00  0.00    -0.349 OA
ATOM      7  C6  SGN d 502       1.546  17.727 -16.271  0.00  0.00     0.067 C 
ATOM      8  S2  SGN d 502       1.931  20.036 -14.972  0.00  0.00     0.251 S 
ATOM      9  C5  SGN d 502       1.436  17.453 -17.783  0.00  0.00     0.091 C 
ATOM     10  O3S SGN d 502      -0.328  20.135 -22.477  0.00  0.00    -0.296 OA
ATOM     11  N   SGN d 502       1.100  18.225 -21.966  0.00  0.00    -0.210 NA
ATOM     12  C3  SGN d 502       2.470  17.350 -20.077  0.00  0.00     0.083 C 
ATOM     13  C4  SGN d 502       2.769  17.614 -18.583  0.00  0.00     0.095 C 
ATOM     14  S1  SGN d 502       0.911  19.553 -22.909  0.00  0.00     0.156 S 
ATOM     15  O2S SGN d 502       0.846  19.067 -24.257  0.00  0.00    -0.296 OA
ATOM     16  O4S SGN d 502       2.869  21.098 -15.171  0.00  0.00    -0.572 OA
ATOM     17  O1S SGN d 502       2.017  20.435 -22.686  0.00  0.00    -0.296 OA
ATOM     18  O5S SGN d 502       0.574  20.441 -15.208  0.00  0.00    -0.572 OA
ATOM     19  O6  SGN d 502       2.218  18.956 -16.067  0.00  0.00    -0.254 OA
ATOM     20  H   SGN d 502       3.476  17.338 -21.764  0.00  0.00     0.210 HD
ATOM     21  H   SGN d 502      -0.544  19.001 -19.995  0.00  0.00     0.131 H 
ATOM     22  H   SGN d 502       1.856  19.361 -20.404  0.00  0.00     0.076 H 
ATOM     23  H   SGN d 502       2.097  16.937 -15.804  0.00  0.00     0.080 H 
ATOM     24  H   SGN d 502       0.567  17.777 -15.844  0.00  0.00     0.080 H 
ATOM     25  H   SGN d 502       1.179  16.422 -17.908  0.00  0.00     0.090 H 
ATOM     26  H   SGN d 502      -0.237  20.448 -21.564  0.00  0.00     0.231 HD
ATOM     27  H   SGN d 502       0.223  17.705 -22.008  0.00  0.00     0.140 HD
ATOM     28  H   SGN d 502       2.095  16.358 -20.217  0.00  0.00     0.089 H 
ATOM     29  H   SGN d 502       3.122  18.591 -18.327  0.00  0.00     0.091 H 
ATOM     30  H   SGN d 502       0.082  18.477 -24.352  0.00  0.00     0.231 HD
ATOM     31  H   SGN d 502       2.012  20.731 -21.762  0.00  0.00     0.231 HD
ATOM     32  O62 IDS d 503       7.516  17.518 -21.365  0.00  0.00    -0.646 OA
ATOM     33  O2  IDS d 503       6.125  16.257 -15.638  0.00  0.00    -0.244 OA
ATOM     34  O5  IDS d 503       5.847  17.722 -18.293  0.00  0.00    -0.340 OA
ATOM     35  C5  IDS d 503       6.519  16.930 -19.284  0.00  0.00     0.152 C 
ATOM     36  C4  IDS d 503       7.386  15.867 -18.572  0.00  0.00     0.103 C 
ATOM     37  O61 IDS d 503       7.670  18.948 -19.872  0.00  0.00    -0.646 OA
ATOM     38  O1  IDS d 503       3.767  16.637 -18.293  0.00  0.00    -0.348 OA
ATOM     39  C6  IDS d 503       7.281  17.856 -20.227  0.00  0.00     0.206 C 
ATOM     40  O1S IDS d 503       5.554  14.834 -13.792  0.00  0.00    -0.572 OA
ATOM     41  O3S IDS d 503       4.303  16.832 -14.173  0.00  0.00    -0.572 OA
ATOM     42  C3  IDS d 503       6.485  14.990 -17.660  0.00  0.00     0.094 C 
ATOM     43  O2S IDS d 503       6.553  16.974 -13.409  0.00  0.00    -0.572 OA
ATOM     44  S   IDS d 503       5.597  16.216 -14.165  0.00  0.00     0.252 S 
ATOM     45  O3  IDS d 503       5.765  14.092 -18.485  0.00  0.00    -0.390 OA
ATOM     46  C1  IDS d 503       4.862  17.048 -17.519  0.00  0.00     0.161 C 
ATOM     47  C2  IDS d 503       5.472  15.808 -16.810  0.00  0.00     0.134 C 
ATOM     48  H   IDS d 503       5.834  16.386 -19.900  0.00  0.00     0.104 H 
ATOM     49  H   IDS d 503       7.857  15.311 -19.356  0.00  0.00     0.092 H 
ATOM     50  H   IDS d 503       7.126  14.483 -16.970  0.00  0.00     0.091 H 
ATOM     51  H   IDS d 503       5.199  14.594 -19.093  0.00  0.00     0.210 HD
ATOM     52  H   IDS d 503       4.515  17.751 -16.791  0.00  0.00     0.133 H 
ATOM     53  H   IDS d 503       4.658  15.142 -16.613  0.00  0.00     0.097 H 
ATOM     54  C4  IDS d 505      15.107  21.995 -17.206  0.00  0.00    -0.005 C 
ATOM     55  C5  IDS d 505      14.753  20.701 -16.402  0.00  0.00     0.127 C 
ATOM     56  O2  IDS d 505      12.628  21.282 -19.966  0.00  0.00    -0.388 OA
ATOM     57  O62 IDS d 505      16.620  19.340 -15.745  0.00  0.00    -0.646 OA
ATOM     58  C1  IDS d 505      13.305  19.800 -18.184  0.00  0.00     0.159 C 
ATOM     59  O5  IDS d 505      14.439  19.625 -17.318  0.00  0.00    -0.343 OA
ATOM     60  O1  IDS d 505      12.113  19.414 -17.557  0.00  0.00    -0.348 OA
ATOM     61  O61 IDS d 505      16.054  20.822 -14.410  0.00  0.00    -0.646 OA
ATOM     62  C6  IDS d 505      15.876  20.257 -15.465  0.00  0.00     0.203 C 
ATOM     63  C3  IDS d 505      14.496  21.988 -18.632  0.00  0.00     0.068 C 
ATOM     64  C2  IDS d 505      13.138  21.271 -18.645  0.00  0.00     0.107 C 
ATOM     65  H   IDS d 505      14.731  22.844 -16.674  0.00  0.00     0.041 H 
ATOM     66  H   IDS d 505      16.171  22.038 -17.306  0.00  0.00     0.041 H 
ATOM     67  H   IDS d 505      13.905  20.936 -15.794  0.00  0.00     0.100 H 
ATOM     68  H   IDS d 505      11.770  20.831 -19.984  0.00  0.00     0.210 HD
ATOM     69  H   IDS d 505      13.497  19.177 -19.034  0.00  0.00     0.133 H 
ATOM     70  H   IDS d 505      15.155  21.466 -19.294  0.00  0.00     0.087 H 
ATOM     71  H   IDS d 505      12.467  21.774 -17.980  0.00  0.00     0.094 H 
ATOM     72  O4S SGN d 504      14.412  16.024 -21.452  0.00  0.00    -0.572 OA
ATOM     73  C2  SGN d 504      10.557  16.211 -16.570  0.00  0.00     0.081 C 
ATOM     74  O2S SGN d 504      10.297  14.392 -13.378  0.00  0.00    -0.296 OA
ATOM     75  C5  SGN d 504      10.712  17.719 -19.054  0.00  0.00     0.091 C 
ATOM     76  O3S SGN d 504       8.819  13.557 -15.053  0.00  0.00    -0.296 OA
ATOM     77  N   SGN d 504       9.831  15.760 -15.368  0.00  0.00    -0.210 NA
ATOM     78  O1S SGN d 504      11.154  13.625 -15.474  0.00  0.00    -0.296 OA
ATOM     79  S1  SGN d 504      10.056  14.236 -14.784  0.00  0.00     0.156 S 
ATOM     80  C4  SGN d 504      11.612  18.100 -17.829  0.00  0.00     0.095 C 
ATOM     81  O1  SGN d 504       8.405  16.415 -17.729  0.00  0.00    -0.348 OA
ATOM     82  O6S SGN d 504      13.650  18.044 -22.481  0.00  0.00    -0.572 OA
ATOM     83  O6  SGN d 504      12.514  17.196 -20.548  0.00  0.00    -0.254 OA
ATOM     84  O5S SGN d 504      12.332  16.060 -22.629  0.00  0.00    -0.572 OA
ATOM     85  O3  SGN d 504      11.620  18.049 -15.410  0.00  0.00    -0.391 OA
ATOM     86  O5  SGN d 504      10.348  16.312 -19.012  0.00  0.00    -0.349 OA
ATOM     87  C6  SGN d 504      11.343  17.977 -20.431  0.00  0.00     0.067 C 
ATOM     88  S2  SGN d 504      13.282  16.809 -21.853  0.00  0.00     0.251 S 
ATOM     89  C3  SGN d 504      10.833  17.731 -16.542  0.00  0.00     0.083 C 
ATOM     90  C1  SGN d 504       9.701  15.862 -17.819  0.00  0.00     0.150 C 
ATOM     91  H   SGN d 504      11.503  15.714 -16.601  0.00  0.00     0.076 H 
ATOM     92  H   SGN d 504       9.526  14.809 -12.962  0.00  0.00     0.231 HD
ATOM     93  H   SGN d 504       9.863  18.363 -18.955  0.00  0.00     0.090 H 
ATOM     94  H   SGN d 504       8.100  13.994 -14.573  0.00  0.00     0.231 HD
ATOM     95  H   SGN d 504       8.836  15.849 -15.576  0.00  0.00     0.140 HD
ATOM     96  H   SGN d 504      11.290  12.727 -15.132  0.00  0.00     0.231 HD
ATOM     97  H   SGN d 504      12.495  17.570 -18.120  0.00  0.00     0.091 H 
ATOM     98  H   SGN d 504      11.133  17.818 -14.603  0.00  0.00     0.210 HD
ATOM     99  H   SGN d 504      11.591  19.014 -20.524  0.00  0.00     0.080 H 
ATOM    100  H   SGN d 504      10.651  17.714 -21.203  0.00  0.00     0.080 H 
ATOM    101  H   SGN d 504       9.913  18.275 -16.491  0.00  0.00     0.089 H 
ATOM    102  H   SGN d 504       9.604  14.797 -17.856  0.00  0.00     0.131 H 
ATOM    103  C1  IDS d 501      -4.753  16.054 -19.544  0.00  0.00     0.156 C 
ATOM    104  O3  IDS d 501      -2.781  17.506 -17.536  0.00  0.00    -0.390 OA
ATOM    105  C2  IDS d 501      -4.355  17.546 -19.372  0.00  0.00     0.110 C 
ATOM    106  C4  IDS d 501      -1.878  16.829 -19.661  0.00  0.00     0.103 C 
ATOM    107  C6  IDS d 501      -1.535  14.349 -20.354  0.00  0.00     0.206 C 
ATOM    108  C3  IDS d 501      -2.883  17.761 -18.923  0.00  0.00     0.092 C 
ATOM    109  O5  IDS d 501      -3.733  15.352 -20.252  0.00  0.00    -0.340 OA
ATOM    110  O2  IDS d 501      -4.544  18.195 -20.617  0.00  0.00    -0.388 OA
ATOM    111  C5  IDS d 501      -2.424  15.375 -19.653  0.00  0.00     0.152 C 
ATOM    112  O62 IDS d 501      -0.787  13.645 -19.716  0.00  0.00    -0.646 OA
ATOM    113  O61 IDS d 501      -1.551  14.213 -21.557  0.00  0.00    -0.646 OA
ATOM    114  O1  IDS d 501      -4.998  15.500 -18.279  0.00  0.00    -0.368 OA
ATOM    115  H   IDS d 501      -5.649  15.972 -20.124  0.00  0.00     0.133 H 
ATOM    116  H   IDS d 501      -3.400  18.079 -17.056  0.00  0.00     0.210 HD
ATOM    117  H   IDS d 501      -4.973  17.948 -18.597  0.00  0.00     0.094 H 
ATOM    118  H   IDS d 501      -1.793  17.540 -20.455  0.00  0.00     0.092 H 
ATOM    119  H   IDS d 501      -2.629  18.772 -19.163  0.00  0.00     0.091 H 
ATOM    120  H   IDS d 501      -3.964  17.794 -21.282  0.00  0.00     0.210 HD
ATOM    121  H   IDS d 501      -2.453  15.084 -18.624  0.00  0.00     0.104 H 
ATOM    122  H   IDS d 501      -4.196  15.565 -17.737  0.00  0.00     0.212 HD
ATOM    123  O3  IDS d 535      14.326  23.327 -19.051  0.00  0.00    -0.393 OA
ATOM    124  H   IDS d 535      15.184  23.779 -19.042  0.00  0.00     0.210 HD
ENDROOT
TORSDOF 37
ENDMDL
MODEL 17
REMARK VINA RESULT:      -6.8      4.298     13.062
REMARK  0 active torsions:
REMARK  status: ('A' for Active; 'I' for Inactive)
REMARK       I    between atoms: O3_1  and  C3_48 
REMARK       I    between atoms: C1_2  and  O1_8 
REMARK       I    between atoms: O2_5  and  C2_76 
REMARK       I    between atoms: O2_5  and  S_66 
REMARK       I    between atoms: C2_7  and  N_46 
REMARK       I    between atoms: O1_8  and  C4_39 
REMARK       I    between atoms: C2_12  and  N_23 
REMARK       I    between atoms: O2S_13  and  S1_25 
REMARK       I    between atoms: C1_14  and  O1_65 
REMARK       I    between atoms: O3_15  and  C3_69 
REMARK       I    between atoms: C5_16  and  C6_31 
REMARK       I    between atoms: C5_17  and  C6_68 
REMARK       I    between atoms: C5_18  and  C6_71 
REMARK       I    between atoms: O3S_19  and  S1_25 
REMARK       I    between atoms: C6_20  and  C5_28 
REMARK       I    between atoms: C6_20  and  O6_74 
REMARK       I    between atoms: C4_21  and  O1_35 
REMARK       I    between atoms: S2_22  and  O6_74 
REMARK       I    between atoms: N_23  and  S1_25 
REMARK       I    between atoms: O1S_24  and  S1_25 
REMARK       I    between atoms: C4_27  and  O1_63 
REMARK       I    between atoms: O1_29  and  C4_49 
REMARK       I    between atoms: O1_29  and  C1_73 
REMARK       I    between atoms: O2_30  and  C2_78 
REMARK       I    between atoms: O3_33  and  C3_42 
REMARK       I    between atoms: O1_35  and  C1_77 
REMARK       I    between atoms: O3S_37  and  S1_50 
REMARK       I    between atoms: C2_38  and  O2_45 
REMARK       I    between atoms: C6_40  and  C5_51 
REMARK       I    between atoms: C3_41  and  O3_67 
REMARK       I    between atoms: N_46  and  S1_50 
REMARK       I    between atoms: O6_47  and  C6_71 
REMARK       I    between atoms: O6_47  and  S2_72 
REMARK       I    between atoms: S1_50  and  O1S_61 
REMARK       I    between atoms: S1_50  and  O2S_54 
REMARK       I    between atoms: O3_56  and  C3_75 
REMARK       I    between atoms: C1_58  and  O1_63 
ROOT
ATOM      1  O3  SGN d 502      10.036  20.456 -22.959  0.00  0.00    -0.391 OA
ATOM      2  C1  SGN d 502      12.716  19.553 -25.453  0.00  0.00     0.150 C 
ATOM      3  O6S SGN d 502      11.150  13.336 -25.129  0.00  0.00    -0.572 OA
ATOM      4  C2  SGN d 502      11.446  20.264 -24.909  0.00  0.00     0.081 C 
ATOM      5  O1  SGN d 502      13.873  19.982 -24.765  0.00  0.00    -0.348 OA
ATOM      6  O5  SGN d 502      12.575  18.129 -25.348  0.00  0.00    -0.349 OA
ATOM      7  C6  SGN d 502      12.203  16.077 -24.140  0.00  0.00     0.067 C 
ATOM      8  S2  SGN d 502      10.783  14.541 -25.813  0.00  0.00     0.251 S 
ATOM      9  C5  SGN d 502      12.269  17.612 -24.026  0.00  0.00     0.091 C 
ATOM     10  O3S SGN d 502      11.744  22.157 -27.403  0.00  0.00    -0.296 OA
ATOM     11  N   SGN d 502      11.648  21.718 -25.006  0.00  0.00    -0.210 NA
ATOM     12  C3  SGN d 502      11.197  19.818 -23.456  0.00  0.00     0.083 C 
ATOM     13  C4  SGN d 502      10.978  18.288 -23.460  0.00  0.00     0.095 C 
ATOM     14  S1  SGN d 502      10.977  22.544 -26.253  0.00  0.00     0.156 S 
ATOM     15  O2S SGN d 502      11.138  23.933 -25.932  0.00  0.00    -0.296 OA
ATOM     16  O4S SGN d 502       9.404  14.568 -26.194  0.00  0.00    -0.572 OA
ATOM     17  O1S SGN d 502       9.605  22.155 -26.376  0.00  0.00    -0.296 OA
ATOM     18  O5S SGN d 502      11.667  14.843 -26.903  0.00  0.00    -0.572 OA
ATOM     19  O6  SGN d 502      11.002  15.707 -24.792  0.00  0.00    -0.254 OA
ATOM     20  H   SGN d 502      10.171  21.416 -22.955  0.00  0.00     0.210 HD
ATOM     21  H   SGN d 502      12.825  19.815 -26.484  0.00  0.00     0.131 H 
ATOM     22  H   SGN d 502      10.583  20.002 -25.485  0.00  0.00     0.076 H 
ATOM     23  H   SGN d 502      12.226  15.644 -23.162  0.00  0.00     0.080 H 
ATOM     24  H   SGN d 502      13.041  15.723 -24.704  0.00  0.00     0.080 H 
ATOM     25  H   SGN d 502      13.026  17.851 -23.310  0.00  0.00     0.090 H 
ATOM     26  H   SGN d 502      11.605  21.214 -27.582  0.00  0.00     0.231 HD
ATOM     27  H   SGN d 502      12.654  21.875 -25.053  0.00  0.00     0.140 HD
ATOM     28  H   SGN d 502      12.031  20.078 -22.838  0.00  0.00     0.089 H 
ATOM     29  H   SGN d 502      10.185  17.915 -24.073  0.00  0.00     0.091 H 
ATOM     30  H   SGN d 502      12.083  24.141 -25.860  0.00  0.00     0.231 HD
ATOM     31  H   SGN d 502       9.555  21.211 -26.593  0.00  0.00     0.231 HD
ATOM     32  O62 IDS d 503       6.755  20.692 -20.878  0.00  0.00    -0.646 OA
ATOM     33  O2  IDS d 503       9.258  15.231 -20.381  0.00  0.00    -0.244 OA
ATOM     34  O5  IDS d 503       8.390  17.753 -21.852  0.00  0.00    -0.340 OA
ATOM     35  C5  IDS d 503       8.144  18.758 -20.858  0.00  0.00     0.152 C 
ATOM     36  C4  IDS d 503       8.079  18.083 -19.468  0.00  0.00     0.103 C 
ATOM     37  O61 IDS d 503       6.025  19.065 -21.935  0.00  0.00    -0.646 OA
ATOM     38  O1  IDS d 503      10.709  18.014 -22.086  0.00  0.00    -0.348 OA
ATOM     39  C6  IDS d 503       6.899  19.549 -21.248  0.00  0.00     0.206 C 
ATOM     40  O1S IDS d 503      10.716  13.576 -19.437  0.00  0.00    -0.572 OA
ATOM     41  O3S IDS d 503      10.633  13.864 -21.806  0.00  0.00    -0.572 OA
ATOM     42  C3  IDS d 503       9.410  17.330 -19.197  0.00  0.00     0.094 C 
ATOM     43  O2S IDS d 503       8.770  12.920 -20.664  0.00  0.00    -0.572 OA
ATOM     44  S   IDS d 503       9.889  13.814 -20.583  0.00  0.00     0.252 S 
ATOM     45  O3  IDS d 503      10.400  18.288 -18.871  0.00  0.00    -0.390 OA
ATOM     46  C1  IDS d 503       9.664  17.123 -21.802  0.00  0.00     0.161 C 
ATOM     47  C2  IDS d 503       9.909  16.487 -20.405  0.00  0.00     0.134 C 
ATOM     48  H   IDS d 503       8.938  19.473 -20.801  0.00  0.00     0.104 H 
ATOM     49  H   IDS d 503       7.897  18.877 -18.774  0.00  0.00     0.092 H 
ATOM     50  H   IDS d 503       9.230  16.642 -18.397  0.00  0.00     0.091 H 
ATOM     51  H   IDS d 503      10.530  18.887 -19.622  0.00  0.00     0.210 HD
ATOM     52  H   IDS d 503       9.657  16.362 -22.553  0.00  0.00     0.133 H 
ATOM     53  H   IDS d 503      10.970  16.416 -20.287  0.00  0.00     0.097 H 
ATOM     54  C4  IDS d 505      -1.510  15.561 -20.311  0.00  0.00    -0.005 C 
ATOM     55  C5  IDS d 505      -0.422  14.911 -19.394  0.00  0.00     0.127 C 
ATOM     56  O2  IDS d 505       0.622  18.558 -21.172  0.00  0.00    -0.388 OA
ATOM     57  O62 IDS d 505      -1.165  14.242 -17.209  0.00  0.00    -0.646 OA
ATOM     58  C1  IDS d 505       1.066  16.876 -19.498  0.00  0.00     0.159 C 
ATOM     59  O5  IDS d 505       0.316  15.945 -18.700  0.00  0.00    -0.343 OA
ATOM     60  O1  IDS d 505       2.340  16.381 -19.806  0.00  0.00    -0.348 OA
ATOM     61  O61 IDS d 505      -1.342  12.822 -18.711  0.00  0.00    -0.646 OA
ATOM     62  C6  IDS d 505      -1.009  13.935 -18.374  0.00  0.00     0.203 C 
ATOM     63  C3  IDS d 505      -1.163  17.024 -20.691  0.00  0.00     0.068 C 
ATOM     64  C2  IDS d 505       0.356  17.209 -20.836  0.00  0.00     0.107 C 
ATOM     65  H   IDS d 505      -1.595  14.983 -21.207  0.00  0.00     0.041 H 
ATOM     66  H   IDS d 505      -2.431  15.574 -19.766  0.00  0.00     0.041 H 
ATOM     67  H   IDS d 505       0.227  14.351 -20.033  0.00  0.00     0.100 H 
ATOM     68  H   IDS d 505       1.578  18.685 -21.266  0.00  0.00     0.210 HD
ATOM     69  H   IDS d 505       1.145  17.762 -18.903  0.00  0.00     0.133 H 
ATOM     70  H   IDS d 505      -1.505  17.679 -19.917  0.00  0.00     0.087 H 
ATOM     71  H   IDS d 505       0.719  16.553 -21.600  0.00  0.00     0.094 H 
ATOM     72  O4S SGN d 504       1.810  20.386 -15.854  0.00  0.00    -0.572 OA
ATOM     73  C2  SGN d 504       5.484  15.819 -17.947  0.00  0.00     0.081 C 
ATOM     74  O2S SGN d 504       7.053  12.841 -16.454  0.00  0.00    -0.296 OA
ATOM     75  C5  SGN d 504       4.251  18.133 -19.211  0.00  0.00     0.091 C 
ATOM     76  O3S SGN d 504       8.542  14.695 -16.626  0.00  0.00    -0.296 OA
ATOM     77  N   SGN d 504       6.471  14.725 -17.924  0.00  0.00    -0.210 NA
ATOM     78  O1S SGN d 504       6.512  14.927 -15.419  0.00  0.00    -0.296 OA
ATOM     79  S1  SGN d 504       7.175  14.270 -16.507  0.00  0.00     0.156 S 
ATOM     80  C4  SGN d 504       3.437  16.812 -18.993  0.00  0.00     0.095 C 
ATOM     81  O1  SGN d 504       7.031  17.117 -19.338  0.00  0.00    -0.348 OA
ATOM     82  O6S SGN d 504       1.232  21.278 -17.996  0.00  0.00    -0.572 OA
ATOM     83  O6  SGN d 504       2.861  19.526 -17.840  0.00  0.00    -0.254 OA
ATOM     84  O5S SGN d 504       3.387  21.711 -17.066  0.00  0.00    -0.572 OA
ATOM     85  O3  SGN d 504       3.737  14.415 -18.859  0.00  0.00    -0.391 OA
ATOM     86  O5  SGN d 504       5.320  18.250 -18.234  0.00  0.00    -0.349 OA
ATOM     87  C6  SGN d 504       3.427  19.427 -19.131  0.00  0.00     0.067 C 
ATOM     88  S2  SGN d 504       2.280  20.798 -17.143  0.00  0.00     0.251 S 
ATOM     89  C3  SGN d 504       4.434  15.629 -19.065  0.00  0.00     0.083 C 
ATOM     90  C1  SGN d 504       6.241  17.158 -18.169  0.00  0.00     0.150 C 
ATOM     91  H   SGN d 504       4.960  15.824 -17.014  0.00  0.00     0.076 H 
ATOM     92  H   SGN d 504       7.518  12.448 -17.210  0.00  0.00     0.231 HD
ATOM     93  H   SGN d 504       4.622  18.040 -20.211  0.00  0.00     0.090 H 
ATOM     94  H   SGN d 504       8.961  14.233 -17.369  0.00  0.00     0.231 HD
ATOM     95  H   SGN d 504       7.227  15.000 -18.552  0.00  0.00     0.140 HD
ATOM     96  H   SGN d 504       6.924  14.661 -14.581  0.00  0.00     0.231 HD
ATOM     97  H   SGN d 504       2.954  17.082 -18.076  0.00  0.00     0.091 H 
ATOM     98  H   SGN d 504       4.360  13.672 -18.904  0.00  0.00     0.210 HD
ATOM     99  H   SGN d 504       2.648  19.404 -19.865  0.00  0.00     0.080 H 
ATOM    100  H   SGN d 504       4.057  20.271 -19.318  0.00  0.00     0.080 H 
ATOM    101  H   SGN d 504       4.912  15.599 -20.021  0.00  0.00     0.089 H 
ATOM    102  H   SGN d 504       6.894  17.302 -17.334  0.00  0.00     0.131 H 
ATOM    103  C1  IDS d 501      17.977  19.967 -26.312  0.00  0.00     0.156 C 
ATOM    104  O3  IDS d 501      15.780  17.686 -26.373  0.00  0.00    -0.390 OA
ATOM    105  C2  IDS d 501      16.858  19.626 -27.334  0.00  0.00     0.110 C 
ATOM    106  C4  IDS d 501      15.150  19.789 -25.388  0.00  0.00     0.103 C 
ATOM    107  C6  IDS d 501      16.126  20.681 -23.152  0.00  0.00     0.206 C 
ATOM    108  C3  IDS d 501      15.567  19.047 -26.691  0.00  0.00     0.092 C 
ATOM    109  O5  IDS d 501      17.425  20.656 -25.192  0.00  0.00    -0.340 OA
ATOM    110  O2  IDS d 501      16.520  20.815 -28.025  0.00  0.00    -0.388 OA
ATOM    111  C5  IDS d 501      16.392  19.959 -24.472  0.00  0.00     0.152 C 
ATOM    112  O62 IDS d 501      15.957  20.056 -22.132  0.00  0.00    -0.646 OA
ATOM    113  O61 IDS d 501      16.074  21.890 -23.091  0.00  0.00    -0.646 OA
ATOM    114  O1  IDS d 501      18.627  18.781 -25.938  0.00  0.00    -0.368 OA
ATOM    115  H   IDS d 501      18.701  20.619 -26.755  0.00  0.00     0.133 H 
ATOM    116  H   IDS d 501      16.042  17.204 -27.173  0.00  0.00     0.210 HD
ATOM    117  H   IDS d 501      17.244  18.867 -27.981  0.00  0.00     0.094 H 
ATOM    118  H   IDS d 501      14.602  20.504 -25.965  0.00  0.00     0.092 H 
ATOM    119  H   IDS d 501      14.781  19.171 -27.406  0.00  0.00     0.091 H 
ATOM    120  H   IDS d 501      16.177  21.469 -27.396  0.00  0.00     0.210 HD
ATOM    121  H   IDS d 501      16.693  18.966 -24.208  0.00  0.00     0.104 H 
ATOM    122  H   IDS d 501      17.986  18.175 -25.533  0.00  0.00     0.212 HD
ATOM    123  O3  IDS d 535      -1.794  17.329 -21.917  0.00  0.00    -0.393 OA
ATOM    124  H   IDS d 535      -2.753  17.211 -21.825  0.00  0.00     0.210 HD
ENDROOT
TORSDOF 37
ENDMDL
MODEL 18
REMARK VINA RESULT:      -6.7      2.343      4.158
REMARK  0 active torsions:
REMARK  status: ('A' for Active; 'I' for Inactive)
REMARK       I    between atoms: O3_1  and  C3_48 
REMARK       I    between atoms: C1_2  and  O1_8 
REMARK       I    between atoms: O2_5  and  C2_76 
REMARK       I    between atoms: O2_5  and  S_66 
REMARK       I    between atoms: C2_7  and  N_46 
REMARK       I    between atoms: O1_8  and  C4_39 
REMARK       I    between atoms: C2_12  and  N_23 
REMARK       I    between atoms: O2S_13  and  S1_25 
REMARK       I    between atoms: C1_14  and  O1_65 
REMARK       I    between atoms: O3_15  and  C3_69 
REMARK       I    between atoms: C5_16  and  C6_31 
REMARK       I    between atoms: C5_17  and  C6_68 
REMARK       I    between atoms: C5_18  and  C6_71 
REMARK       I    between atoms: O3S_19  and  S1_25 
REMARK       I    between atoms: C6_20  and  C5_28 
REMARK       I    between atoms: C6_20  and  O6_74 
REMARK       I    between atoms: C4_21  and  O1_35 
REMARK       I    between atoms: S2_22  and  O6_74 
REMARK       I    between atoms: N_23  and  S1_25 
REMARK       I    between atoms: O1S_24  and  S1_25 
REMARK       I    between atoms: C4_27  and  O1_63 
REMARK       I    between atoms: O1_29  and  C4_49 
REMARK       I    between atoms: O1_29  and  C1_73 
REMARK       I    between atoms: O2_30  and  C2_78 
REMARK       I    between atoms: O3_33  and  C3_42 
REMARK       I    between atoms: O1_35  and  C1_77 
REMARK       I    between atoms: O3S_37  and  S1_50 
REMARK       I    between atoms: C2_38  and  O2_45 
REMARK       I    between atoms: C6_40  and  C5_51 
REMARK       I    between atoms: C3_41  and  O3_67 
REMARK       I    between atoms: N_46  and  S1_50 
REMARK       I    between atoms: O6_47  and  C6_71 
REMARK       I    between atoms: O6_47  and  S2_72 
REMARK       I    between atoms: S1_50  and  O1S_61 
REMARK       I    between atoms: S1_50  and  O2S_54 
REMARK       I    between atoms: O3_56  and  C3_75 
REMARK       I    between atoms: C1_58  and  O1_63 
ROOT
ATOM      1  O3  SGN d 502       3.698  19.274 -19.572  0.00  0.00    -0.391 OA
ATOM      2  C1  SGN d 502       1.092  16.770 -18.500  0.00  0.00     0.150 C 
ATOM      3  O6S SGN d 502       5.342  13.682 -14.812  0.00  0.00    -0.572 OA
ATOM      4  C2  SGN d 502       1.741  18.168 -18.691  0.00  0.00     0.081 C 
ATOM      5  O1  SGN d 502       0.752  16.193 -19.744  0.00  0.00    -0.348 OA
ATOM      6  O5  SGN d 502       1.975  15.901 -17.776  0.00  0.00    -0.349 OA
ATOM      7  C6  SGN d 502       4.060  14.744 -17.424  0.00  0.00     0.067 C 
ATOM      8  S2  SGN d 502       4.434  14.791 -14.772  0.00  0.00     0.251 S 
ATOM      9  C5  SGN d 502       3.307  15.736 -18.331  0.00  0.00     0.091 C 
ATOM     10  O3S SGN d 502      -1.104  19.308 -17.992  0.00  0.00    -0.296 OA
ATOM     11  N   SGN d 502       0.817  19.011 -19.464  0.00  0.00    -0.210 NA
ATOM     12  C3  SGN d 502       3.097  18.004 -19.405  0.00  0.00     0.083 C 
ATOM     13  C4  SGN d 502       4.001  17.125 -18.511  0.00  0.00     0.095 C 
ATOM     14  S1  SGN d 502      -0.126  20.100 -18.683  0.00  0.00     0.156 S 
ATOM     15  O2S SGN d 502      -0.709  20.917 -19.708  0.00  0.00    -0.296 OA
ATOM     16  O4S SGN d 502       4.861  15.830 -13.887  0.00  0.00    -0.572 OA
ATOM     17  O1S SGN d 502       0.690  20.845 -17.773  0.00  0.00    -0.296 OA
ATOM     18  O5S SGN d 502       3.079  14.379 -14.535  0.00  0.00    -0.572 OA
ATOM     19  O6  SGN d 502       4.416  15.392 -16.217  0.00  0.00    -0.254 OA
ATOM     20  H   SGN d 502       3.132  19.828 -20.133  0.00  0.00     0.210 HD
ATOM     21  H   SGN d 502       0.193  16.898 -17.935  0.00  0.00     0.131 H 
ATOM     22  H   SGN d 502       1.922  18.639 -17.748  0.00  0.00     0.076 H 
ATOM     23  H   SGN d 502       4.944  14.405 -17.921  0.00  0.00     0.080 H 
ATOM     24  H   SGN d 502       3.430  13.906 -17.209  0.00  0.00     0.080 H 
ATOM     25  H   SGN d 502       3.288  15.323 -19.317  0.00  0.00     0.090 H 
ATOM     26  H   SGN d 502      -0.666  18.775 -17.311  0.00  0.00     0.231 HD
ATOM     27  H   SGN d 502       0.190  18.381 -19.965  0.00  0.00     0.140 HD
ATOM     28  H   SGN d 502       2.961  17.552 -20.365  0.00  0.00     0.089 H 
ATOM     29  H   SGN d 502       4.178  17.471 -17.514  0.00  0.00     0.091 H 
ATOM     30  H   SGN d 502      -1.250  20.363 -20.294  0.00  0.00     0.231 HD
ATOM     31  H   SGN d 502       1.058  20.246 -17.104  0.00  0.00     0.231 HD
ATOM     32  O62 IDS d 503       6.673  21.778 -19.728  0.00  0.00    -0.646 OA
ATOM     33  O2  IDS d 503       8.578  16.218 -18.392  0.00  0.00    -0.244 OA
ATOM     34  O5  IDS d 503       6.701  18.611 -18.236  0.00  0.00    -0.340 OA
ATOM     35  C5  IDS d 503       6.985  19.445 -19.368  0.00  0.00     0.152 C 
ATOM     36  C4  IDS d 503       8.322  18.994 -20.000  0.00  0.00     0.103 C 
ATOM     37  O61 IDS d 503       7.166  21.238 -17.788  0.00  0.00    -0.646 OA
ATOM     38  O1  IDS d 503       5.223  17.095 -19.247  0.00  0.00    -0.348 OA
ATOM     39  C6  IDS d 503       6.940  20.907 -18.932  0.00  0.00     0.206 C 
ATOM     40  O1S IDS d 503       9.342  13.997 -18.879  0.00  0.00    -0.572 OA
ATOM     41  O3S IDS d 503       7.610  14.323 -17.268  0.00  0.00    -0.572 OA
ATOM     42  C3  IDS d 503       8.222  17.498 -20.407  0.00  0.00     0.094 C 
ATOM     43  O2S IDS d 503       9.833  15.013 -16.769  0.00  0.00    -0.572 OA
ATOM     44  S   IDS d 503       8.854  14.798 -17.796  0.00  0.00     0.252 S 
ATOM     45  O3  IDS d 503       7.443  17.414 -21.587  0.00  0.00    -0.390 OA
ATOM     46  C1  IDS d 503       6.413  17.247 -18.521  0.00  0.00     0.161 C 
ATOM     47  C2  IDS d 503       7.577  16.595 -19.317  0.00  0.00     0.134 C 
ATOM     48  H   IDS d 503       6.249  19.348 -20.137  0.00  0.00     0.104 H 
ATOM     49  H   IDS d 503       8.478  19.646 -20.833  0.00  0.00     0.092 H 
ATOM     50  H   IDS d 503       9.220  17.140 -20.552  0.00  0.00     0.091 H 
ATOM     51  H   IDS d 503       6.550  17.748 -21.410  0.00  0.00     0.210 HD
ATOM     52  H   IDS d 503       6.297  16.757 -17.577  0.00  0.00     0.133 H 
ATOM     53  H   IDS d 503       7.154  15.766 -19.845  0.00  0.00     0.097 H 
ATOM     54  C4  IDS d 505      13.939  24.333 -13.757  0.00  0.00    -0.005 C 
ATOM     55  C5  IDS d 505      14.351  23.066 -14.578  0.00  0.00     0.127 C 
ATOM     56  O2  IDS d 505      10.705  24.832 -15.643  0.00  0.00    -0.388 OA
ATOM     57  O62 IDS d 505      16.576  23.092 -15.485  0.00  0.00    -0.646 OA
ATOM     58  C1  IDS d 505      12.501  23.314 -16.190  0.00  0.00     0.159 C 
ATOM     59  O5  IDS d 505      13.914  23.208 -15.950  0.00  0.00    -0.343 OA
ATOM     60  O1  IDS d 505      11.898  22.053 -16.285  0.00  0.00    -0.348 OA
ATOM     61  O61 IDS d 505      16.374  22.300 -13.578  0.00  0.00    -0.646 OA
ATOM     62  C6  IDS d 505      15.857  22.804 -14.549  0.00  0.00     0.203 C 
ATOM     63  C3  IDS d 505      12.741  25.084 -14.395  0.00  0.00     0.068 C 
ATOM     64  C2  IDS d 505      11.772  24.100 -15.070  0.00  0.00     0.107 C 
ATOM     65  H   IDS d 505      13.668  24.028 -12.768  0.00  0.00     0.041 H 
ATOM     66  H   IDS d 505      14.775  25.001 -13.744  0.00  0.00     0.041 H 
ATOM     67  H   IDS d 505      13.873  22.228 -14.116  0.00  0.00     0.100 H 
ATOM     68  H   IDS d 505      10.087  24.220 -16.072  0.00  0.00     0.210 HD
ATOM     69  H   IDS d 505      12.408  23.841 -17.117  0.00  0.00     0.133 H 
ATOM     70  H   IDS d 505      13.106  25.757 -15.142  0.00  0.00     0.087 H 
ATOM     71  H   IDS d 505      11.403  23.411 -14.339  0.00  0.00     0.094 H 
ATOM     72  O4S SGN d 504      12.798  25.048 -20.992  0.00  0.00    -0.572 OA
ATOM     73  C2  SGN d 504      11.864  19.313 -18.764  0.00  0.00     0.081 C 
ATOM     74  O2S SGN d 504      13.637  16.095 -19.015  0.00  0.00    -0.296 OA
ATOM     75  C5  SGN d 504      10.422  21.826 -18.486  0.00  0.00     0.091 C 
ATOM     76  O3S SGN d 504      11.796  16.268 -20.521  0.00  0.00    -0.296 OA
ATOM     77  N   SGN d 504      11.945  17.845 -18.659  0.00  0.00    -0.210 NA
ATOM     78  O1S SGN d 504      13.538  17.878 -20.603  0.00  0.00    -0.296 OA
ATOM     79  S1  SGN d 504      12.796  16.978 -19.771  0.00  0.00     0.156 S 
ATOM     80  C4  SGN d 504      11.673  21.518 -17.594  0.00  0.00     0.095 C 
ATOM     81  O1  SGN d 504       9.447  19.101 -19.122  0.00  0.00    -0.348 OA
ATOM     82  O6S SGN d 504      11.159  26.140 -19.636  0.00  0.00    -0.572 OA
ATOM     83  O6  SGN d 504      11.347  23.751 -19.576  0.00  0.00    -0.254 OA
ATOM     84  O5S SGN d 504      10.474  24.828 -21.508  0.00  0.00    -0.572 OA
ATOM     85  O3  SGN d 504      12.858  19.665 -16.586  0.00  0.00    -0.391 OA
ATOM     86  O5  SGN d 504      10.487  21.093 -19.740  0.00  0.00    -0.349 OA
ATOM     87  C6  SGN d 504      10.225  23.307 -18.842  0.00  0.00     0.067 C 
ATOM     88  S2  SGN d 504      11.460  25.021 -20.480  0.00  0.00     0.251 S 
ATOM     89  C3  SGN d 504      11.731  19.986 -17.379  0.00  0.00     0.083 C 
ATOM     90  C1  SGN d 504      10.630  19.674 -19.636  0.00  0.00     0.150 C 
ATOM     91  H   SGN d 504      12.768  19.672 -19.208  0.00  0.00     0.076 H 
ATOM     92  H   SGN d 504      13.085  15.509 -18.471  0.00  0.00     0.231 HD
ATOM     93  H   SGN d 504       9.596  21.520 -17.878  0.00  0.00     0.090 H 
ATOM     94  H   SGN d 504      11.314  15.670 -19.931  0.00  0.00     0.231 HD
ATOM     95  H   SGN d 504      10.987  17.496 -18.686  0.00  0.00     0.140 HD
ATOM     96  H   SGN d 504      14.041  17.371 -21.260  0.00  0.00     0.231 HD
ATOM     97  H   SGN d 504      12.408  22.029 -18.182  0.00  0.00     0.091 H 
ATOM     98  H   SGN d 504      12.896  18.705 -16.450  0.00  0.00     0.210 HD
ATOM     99  H   SGN d 504      10.130  23.883 -17.946  0.00  0.00     0.080 H 
ATOM    100  H   SGN d 504       9.337  23.424 -19.428  0.00  0.00     0.080 H 
ATOM    101  H   SGN d 504      10.847  19.643 -16.883  0.00  0.00     0.089 H 
ATOM    102  H   SGN d 504      10.796  19.269 -20.613  0.00  0.00     0.131 H 
ATOM    103  C1  IDS d 501      -2.393  13.220 -20.463  0.00  0.00     0.156 C 
ATOM    104  O3  IDS d 501      -0.130  13.281 -18.247  0.00  0.00    -0.390 OA
ATOM    105  C2  IDS d 501      -2.347  13.839 -19.039  0.00  0.00     0.110 C 
ATOM    106  C4  IDS d 501      -0.226  15.144 -19.767  0.00  0.00     0.103 C 
ATOM    107  C6  IDS d 501       0.346  14.970 -22.295  0.00  0.00     0.206 C 
ATOM    108  C3  IDS d 501      -0.947  14.372 -18.624  0.00  0.00     0.092 C 
ATOM    109  O5  IDS d 501      -1.701  14.060 -21.385  0.00  0.00    -0.340 OA
ATOM    110  O2  IDS d 501      -3.267  14.914 -19.000  0.00  0.00    -0.388 OA
ATOM    111  C5  IDS d 501      -0.319  14.322 -21.082  0.00  0.00     0.152 C 
ATOM    112  O62 IDS d 501       1.457  14.639 -22.638  0.00  0.00    -0.646 OA
ATOM    113  O61 IDS d 501      -0.213  15.828 -22.942  0.00  0.00    -0.646 OA
ATOM    114  O1  IDS d 501      -1.851  11.926 -20.414  0.00  0.00    -0.368 OA
ATOM    115  H   IDS d 501      -3.404  13.146 -20.805  0.00  0.00     0.133 H 
ATOM    116  H   IDS d 501      -0.561  12.785 -17.534  0.00  0.00     0.210 HD
ATOM    117  H   IDS d 501      -2.593  13.058 -18.349  0.00  0.00     0.094 H 
ATOM    118  H   IDS d 501      -0.714  16.048 -19.471  0.00  0.00     0.092 H 
ATOM    119  H   IDS d 501      -1.101  15.053 -17.814  0.00  0.00     0.091 H 
ATOM    120  H   IDS d 501      -3.000  15.592 -19.640  0.00  0.00     0.210 HD
ATOM    121  H   IDS d 501       0.225  13.419 -20.896  0.00  0.00     0.104 H 
ATOM    122  H   IDS d 501      -0.932  11.972 -20.106  0.00  0.00     0.212 HD
ATOM    123  O3  IDS d 535      12.063  25.789 -13.376  0.00  0.00    -0.393 OA
ATOM    124  H   IDS d 535      12.675  26.409 -12.950  0.00  0.00     0.210 HD
ENDROOT
TORSDOF 37
ENDMDL
MODEL 19
REMARK VINA RESULT:      -6.6      3.909     12.204
REMARK  0 active torsions:
REMARK  status: ('A' for Active; 'I' for Inactive)
REMARK       I    between atoms: O3_1  and  C3_48 
REMARK       I    between atoms: C1_2  and  O1_8 
REMARK       I    between atoms: O2_5  and  C2_76 
REMARK       I    between atoms: O2_5  and  S_66 
REMARK       I    between atoms: C2_7  and  N_46 
REMARK       I    between atoms: O1_8  and  C4_39 
REMARK       I    between atoms: C2_12  and  N_23 
REMARK       I    between atoms: O2S_13  and  S1_25 
REMARK       I    between atoms: C1_14  and  O1_65 
REMARK       I    between atoms: O3_15  and  C3_69 
REMARK       I    between atoms: C5_16  and  C6_31 
REMARK       I    between atoms: C5_17  and  C6_68 
REMARK       I    between atoms: C5_18  and  C6_71 
REMARK       I    between atoms: O3S_19  and  S1_25 
REMARK       I    between atoms: C6_20  and  C5_28 
REMARK       I    between atoms: C6_20  and  O6_74 
REMARK       I    between atoms: C4_21  and  O1_35 
REMARK       I    between atoms: S2_22  and  O6_74 
REMARK       I    between atoms: N_23  and  S1_25 
REMARK       I    between atoms: O1S_24  and  S1_25 
REMARK       I    between atoms: C4_27  and  O1_63 
REMARK       I    between atoms: O1_29  and  C4_49 
REMARK       I    between atoms: O1_29  and  C1_73 
REMARK       I    between atoms: O2_30  and  C2_78 
REMARK       I    between atoms: O3_33  and  C3_42 
REMARK       I    between atoms: O1_35  and  C1_77 
REMARK       I    between atoms: O3S_37  and  S1_50 
REMARK       I    between atoms: C2_38  and  O2_45 
REMARK       I    between atoms: C6_40  and  C5_51 
REMARK       I    between atoms: C3_41  and  O3_67 
REMARK       I    between atoms: N_46  and  S1_50 
REMARK       I    between atoms: O6_47  and  C6_71 
REMARK       I    between atoms: O6_47  and  S2_72 
REMARK       I    between atoms: S1_50  and  O1S_61 
REMARK       I    between atoms: S1_50  and  O2S_54 
REMARK       I    between atoms: O3_56  and  C3_75 
REMARK       I    between atoms: C1_58  and  O1_63 
ROOT
ATOM      1  O3  SGN d 502       7.884  17.065 -22.885  0.00  0.00    -0.391 OA
ATOM      2  C1  SGN d 502      10.750  14.690 -22.286  0.00  0.00     0.150 C 
ATOM      3  O6S SGN d 502       9.096  13.993 -16.123  0.00  0.00    -0.572 OA
ATOM      4  C2  SGN d 502       9.448  15.227 -22.941  0.00  0.00     0.081 C 
ATOM      5  O1  SGN d 502      11.851  15.523 -22.586  0.00  0.00    -0.348 OA
ATOM      6  O5  SGN d 502      10.586  14.578 -20.865  0.00  0.00    -0.349 OA
ATOM      7  C6  SGN d 502      10.093  15.445 -18.670  0.00  0.00     0.067 C 
ATOM      8  S2  SGN d 502       8.800  13.461 -17.421  0.00  0.00     0.251 S 
ATOM      9  C5  SGN d 502      10.166  15.783 -20.172  0.00  0.00     0.091 C 
ATOM     10  O3S SGN d 502       9.970  13.062 -25.161  0.00  0.00    -0.296 OA
ATOM     11  N   SGN d 502       9.672  15.356 -24.388  0.00  0.00    -0.210 NA
ATOM     12  C3  SGN d 502       9.075  16.577 -22.298  0.00  0.00     0.083 C 
ATOM     13  C4  SGN d 502       8.841  16.336 -20.789  0.00  0.00     0.095 C 
ATOM     14  S1  SGN d 502       9.115  14.191 -25.399  0.00  0.00     0.156 S 
ATOM     15  O2S SGN d 502       9.264  14.720 -26.723  0.00  0.00    -0.296 OA
ATOM     16  O4S SGN d 502       7.457  12.979 -17.532  0.00  0.00    -0.572 OA
ATOM     17  O1S SGN d 502       7.754  13.904 -25.062  0.00  0.00    -0.296 OA
ATOM     18  O5S SGN d 502       9.774  12.500 -17.854  0.00  0.00    -0.572 OA
ATOM     19  O6  SGN d 502       8.946  14.653 -18.424  0.00  0.00    -0.254 OA
ATOM     20  H   SGN d 502       8.028  17.218 -23.831  0.00  0.00     0.210 HD
ATOM     21  H   SGN d 502      10.946  13.719 -22.689  0.00  0.00     0.131 H 
ATOM     22  H   SGN d 502       8.632  14.553 -22.783  0.00  0.00     0.076 H 
ATOM     23  H   SGN d 502      10.031  16.350 -18.103  0.00  0.00     0.080 H 
ATOM     24  H   SGN d 502      10.971  14.906 -18.382  0.00  0.00     0.080 H 
ATOM     25  H   SGN d 502      10.865  16.585 -20.290  0.00  0.00     0.090 H 
ATOM     26  H   SGN d 502       9.836  12.740 -24.257  0.00  0.00     0.231 HD
ATOM     27  H   SGN d 502      10.681  15.413 -24.529  0.00  0.00     0.140 HD
ATOM     28  H   SGN d 502       9.858  17.291 -22.449  0.00  0.00     0.089 H 
ATOM     29  H   SGN d 502       8.097  15.614 -20.526  0.00  0.00     0.091 H 
ATOM     30  H   SGN d 502      10.202  14.896 -26.898  0.00  0.00     0.231 HD
ATOM     31  H   SGN d 502       7.712  13.550 -24.159  0.00  0.00     0.231 HD
ATOM     32  O62 IDS d 503       4.445  18.889 -22.896  0.00  0.00    -0.646 OA
ATOM     33  O2  IDS d 503       6.840  18.797 -17.366  0.00  0.00    -0.244 OA
ATOM     34  O5  IDS d 503       6.123  17.638 -20.089  0.00  0.00    -0.340 OA
ATOM     35  C5  IDS d 503       5.807  18.743 -20.948  0.00  0.00     0.152 C 
ATOM     36  C4  IDS d 503       5.621  20.012 -20.085  0.00  0.00     0.103 C 
ATOM     37  O61 IDS d 503       3.787  17.555 -21.452  0.00  0.00    -0.646 OA
ATOM     38  O1  IDS d 503       8.456  17.630 -20.329  0.00  0.00    -0.348 OA
ATOM     39  C6  IDS d 503       4.607  18.372 -21.815  0.00  0.00     0.206 C 
ATOM     40  O1S IDS d 503       8.197  19.607 -15.561  0.00  0.00    -0.572 OA
ATOM     41  O3S IDS d 503       8.313  17.304 -16.184  0.00  0.00    -0.572 OA
ATOM     42  C3  IDS d 503       6.917  20.278 -19.271  0.00  0.00     0.094 C 
ATOM     43  O2S IDS d 503       6.352  18.146 -15.129  0.00  0.00    -0.572 OA
ATOM     44  S   IDS d 503       7.471  18.445 -15.978  0.00  0.00     0.252 S 
ATOM     45  O3  IDS d 503       7.887  20.816 -20.150  0.00  0.00    -0.390 OA
ATOM     46  C1  IDS d 503       7.382  17.699 -19.430  0.00  0.00     0.161 C 
ATOM     47  C2  IDS d 503       7.504  19.005 -18.597  0.00  0.00     0.134 C 
ATOM     48  H   IDS d 503       6.601  18.966 -21.630  0.00  0.00     0.104 H 
ATOM     49  H   IDS d 503       5.391  20.796 -20.776  0.00  0.00     0.092 H 
ATOM     50  H   IDS d 503       6.663  20.954 -18.481  0.00  0.00     0.091 H 
ATOM     51  H   IDS d 503       8.084  20.172 -20.847  0.00  0.00     0.210 HD
ATOM     52  H   IDS d 503       7.429  16.848 -18.784  0.00  0.00     0.133 H 
ATOM     53  H   IDS d 503       8.551  19.196 -18.487  0.00  0.00     0.097 H 
ATOM     54  C4  IDS d 505      -3.893  18.051 -17.923  0.00  0.00    -0.005 C 
ATOM     55  C5  IDS d 505      -2.891  18.949 -17.125  0.00  0.00     0.127 C 
ATOM     56  O2  IDS d 505      -1.666  17.802 -20.964  0.00  0.00    -0.388 OA
ATOM     57  O62 IDS d 505      -3.819  20.949 -16.169  0.00  0.00    -0.646 OA
ATOM     58  C1  IDS d 505      -1.379  19.248 -19.051  0.00  0.00     0.159 C 
ATOM     59  O5  IDS d 505      -2.202  19.841 -18.033  0.00  0.00    -0.343 OA
ATOM     60  O1  IDS d 505      -0.089  18.975 -18.576  0.00  0.00    -0.348 OA
ATOM     61  O61 IDS d 505      -3.887  19.250 -14.981  0.00  0.00    -0.646 OA
ATOM     62  C6  IDS d 505      -3.571  19.768 -16.028  0.00  0.00     0.203 C 
ATOM     63  C3  IDS d 505      -3.500  17.914 -19.417  0.00  0.00     0.068 C 
ATOM     64  C2  IDS d 505      -1.973  17.919 -19.587  0.00  0.00     0.107 C 
ATOM     65  H   IDS d 505      -3.910  17.077 -17.480  0.00  0.00     0.041 H 
ATOM     66  H   IDS d 505      -4.856  18.516 -17.880  0.00  0.00     0.041 H 
ATOM     67  H   IDS d 505      -2.197  18.290 -16.647  0.00  0.00     0.100 H 
ATOM     68  H   IDS d 505      -0.703  17.804 -21.081  0.00  0.00     0.210 HD
ATOM     69  H   IDS d 505      -1.340  19.968 -19.842  0.00  0.00     0.133 H 
ATOM     70  H   IDS d 505      -3.898  18.744 -19.963  0.00  0.00     0.087 H 
ATOM     71  H   IDS d 505      -1.555  17.100 -19.038  0.00  0.00     0.094 H 
ATOM     72  O4S SGN d 504      -0.901  23.406 -21.990  0.00  0.00    -0.572 OA
ATOM     73  C2  SGN d 504       2.884  20.980 -17.686  0.00  0.00     0.081 C 
ATOM     74  O2S SGN d 504       4.293  22.150 -14.491  0.00  0.00    -0.296 OA
ATOM     75  C5  SGN d 504       1.785  19.966 -20.183  0.00  0.00     0.091 C 
ATOM     76  O3S SGN d 504       5.812  22.366 -16.317  0.00  0.00    -0.296 OA
ATOM     77  N   SGN d 504       3.855  20.924 -16.578  0.00  0.00    -0.210 NA
ATOM     78  O1S SGN d 504       3.691  23.428 -16.420  0.00  0.00    -0.296 OA
ATOM     79  S1  SGN d 504       4.435  22.313 -15.910  0.00  0.00     0.156 S 
ATOM     80  C4  SGN d 504       0.942  19.927 -18.863  0.00  0.00     0.095 C 
ATOM     81  O1  SGN d 504       4.555  19.918 -19.133  0.00  0.00    -0.348 OA
ATOM     82  O6S SGN d 504      -1.290  21.374 -23.190  0.00  0.00    -0.572 OA
ATOM     83  O6  SGN d 504       0.301  21.407 -21.397  0.00  0.00    -0.254 OA
ATOM     84  O5S SGN d 504       0.785  22.526 -23.439  0.00  0.00    -0.572 OA
ATOM     85  O3  SGN d 504       1.204  19.739 -16.465  0.00  0.00    -0.391 OA
ATOM     86  O5  SGN d 504       2.771  21.033 -20.136  0.00  0.00    -0.349 OA
ATOM     87  C6  SGN d 504       0.971  20.165 -21.470  0.00  0.00     0.067 C 
ATOM     88  S2  SGN d 504      -0.321  22.231 -22.570  0.00  0.00     0.251 S 
ATOM     89  C3  SGN d 504       1.929  19.766 -17.680  0.00  0.00     0.083 C 
ATOM     90  C1  SGN d 504       3.672  21.013 -19.025  0.00  0.00     0.150 C 
ATOM     91  H   SGN d 504       2.286  21.859 -17.569  0.00  0.00     0.076 H 
ATOM     92  H   SGN d 504       4.814  21.386 -14.200  0.00  0.00     0.231 HD
ATOM     93  H   SGN d 504       2.236  18.996 -20.225  0.00  0.00     0.090 H 
ATOM     94  H   SGN d 504       6.285  21.601 -15.956  0.00  0.00     0.231 HD
ATOM     95  H   SGN d 504       4.663  20.405 -16.922  0.00  0.00     0.140 HD
ATOM     96  H   SGN d 504       4.030  24.249 -16.029  0.00  0.00     0.231 HD
ATOM     97  H   SGN d 504       0.387  20.831 -19.011  0.00  0.00     0.091 H 
ATOM     98  H   SGN d 504       1.821  19.638 -15.723  0.00  0.00     0.210 HD
ATOM     99  H   SGN d 504       0.255  19.375 -21.569  0.00  0.00     0.080 H 
ATOM    100  H   SGN d 504       1.623  20.152 -22.318  0.00  0.00     0.080 H 
ATOM    101  H   SGN d 504       2.483  18.856 -17.775  0.00  0.00     0.089 H 
ATOM    102  H   SGN d 504       4.255  21.910 -19.034  0.00  0.00     0.131 H 
ATOM    103  C1  IDS d 501      16.069  14.323 -22.700  0.00  0.00     0.156 C 
ATOM    104  O3  IDS d 501      13.860  13.760 -20.500  0.00  0.00    -0.390 OA
ATOM    105  C2  IDS d 501      15.034  13.177 -22.533  0.00  0.00     0.110 C 
ATOM    106  C4  IDS d 501      13.173  14.983 -22.455  0.00  0.00     0.103 C 
ATOM    107  C6  IDS d 501      13.971  17.394 -22.999  0.00  0.00     0.206 C 
ATOM    108  C3  IDS d 501      13.688  13.625 -21.897  0.00  0.00     0.092 C 
ATOM    109  O5  IDS d 501      15.434  15.483 -23.235  0.00  0.00    -0.340 OA
ATOM    110  O2  IDS d 501      14.767  12.639 -23.816  0.00  0.00    -0.388 OA
ATOM    111  C5  IDS d 501      14.337  16.010 -22.466  0.00  0.00     0.152 C 
ATOM    112  O62 IDS d 501      13.712  18.298 -22.239  0.00  0.00    -0.646 OA
ATOM    113  O61 IDS d 501      13.927  17.624 -24.188  0.00  0.00    -0.646 OA
ATOM    114  O1  IDS d 501      16.673  14.575 -21.458  0.00  0.00    -0.368 OA
ATOM    115  H   IDS d 501      16.833  14.038 -23.392  0.00  0.00     0.133 H 
ATOM    116  H   IDS d 501      14.181  12.923 -20.131  0.00  0.00     0.210 HD
ATOM    117  H   IDS d 501      15.464  12.460 -21.865  0.00  0.00     0.094 H 
ATOM    118  H   IDS d 501      12.682  14.473 -23.257  0.00  0.00     0.092 H 
ATOM    119  H   IDS d 501      12.965  12.875 -22.139  0.00  0.00     0.091 H 
ATOM    120  H   IDS d 501      14.380  13.326 -24.380  0.00  0.00     0.210 HD
ATOM    121  H   IDS d 501      14.604  16.153 -21.439  0.00  0.00     0.104 H 
ATOM    122  H   IDS d 501      15.994  14.835 -20.816  0.00  0.00     0.212 HD
ATOM    123  O3  IDS d 535      -4.025  16.697 -19.907  0.00  0.00    -0.393 OA
ATOM    124  H   IDS d 535      -4.989  16.695 -19.799  0.00  0.00     0.210 HD
ENDROOT
TORSDOF 37
ENDMDL
MODEL 20
REMARK VINA RESULT:      -6.6      3.069     13.029
REMARK  0 active torsions:
REMARK  status: ('A' for Active; 'I' for Inactive)
REMARK       I    between atoms: O3_1  and  C3_48 
REMARK       I    between atoms: C1_2  and  O1_8 
REMARK       I    between atoms: O2_5  and  C2_76 
REMARK       I    between atoms: O2_5  and  S_66 
REMARK       I    between atoms: C2_7  and  N_46 
REMARK       I    between atoms: O1_8  and  C4_39 
REMARK       I    between atoms: C2_12  and  N_23 
REMARK       I    between atoms: O2S_13  and  S1_25 
REMARK       I    between atoms: C1_14  and  O1_65 
REMARK       I    between atoms: O3_15  and  C3_69 
REMARK       I    between atoms: C5_16  and  C6_31 
REMARK       I    between atoms: C5_17  and  C6_68 
REMARK       I    between atoms: C5_18  and  C6_71 
REMARK       I    between atoms: O3S_19  and  S1_25 
REMARK       I    between atoms: C6_20  and  C5_28 
REMARK       I    between atoms: C6_20  and  O6_74 
REMARK       I    between atoms: C4_21  and  O1_35 
REMARK       I    between atoms: S2_22  and  O6_74 
REMARK       I    between atoms: N_23  and  S1_25 
REMARK       I    between atoms: O1S_24  and  S1_25 
REMARK       I    between atoms: C4_27  and  O1_63 
REMARK       I    between atoms: O1_29  and  C4_49 
REMARK       I    between atoms: O1_29  and  C1_73 
REMARK       I    between atoms: O2_30  and  C2_78 
REMARK       I    between atoms: O3_33  and  C3_42 
REMARK       I    between atoms: O1_35  and  C1_77 
REMARK       I    between atoms: O3S_37  and  S1_50 
REMARK       I    between atoms: C2_38  and  O2_45 
REMARK       I    between atoms: C6_40  and  C5_51 
REMARK       I    between atoms: C3_41  and  O3_67 
REMARK       I    between atoms: N_46  and  S1_50 
REMARK       I    between atoms: O6_47  and  C6_71 
REMARK       I    between atoms: O6_47  and  S2_72 
REMARK       I    between atoms: S1_50  and  O1S_61 
REMARK       I    between atoms: S1_50  and  O2S_54 
REMARK       I    between atoms: O3_56  and  C3_75 
REMARK       I    between atoms: C1_58  and  O1_63 
ROOT
ATOM      1  O3  SGN d 502       6.620  19.377 -20.870  0.00  0.00    -0.391 OA
ATOM      2  C1  SGN d 502       9.609  18.495 -18.747  0.00  0.00     0.150 C 
ATOM      3  O6S SGN d 502       6.736  13.159 -16.632  0.00  0.00    -0.572 OA
ATOM      4  C2  SGN d 502       8.822  18.828 -20.044  0.00  0.00     0.081 C 
ATOM      5  O1  SGN d 502       9.656  19.610 -17.881  0.00  0.00    -0.348 OA
ATOM      6  O5  SGN d 502       9.019  17.371 -18.078  0.00  0.00    -0.349 OA
ATOM      7  C6  SGN d 502       7.199  16.197 -17.020  0.00  0.00     0.067 C 
ATOM      8  S2  SGN d 502       7.531  13.635 -17.726  0.00  0.00     0.251 S 
ATOM      9  C5  SGN d 502       7.606  17.485 -17.762  0.00  0.00     0.091 C 
ATOM     10  O3S SGN d 502      11.650  19.227 -21.360  0.00  0.00    -0.296 OA
ATOM     11  N   SGN d 502       9.440  20.002 -20.678  0.00  0.00    -0.210 NA
ATOM     12  C3  SGN d 502       7.344  19.083 -19.690  0.00  0.00     0.083 C 
ATOM     13  C4  SGN d 502       6.779  17.793 -19.052  0.00  0.00     0.095 C 
ATOM     14  S1  SGN d 502      10.465  19.792 -21.941  0.00  0.00     0.156 S 
ATOM     15  O2S SGN d 502      10.691  21.101 -22.481  0.00  0.00    -0.296 OA
ATOM     16  O4S SGN d 502       7.268  12.941 -18.949  0.00  0.00    -0.572 OA
ATOM     17  O1S SGN d 502       9.858  18.898 -22.880  0.00  0.00    -0.296 OA
ATOM     18  O5S SGN d 502       8.929  13.686 -17.404  0.00  0.00    -0.572 OA
ATOM     19  O6  SGN d 502       7.121  15.129 -17.946  0.00  0.00    -0.254 OA
ATOM     20  H   SGN d 502       6.973  20.186 -21.272  0.00  0.00     0.210 HD
ATOM     21  H   SGN d 502      10.611  18.245 -19.025  0.00  0.00     0.131 H 
ATOM     22  H   SGN d 502       8.857  18.012 -20.735  0.00  0.00     0.076 H 
ATOM     23  H   SGN d 502       6.246  16.338 -16.556  0.00  0.00     0.080 H 
ATOM     24  H   SGN d 502       7.928  15.970 -16.271  0.00  0.00     0.080 H 
ATOM     25  H   SGN d 502       7.399  18.310 -17.114  0.00  0.00     0.090 H 
ATOM     26  H   SGN d 502      11.450  18.345 -21.009  0.00  0.00     0.231 HD
ATOM     27  H   SGN d 502       9.963  20.491 -19.951  0.00  0.00     0.140 HD
ATOM     28  H   SGN d 502       7.259  19.907 -19.013  0.00  0.00     0.089 H 
ATOM     29  H   SGN d 502       6.843  16.898 -19.635  0.00  0.00     0.091 H 
ATOM     30  H   SGN d 502      11.102  21.663 -21.805  0.00  0.00     0.231 HD
ATOM     31  H   SGN d 502       9.728  18.031 -22.464  0.00  0.00     0.231 HD
ATOM     32  O62 IDS d 503       3.517  19.303 -23.218  0.00  0.00    -0.646 OA
ATOM     33  O2  IDS d 503       2.482  16.213 -18.148  0.00  0.00    -0.244 OA
ATOM     34  O5  IDS d 503       4.136  17.151 -20.527  0.00  0.00    -0.340 OA
ATOM     35  C5  IDS d 503       3.499  18.327 -21.046  0.00  0.00     0.152 C 
ATOM     36  C4  IDS d 503       2.084  18.442 -20.434  0.00  0.00     0.103 C 
ATOM     37  O61 IDS d 503       3.595  17.232 -23.176  0.00  0.00    -0.646 OA
ATOM     38  O1  IDS d 503       5.414  18.137 -18.824  0.00  0.00    -0.348 OA
ATOM     39  C6  IDS d 503       3.539  18.281 -22.571  0.00  0.00     0.206 C 
ATOM     40  O1S IDS d 503       1.798  15.928 -15.866  0.00  0.00    -0.572 OA
ATOM     41  O3S IDS d 503       3.860  14.979 -16.607  0.00  0.00    -0.572 OA
ATOM     42  C3  IDS d 503       2.194  18.493 -18.885  0.00  0.00     0.094 C 
ATOM     43  O2S IDS d 503       1.797  14.070 -17.373  0.00  0.00    -0.572 OA
ATOM     44  S   IDS d 503       2.487  15.244 -16.919  0.00  0.00     0.252 S 
ATOM     45  O3  IDS d 503       2.640  19.786 -18.517  0.00  0.00    -0.390 OA
ATOM     46  C1  IDS d 503       4.447  17.171 -19.138  0.00  0.00     0.161 C 
ATOM     47  C2  IDS d 503       3.172  17.439 -18.293  0.00  0.00     0.134 C 
ATOM     48  H   IDS d 503       4.013  19.223 -20.768  0.00  0.00     0.104 H 
ATOM     49  H   IDS d 503       1.663  19.332 -20.854  0.00  0.00     0.092 H 
ATOM     50  H   IDS d 503       1.225  18.269 -18.490  0.00  0.00     0.091 H 
ATOM     51  H   IDS d 503       3.518  19.945 -18.897  0.00  0.00     0.210 HD
ATOM     52  H   IDS d 503       4.846  16.207 -18.902  0.00  0.00     0.133 H 
ATOM     53  H   IDS d 503       3.507  17.849 -17.363  0.00  0.00     0.097 H 
ATOM     54  C4  IDS d 505      -2.111  12.358 -27.098  0.00  0.00    -0.005 C 
ATOM     55  C5  IDS d 505      -2.621  12.709 -25.661  0.00  0.00     0.127 C 
ATOM     56  O2  IDS d 505       0.465  15.121 -27.149  0.00  0.00    -0.388 OA
ATOM     57  O62 IDS d 505      -5.000  12.951 -25.431  0.00  0.00    -0.646 OA
ATOM     58  C1  IDS d 505      -1.284  14.776 -25.520  0.00  0.00     0.159 C 
ATOM     59  O5  IDS d 505      -2.572  14.141 -25.459  0.00  0.00    -0.343 OA
ATOM     60  O1  IDS d 505      -0.628  14.729 -24.283  0.00  0.00    -0.348 OA
ATOM     61  O61 IDS d 505      -4.243  11.041 -25.146  0.00  0.00    -0.646 OA
ATOM     62  C6  IDS d 505      -4.040  12.207 -25.396  0.00  0.00     0.203 C 
ATOM     63  C3  IDS d 505      -1.186  13.459 -27.680  0.00  0.00     0.068 C 
ATOM     64  C2  IDS d 505      -0.352  14.119 -26.571  0.00  0.00     0.107 C 
ATOM     65  H   IDS d 505      -1.566  11.438 -27.055  0.00  0.00     0.041 H 
ATOM     66  H   IDS d 505      -2.965  12.277 -27.738  0.00  0.00     0.041 H 
ATOM     67  H   IDS d 505      -1.973  12.210 -24.972  0.00  0.00     0.100 H 
ATOM     68  H   IDS d 505       0.996  15.543 -26.456  0.00  0.00     0.210 HD
ATOM     69  H   IDS d 505      -1.480  15.791 -25.799  0.00  0.00     0.133 H 
ATOM     70  H   IDS d 505      -1.787  14.217 -28.140  0.00  0.00     0.087 H 
ATOM     71  H   IDS d 505       0.249  13.375 -26.091  0.00  0.00     0.094 H 
ATOM     72  O4S SGN d 504      -2.967  19.583 -25.989  0.00  0.00    -0.572 OA
ATOM     73  C2  SGN d 504      -1.024  16.396 -21.009  0.00  0.00     0.081 C 
ATOM     74  O2S SGN d 504      -2.536  15.379 -17.809  0.00  0.00    -0.296 OA
ATOM     75  C5  SGN d 504       0.234  17.131 -23.529  0.00  0.00     0.091 C 
ATOM     76  O3S SGN d 504      -1.175  17.328 -17.621  0.00  0.00    -0.296 OA
ATOM     77  N   SGN d 504      -0.957  15.927 -19.613  0.00  0.00    -0.210 NA
ATOM     78  O1S SGN d 504      -3.001  17.311 -19.138  0.00  0.00    -0.296 OA
ATOM     79  S1  SGN d 504      -1.997  16.524 -18.484  0.00  0.00     0.156 S 
ATOM     80  C4  SGN d 504      -0.711  15.884 -23.439  0.00  0.00     0.095 C 
ATOM     81  O1  SGN d 504       1.223  17.342 -20.744  0.00  0.00    -0.348 OA
ATOM     82  O6S SGN d 504      -1.123  19.028 -27.407  0.00  0.00    -0.572 OA
ATOM     83  O6  SGN d 504      -1.096  18.352 -25.107  0.00  0.00    -0.254 OA
ATOM     84  O5S SGN d 504      -0.850  20.648 -25.676  0.00  0.00    -0.572 OA
ATOM     85  O3  SGN d 504      -1.437  14.178 -21.884  0.00  0.00    -0.391 OA
ATOM     86  O5  SGN d 504      -0.099  18.107 -22.504  0.00  0.00    -0.349 OA
ATOM     87  C6  SGN d 504       0.211  17.870 -24.875  0.00  0.00     0.067 C 
ATOM     88  S2  SGN d 504      -1.544  19.466 -26.108  0.00  0.00     0.251 S 
ATOM     89  C3  SGN d 504      -0.587  15.303 -22.009  0.00  0.00     0.083 C 
ATOM     90  C1  SGN d 504      -0.096  17.633 -21.155  0.00  0.00     0.150 C 
ATOM     91  H   SGN d 504      -2.039  16.648 -21.234  0.00  0.00     0.076 H 
ATOM     92  H   SGN d 504      -1.817  14.884 -17.385  0.00  0.00     0.231 HD
ATOM     93  H   SGN d 504       1.212  16.718 -23.396  0.00  0.00     0.090 H 
ATOM     94  H   SGN d 504      -0.508  16.767 -17.196  0.00  0.00     0.231 HD
ATOM     95  H   SGN d 504      -0.014  16.131 -19.280  0.00  0.00     0.140 HD
ATOM     96  H   SGN d 504      -3.616  17.665 -18.476  0.00  0.00     0.231 HD
ATOM     97  H   SGN d 504      -1.613  16.352 -23.777  0.00  0.00     0.091 H 
ATOM     98  H   SGN d 504      -1.361  13.813 -20.988  0.00  0.00     0.210 HD
ATOM     99  H   SGN d 504       0.491  17.198 -25.659  0.00  0.00     0.080 H 
ATOM    100  H   SGN d 504       0.902  18.686 -24.853  0.00  0.00     0.080 H 
ATOM    101  H   SGN d 504       0.420  15.001 -21.813  0.00  0.00     0.089 H 
ATOM    102  H   SGN d 504      -0.478  18.401 -20.515  0.00  0.00     0.131 H 
ATOM    103  C1  IDS d 501      12.731  20.433 -14.862  0.00  0.00     0.156 C 
ATOM    104  O3  IDS d 501      11.130  17.763 -15.449  0.00  0.00    -0.390 OA
ATOM    105  C2  IDS d 501      13.010  19.240 -15.818  0.00  0.00     0.110 C 
ATOM    106  C4  IDS d 501      10.675  19.649 -16.872  0.00  0.00     0.103 C 
ATOM    107  C6  IDS d 501       9.476  21.807 -16.062  0.00  0.00     0.206 C 
ATOM    108  C3  IDS d 501      11.729  18.598 -16.421  0.00  0.00     0.092 C 
ATOM    109  O5  IDS d 501      11.756  21.303 -15.435  0.00  0.00    -0.340 OA
ATOM    110  O2  IDS d 501      13.818  19.712 -16.881  0.00  0.00    -0.388 OA
ATOM    111  C5  IDS d 501      10.486  20.704 -15.748  0.00  0.00     0.152 C 
ATOM    112  O62 IDS d 501       8.344  21.743 -15.642  0.00  0.00    -0.646 OA
ATOM    113  O61 IDS d 501       9.776  22.767 -16.737  0.00  0.00    -0.646 OA
ATOM    114  O1  IDS d 501      12.326  19.931 -13.616  0.00  0.00    -0.368 OA
ATOM    115  H   IDS d 501      13.620  21.011 -14.717  0.00  0.00     0.133 H 
ATOM    116  H   IDS d 501      11.772  17.098 -15.154  0.00  0.00     0.210 HD
ATOM    117  H   IDS d 501      13.490  18.479 -15.239  0.00  0.00     0.094 H 
ATOM    118  H   IDS d 501      11.149  19.723 -17.828  0.00  0.00     0.092 H 
ATOM    119  H   IDS d 501      12.035  18.047 -17.286  0.00  0.00     0.091 H 
ATOM    120  H   IDS d 501      13.340  20.397 -17.372  0.00  0.00     0.210 HD
ATOM    121  H   IDS d 501      10.084  20.167 -14.914  0.00  0.00     0.104 H 
ATOM    122  H   IDS d 501      11.520  19.403 -13.726  0.00  0.00     0.212 HD
ATOM    123  O3  IDS d 535      -0.324  12.864 -28.627  0.00  0.00    -0.393 OA
ATOM    124  H   IDS d 535      -0.851  12.447 -29.326  0.00  0.00     0.210 HD
ENDROOT
TORSDOF 37
ENDMDL
MODEL 21
REMARK VINA RESULT:      -6.5      2.924     12.841
REMARK  0 active torsions:
REMARK  status: ('A' for Active; 'I' for Inactive)
REMARK       I    between atoms: O3_1  and  C3_48 
REMARK       I    between atoms: C1_2  and  O1_8 
REMARK       I    between atoms: O2_5  and  C2_76 
REMARK       I    between atoms: O2_5  and  S_66 
REMARK       I    between atoms: C2_7  and  N_46 
REMARK       I    between atoms: O1_8  and  C4_39 
REMARK       I    between atoms: C2_12  and  N_23 
REMARK       I    between atoms: O2S_13  and  S1_25 
REMARK       I    between atoms: C1_14  and  O1_65 
REMARK       I    between atoms: O3_15  and  C3_69 
REMARK       I    between atoms: C5_16  and  C6_31 
REMARK       I    between atoms: C5_17  and  C6_68 
REMARK       I    between atoms: C5_18  and  C6_71 
REMARK       I    between atoms: O3S_19  and  S1_25 
REMARK       I    between atoms: C6_20  and  C5_28 
REMARK       I    between atoms: C6_20  and  O6_74 
REMARK       I    between atoms: C4_21  and  O1_35 
REMARK       I    between atoms: S2_22  and  O6_74 
REMARK       I    between atoms: N_23  and  S1_25 
REMARK       I    between atoms: O1S_24  and  S1_25 
REMARK       I    between atoms: C4_27  and  O1_63 
REMARK       I    between atoms: O1_29  and  C4_49 
REMARK       I    between atoms: O1_29  and  C1_73 
REMARK       I    between atoms: O2_30  and  C2_78 
REMARK       I    between atoms: O3_33  and  C3_42 
REMARK       I    between atoms: O1_35  and  C1_77 
REMARK       I    between atoms: O3S_37  and  S1_50 
REMARK       I    between atoms: C2_38  and  O2_45 
REMARK       I    between atoms: C6_40  and  C5_51 
REMARK       I    between atoms: C3_41  and  O3_67 
REMARK       I    between atoms: N_46  and  S1_50 
REMARK       I    between atoms: O6_47  and  C6_71 
REMARK       I    between atoms: O6_47  and  S2_72 
REMARK       I    between atoms: S1_50  and  O1S_61 
REMARK       I    between atoms: S1_50  and  O2S_54 
REMARK       I    between atoms: O3_56  and  C3_75 
REMARK       I    between atoms: C1_58  and  O1_63 
ROOT
ATOM      1  O3  SGN d 502       9.560  20.037 -19.188  0.00  0.00    -0.391 OA
ATOM      2  C1  SGN d 502      12.904  18.460 -19.929  0.00  0.00     0.150 C 
ATOM      3  O6S SGN d 502      10.414  12.564 -19.436  0.00  0.00    -0.572 OA
ATOM      4  C2  SGN d 502      11.655  19.350 -20.174  0.00  0.00     0.081 C 
ATOM      5  O1  SGN d 502      13.672  18.947 -18.848  0.00  0.00    -0.348 OA
ATOM      6  O5  SGN d 502      12.511  17.101 -19.686  0.00  0.00    -0.349 OA
ATOM      7  C6  SGN d 502      11.315  15.377 -18.502  0.00  0.00     0.067 C 
ATOM      8  S2  SGN d 502      10.592  13.620 -20.390  0.00  0.00     0.251 S 
ATOM      9  C5  SGN d 502      11.560  16.894 -18.608  0.00  0.00     0.091 C 
ATOM     10  O3S SGN d 502      13.346  20.654 -22.482  0.00  0.00    -0.296 OA
ATOM     11  N   SGN d 502      12.102  20.735 -20.386  0.00  0.00    -0.210 NA
ATOM     12  C3  SGN d 502      10.705  19.235 -18.966  0.00  0.00     0.083 C 
ATOM     13  C4  SGN d 502      10.276  17.756 -18.837  0.00  0.00     0.095 C 
ATOM     14  S1  SGN d 502      12.210  21.323 -21.912  0.00  0.00     0.156 S 
ATOM     15  O2S SGN d 502      12.422  22.735 -21.771  0.00  0.00    -0.296 OA
ATOM     16  O4S SGN d 502       9.560  13.655 -21.381  0.00  0.00    -0.572 OA
ATOM     17  O1S SGN d 502      11.003  21.007 -22.613  0.00  0.00    -0.296 OA
ATOM     18  O5S SGN d 502      11.910  13.628 -20.958  0.00  0.00    -0.572 OA
ATOM     19  O6  SGN d 502      10.501  14.957 -19.581  0.00  0.00    -0.254 OA
ATOM     20  H   SGN d 502       9.827  20.966 -19.268  0.00  0.00     0.210 HD
ATOM     21  H   SGN d 502      13.510  18.492 -20.810  0.00  0.00     0.131 H 
ATOM     22  H   SGN d 502      11.119  19.030 -21.043  0.00  0.00     0.076 H 
ATOM     23  H   SGN d 502      10.822  15.158 -17.577  0.00  0.00     0.080 H 
ATOM     24  H   SGN d 502      12.250  14.859 -18.535  0.00  0.00     0.080 H 
ATOM     25  H   SGN d 502      11.935  17.228 -17.664  0.00  0.00     0.090 H 
ATOM     26  H   SGN d 502      13.158  19.706 -22.557  0.00  0.00     0.231 HD
ATOM     27  H   SGN d 502      13.030  20.813 -19.971  0.00  0.00     0.140 HD
ATOM     28  H   SGN d 502      11.195  19.565 -18.074  0.00  0.00     0.089 H 
ATOM     29  H   SGN d 502       9.802  17.315 -19.689  0.00  0.00     0.091 H 
ATOM     30  H   SGN d 502      13.250  22.892 -21.291  0.00  0.00     0.231 HD
ATOM     31  H   SGN d 502      10.911  20.043 -22.679  0.00  0.00     0.231 HD
ATOM     32  O62 IDS d 503       5.774  20.916 -18.988  0.00  0.00    -0.646 OA
ATOM     33  O2  IDS d 503       6.890  15.531 -16.522  0.00  0.00    -0.244 OA
ATOM     34  O5  IDS d 503       7.191  17.738 -18.598  0.00  0.00    -0.340 OA
ATOM     35  C5  IDS d 503       6.681  18.943 -18.010  0.00  0.00     0.152 C 
ATOM     36  C4  IDS d 503       5.886  18.581 -16.734  0.00  0.00     0.103 C 
ATOM     37  O61 IDS d 503       5.361  19.154 -19.999  0.00  0.00    -0.646 OA
ATOM     38  O1  IDS d 503       9.372  17.794 -17.735  0.00  0.00    -0.348 OA
ATOM     39  C6  IDS d 503       5.891  19.714 -19.063  0.00  0.00     0.206 C 
ATOM     40  O1S IDS d 503       7.481  14.019 -14.755  0.00  0.00    -0.572 OA
ATOM     41  O3S IDS d 503       8.531  13.809 -16.889  0.00  0.00    -0.572 OA
ATOM     42  C3  IDS d 503       6.812  17.816 -15.748  0.00  0.00     0.094 C 
ATOM     43  O2S IDS d 503       6.231  13.247 -16.643  0.00  0.00    -0.572 OA
ATOM     44  S   IDS d 503       7.314  14.065 -16.177  0.00  0.00     0.252 S 
ATOM     45  O3  IDS d 503       7.681  18.755 -15.142  0.00  0.00    -0.390 OA
ATOM     46  C1  IDS d 503       8.188  17.052 -17.849  0.00  0.00     0.161 C 
ATOM     47  C2  IDS d 503       7.667  16.709 -16.426  0.00  0.00     0.134 C 
ATOM     48  H   IDS d 503       7.462  19.601 -17.692  0.00  0.00     0.104 H 
ATOM     49  H   IDS d 503       5.534  19.512 -16.342  0.00  0.00     0.092 H 
ATOM     50  H   IDS d 503       6.182  17.325 -15.036  0.00  0.00     0.091 H 
ATOM     51  H   IDS d 503       8.230  19.174 -15.822  0.00  0.00     0.210 HD
ATOM     52  H   IDS d 503       8.405  16.152 -18.386  0.00  0.00     0.133 H 
ATOM     53  H   IDS d 503       8.533  16.595 -15.807  0.00  0.00     0.097 H 
ATOM     54  C4  IDS d 505      -2.530  16.564 -21.646  0.00  0.00    -0.005 C 
ATOM     55  C5  IDS d 505      -2.095  16.052 -20.234  0.00  0.00     0.127 C 
ATOM     56  O2  IDS d 505       0.198  19.170 -21.837  0.00  0.00    -0.388 OA
ATOM     57  O62 IDS d 505      -3.845  15.905 -18.594  0.00  0.00    -0.646 OA
ATOM     58  C1  IDS d 505      -0.437  17.850 -19.918  0.00  0.00     0.159 C 
ATOM     59  O5  IDS d 505      -1.603  17.158 -19.441  0.00  0.00    -0.343 OA
ATOM     60  O1  IDS d 505       0.743  17.220 -19.500  0.00  0.00    -0.348 OA
ATOM     61  O61 IDS d 505      -3.538  14.216 -19.759  0.00  0.00    -0.646 OA
ATOM     62  C6  IDS d 505      -3.226  15.352 -19.481  0.00  0.00     0.203 C 
ATOM     63  C3  IDS d 505      -1.824  17.890 -22.035  0.00  0.00     0.068 C 
ATOM     64  C2  IDS d 505      -0.398  17.941 -21.465  0.00  0.00     0.107 C 
ATOM     65  H   IDS d 505      -2.287  15.818 -22.373  0.00  0.00     0.041 H 
ATOM     66  H   IDS d 505      -3.584  16.751 -21.616  0.00  0.00     0.041 H 
ATOM     67  H   IDS d 505      -1.322  15.329 -20.391  0.00  0.00     0.100 H 
ATOM     68  H   IDS d 505       1.099  19.212 -21.482  0.00  0.00     0.210 HD
ATOM     69  H   IDS d 505      -0.500  18.835 -19.502  0.00  0.00     0.133 H 
ATOM     70  H   IDS d 505      -2.375  18.713 -21.629  0.00  0.00     0.087 H 
ATOM     71  H   IDS d 505       0.166  17.118 -21.852  0.00  0.00     0.094 H 
ATOM     72  O4S SGN d 504      -0.896  21.991 -16.951  0.00  0.00    -0.572 OA
ATOM     73  C2  SGN d 504       2.565  16.859 -16.306  0.00  0.00     0.081 C 
ATOM     74  O2S SGN d 504       2.797  14.164 -13.807  0.00  0.00    -0.296 OA
ATOM     75  C5  SGN d 504       2.421  18.931 -18.345  0.00  0.00     0.091 C 
ATOM     76  O3S SGN d 504       4.470  15.840 -13.531  0.00  0.00    -0.296 OA
ATOM     77  N   SGN d 504       3.250  15.732 -15.647  0.00  0.00    -0.210 NA
ATOM     78  O1S SGN d 504       2.177  16.451 -13.490  0.00  0.00    -0.296 OA
ATOM     79  S1  SGN d 504       3.151  15.539 -14.014  0.00  0.00     0.156 S 
ATOM     80  C4  SGN d 504       1.402  17.741 -18.340  0.00  0.00     0.095 C 
ATOM     81  O1  SGN d 504       4.757  17.733 -16.972  0.00  0.00    -0.348 OA
ATOM     82  O6S SGN d 504      -0.288  22.449 -19.218  0.00  0.00    -0.572 OA
ATOM     83  O6  SGN d 504       0.795  20.667 -18.036  0.00  0.00    -0.254 OA
ATOM     84  O5S SGN d 504       1.245  22.928 -17.452  0.00  0.00    -0.572 OA
ATOM     85  O3  SGN d 504       1.230  15.410 -17.711  0.00  0.00    -0.391 OA
ATOM     86  O5  SGN d 504       2.932  19.181 -17.007  0.00  0.00    -0.349 OA
ATOM     87  C6  SGN d 504       1.864  20.263 -18.868  0.00  0.00     0.067 C 
ATOM     88  S2  SGN d 504       0.167  22.092 -17.905  0.00  0.00     0.251 S 
ATOM     89  C3  SGN d 504       2.124  16.507 -17.744  0.00  0.00     0.083 C 
ATOM     90  C1  SGN d 504       3.539  18.069 -16.343  0.00  0.00     0.150 C 
ATOM     91  H   SGN d 504       1.682  17.092 -15.749  0.00  0.00     0.076 H 
ATOM     92  H   SGN d 504       3.487  13.592 -14.179  0.00  0.00     0.231 HD
ATOM     93  H   SGN d 504       3.187  18.606 -19.019  0.00  0.00     0.090 H 
ATOM     94  H   SGN d 504       5.103  15.207 -13.903  0.00  0.00     0.231 HD
ATOM     95  H   SGN d 504       4.241  15.819 -15.872  0.00  0.00     0.140 HD
ATOM     96  H   SGN d 504       2.115  16.341 -12.528  0.00  0.00     0.231 HD
ATOM     97  H   SGN d 504       0.603  18.227 -17.819  0.00  0.00     0.091 H 
ATOM     98  H   SGN d 504       1.681  14.636 -17.338  0.00  0.00     0.210 HD
ATOM     99  H   SGN d 504       1.512  20.138 -19.870  0.00  0.00     0.080 H 
ATOM    100  H   SGN d 504       2.633  21.007 -18.859  0.00  0.00     0.080 H 
ATOM    101  H   SGN d 504       2.974  16.246 -18.340  0.00  0.00     0.089 H 
ATOM    102  H   SGN d 504       3.754  18.342 -15.331  0.00  0.00     0.131 H 
ATOM    103  C1  IDS d 501      17.972  18.343 -18.228  0.00  0.00     0.156 C 
ATOM    104  O3  IDS d 501      15.718  16.247 -18.976  0.00  0.00    -0.390 OA
ATOM    105  C2  IDS d 501      17.403  17.869 -19.593  0.00  0.00     0.110 C 
ATOM    106  C4  IDS d 501      15.045  18.546 -18.749  0.00  0.00     0.103 C 
ATOM    107  C6  IDS d 501      15.022  19.822 -16.486  0.00  0.00     0.206 C 
ATOM    108  C3  IDS d 501      15.888  17.522 -19.563  0.00  0.00     0.092 C 
ATOM    109  O5  IDS d 501      17.086  19.286 -17.628  0.00  0.00    -0.340 OA
ATOM    110  O2  IDS d 501      17.607  18.906 -20.536  0.00  0.00    -0.388 OA
ATOM    111  C5  IDS d 501      15.744  18.823 -17.390  0.00  0.00     0.152 C 
ATOM    112  O62 IDS d 501      14.312  19.437 -15.587  0.00  0.00    -0.646 OA
ATOM    113  O61 IDS d 501      15.137  21.018 -16.645  0.00  0.00    -0.646 OA
ATOM    114  O1  IDS d 501      18.186  17.222 -17.411  0.00  0.00    -0.368 OA
ATOM    115  H   IDS d 501      18.910  18.840 -18.367  0.00  0.00     0.133 H 
ATOM    116  H   IDS d 501      16.236  15.592 -19.470  0.00  0.00     0.210 HD
ATOM    117  H   IDS d 501      17.917  16.967 -19.852  0.00  0.00     0.094 H 
ATOM    118  H   IDS d 501      14.939  19.158 -19.619  0.00  0.00     0.092 H 
ATOM    119  H   IDS d 501      15.544  17.544 -20.575  0.00  0.00     0.091 H 
ATOM    120  H   IDS d 501      17.121  19.698 -20.256  0.00  0.00     0.210 HD
ATOM    121  H   IDS d 501      15.732  17.891 -16.865  0.00  0.00     0.104 H 
ATOM    122  H   IDS d 501      17.346  16.757 -17.273  0.00  0.00     0.212 HD
ATOM    123  O3  IDS d 535      -1.772  17.971 -23.444  0.00  0.00    -0.393 OA
ATOM    124  H   IDS d 535      -2.673  17.938 -23.804  0.00  0.00     0.210 HD
ENDROOT
TORSDOF 37
ENDMDL
MODEL 22
REMARK VINA RESULT:      -6.4      5.871      9.066
REMARK  0 active torsions:
REMARK  status: ('A' for Active; 'I' for Inactive)
REMARK       I    between atoms: O3_1  and  C3_48 
REMARK       I    between atoms: C1_2  and  O1_8 
REMARK       I    between atoms: O2_5  and  C2_76 
REMARK       I    between atoms: O2_5  and  S_66 
REMARK       I    between atoms: C2_7  and  N_46 
REMARK       I    between atoms: O1_8  and  C4_39 
REMARK       I    between atoms: C2_12  and  N_23 
REMARK       I    between atoms: O2S_13  and  S1_25 
REMARK       I    between atoms: C1_14  and  O1_65 
REMARK       I    between atoms: O3_15  and  C3_69 
REMARK       I    between atoms: C5_16  and  C6_31 
REMARK       I    between atoms: C5_17  and  C6_68 
REMARK       I    between atoms: C5_18  and  C6_71 
REMARK       I    between atoms: O3S_19  and  S1_25 
REMARK       I    between atoms: C6_20  and  C5_28 
REMARK       I    between atoms: C6_20  and  O6_74 
REMARK       I    between atoms: C4_21  and  O1_35 
REMARK       I    between atoms: S2_22  and  O6_74 
REMARK       I    between atoms: N_23  and  S1_25 
REMARK       I    between atoms: O1S_24  and  S1_25 
REMARK       I    between atoms: C4_27  and  O1_63 
REMARK       I    between atoms: O1_29  and  C4_49 
REMARK       I    between atoms: O1_29  and  C1_73 
REMARK       I    between atoms: O2_30  and  C2_78 
REMARK       I    between atoms: O3_33  and  C3_42 
REMARK       I    between atoms: O1_35  and  C1_77 
REMARK       I    between atoms: O3S_37  and  S1_50 
REMARK       I    between atoms: C2_38  and  O2_45 
REMARK       I    between atoms: C6_40  and  C5_51 
REMARK       I    between atoms: C3_41  and  O3_67 
REMARK       I    between atoms: N_46  and  S1_50 
REMARK       I    between atoms: O6_47  and  C6_71 
REMARK       I    between atoms: O6_47  and  S2_72 
REMARK       I    between atoms: S1_50  and  O1S_61 
REMARK       I    between atoms: S1_50  and  O2S_54 
REMARK       I    between atoms: O3_56  and  C3_75 
REMARK       I    between atoms: C1_58  and  O1_63 
ROOT
ATOM      1  O3  SGN d 502       7.755  21.567 -20.752  0.00  0.00    -0.391 OA
ATOM      2  C1  SGN d 502       7.183  24.063 -17.985  0.00  0.00     0.150 C 
ATOM      3  O6S SGN d 502      10.976  20.756 -13.999  0.00  0.00    -0.572 OA
ATOM      4  C2  SGN d 502       7.617  23.554 -19.387  0.00  0.00     0.081 C 
ATOM      5  O1  SGN d 502       5.785  23.952 -17.813  0.00  0.00    -0.348 OA
ATOM      6  O5  SGN d 502       7.869  23.337 -16.954  0.00  0.00    -0.349 OA
ATOM      7  C6  SGN d 502       8.514  21.328 -15.789  0.00  0.00     0.067 C 
ATOM      8  S2  SGN d 502      11.043  21.759 -15.022  0.00  0.00     0.251 S 
ATOM      9  C5  SGN d 502       7.740  21.891 -16.996  0.00  0.00     0.091 C 
ATOM     10  O3S SGN d 502       7.678  26.592 -20.195  0.00  0.00    -0.296 OA
ATOM     11  N   SGN d 502       6.868  24.301 -20.407  0.00  0.00    -0.210 NA
ATOM     12  C3  SGN d 502       7.353  22.039 -19.480  0.00  0.00     0.083 C 
ATOM     13  C4  SGN d 502       8.194  21.341 -18.387  0.00  0.00     0.095 C 
ATOM     14  S1  SGN d 502       7.589  25.553 -21.183  0.00  0.00     0.156 S 
ATOM     15  O2S SGN d 502       6.711  25.900 -22.263  0.00  0.00    -0.296 OA
ATOM     16  O4S SGN d 502      12.277  21.735 -15.746  0.00  0.00    -0.572 OA
ATOM     17  O1S SGN d 502       8.883  25.133 -21.627  0.00  0.00    -0.296 OA
ATOM     18  O5S SGN d 502      10.712  23.066 -14.529  0.00  0.00    -0.572 OA
ATOM     19  O6  SGN d 502       9.904  21.421 -16.040  0.00  0.00    -0.254 OA
ATOM     20  H   SGN d 502       7.228  22.003 -21.440  0.00  0.00     0.210 HD
ATOM     21  H   SGN d 502       7.447  25.097 -17.913  0.00  0.00     0.131 H 
ATOM     22  H   SGN d 502       8.662  23.714 -19.547  0.00  0.00     0.076 H 
ATOM     23  H   SGN d 502       8.245  20.303 -15.638  0.00  0.00     0.080 H 
ATOM     24  H   SGN d 502       8.269  21.891 -14.912  0.00  0.00     0.080 H 
ATOM     25  H   SGN d 502       6.723  21.571 -16.907  0.00  0.00     0.090 H 
ATOM     26  H   SGN d 502       8.279  26.314 -19.487  0.00  0.00     0.231 HD
ATOM     27  H   SGN d 502       6.036  24.675 -19.951  0.00  0.00     0.140 HD
ATOM     28  H   SGN d 502       6.312  21.832 -19.344  0.00  0.00     0.089 H 
ATOM     29  H   SGN d 502       9.251  21.507 -18.412  0.00  0.00     0.091 H 
ATOM     30  H   SGN d 502       5.852  26.175 -21.906  0.00  0.00     0.231 HD
ATOM     31  H   SGN d 502       9.433  24.912 -20.859  0.00  0.00     0.231 HD
ATOM     32  O62 IDS d 503       9.273  18.991 -23.244  0.00  0.00    -0.646 OA
ATOM     33  O2  IDS d 503       9.488  16.929 -17.585  0.00  0.00    -0.244 OA
ATOM     34  O5  IDS d 503       9.723  19.035 -19.772  0.00  0.00    -0.340 OA
ATOM     35  C5  IDS d 503       9.028  18.529 -20.921  0.00  0.00     0.152 C 
ATOM     36  C4  IDS d 503       8.749  17.023 -20.715  0.00  0.00     0.103 C 
ATOM     37  O61 IDS d 503      11.028  19.032 -22.142  0.00  0.00    -0.646 OA
ATOM     38  O1  IDS d 503       7.907  19.962 -18.612  0.00  0.00    -0.348 OA
ATOM     39  C6  IDS d 503       9.826  18.871 -22.175  0.00  0.00     0.206 C 
ATOM     40  O1S IDS d 503       8.652  15.802 -15.639  0.00  0.00    -0.572 OA
ATOM     41  O3S IDS d 503       9.655  17.957 -15.414  0.00  0.00    -0.572 OA
ATOM     42  C3  IDS d 503       7.919  16.823 -19.417  0.00  0.00     0.094 C 
ATOM     43  O2S IDS d 503      11.006  16.076 -15.964  0.00  0.00    -0.572 OA
ATOM     44  S   IDS d 503       9.707  16.677 -16.056  0.00  0.00     0.252 S 
ATOM     45  O3  IDS d 503       6.583  17.205 -19.685  0.00  0.00    -0.390 OA
ATOM     46  C1  IDS d 503       8.983  19.065 -18.557  0.00  0.00     0.161 C 
ATOM     47  C2  IDS d 503       8.443  17.651 -18.208  0.00  0.00     0.134 C 
ATOM     48  H   IDS d 503       8.071  18.990 -21.051  0.00  0.00     0.104 H 
ATOM     49  H   IDS d 503       8.231  16.705 -21.596  0.00  0.00     0.092 H 
ATOM     50  H   IDS d 503       8.002  15.792 -19.142  0.00  0.00     0.091 H 
ATOM     51  H   IDS d 503       6.557  18.143 -19.929  0.00  0.00     0.210 HD
ATOM     52  H   IDS d 503       9.659  19.395 -17.798  0.00  0.00     0.133 H 
ATOM     53  H   IDS d 503       7.594  17.799 -17.573  0.00  0.00     0.097 H 
ATOM     54  C4  IDS d 505      17.700  14.154 -23.982  0.00  0.00    -0.005 C 
ATOM     55  C5  IDS d 505      16.725  13.374 -23.040  0.00  0.00     0.127 C 
ATOM     56  O2  IDS d 505      15.116  16.725 -24.972  0.00  0.00    -0.388 OA
ATOM     57  O62 IDS d 505      16.615  11.000 -23.392  0.00  0.00    -0.646 OA
ATOM     58  C1  IDS d 505      14.754  14.683 -23.735  0.00  0.00     0.159 C 
ATOM     59  O5  IDS d 505      15.386  13.401 -23.589  0.00  0.00    -0.343 OA
ATOM     60  O1  IDS d 505      14.116  15.080 -22.552  0.00  0.00    -0.348 OA
ATOM     61  O61 IDS d 505      18.048  11.660 -22.046  0.00  0.00    -0.646 OA
ATOM     62  C6  IDS d 505      17.151  11.923 -22.813  0.00  0.00     0.203 C 
ATOM     63  C3  IDS d 505      16.960  15.191 -24.868  0.00  0.00     0.068 C 
ATOM     64  C2  IDS d 505      15.762  15.797 -24.121  0.00  0.00     0.107 C 
ATOM     65  H   IDS d 505      18.422  14.667 -23.381  0.00  0.00     0.041 H 
ATOM     66  H   IDS d 505      18.167  13.443 -24.631  0.00  0.00     0.041 H 
ATOM     67  H   IDS d 505      16.751  13.866 -22.090  0.00  0.00     0.100 H 
ATOM     68  H   IDS d 505      14.357  17.114 -24.509  0.00  0.00     0.210 HD
ATOM     69  H   IDS d 505      14.037  14.560 -24.520  0.00  0.00     0.133 H 
ATOM     70  H   IDS d 505      16.593  14.703 -25.747  0.00  0.00     0.087 H 
ATOM     71  H   IDS d 505      16.109  16.281 -23.231  0.00  0.00     0.094 H 
ATOM     72  O4S SGN d 504      11.001  13.191 -26.873  0.00  0.00    -0.572 OA
ATOM     73  C2  SGN d 504      11.077  14.064 -20.711  0.00  0.00     0.081 C 
ATOM     74  O2S SGN d 504      10.487  11.933 -17.766  0.00  0.00    -0.296 OA
ATOM     75  C5  SGN d 504      11.594  15.806 -22.984  0.00  0.00     0.091 C 
ATOM     76  O3S SGN d 504       8.593  13.255 -18.358  0.00  0.00    -0.296 OA
ATOM     77  N   SGN d 504      10.777  13.846 -19.285  0.00  0.00    -0.210 NA
ATOM     78  O1S SGN d 504       9.531  11.767 -19.951  0.00  0.00    -0.296 OA
ATOM     79  S1  SGN d 504       9.790  12.611 -18.822  0.00  0.00     0.156 S 
ATOM     80  C4  SGN d 504      12.707  14.846 -22.443  0.00  0.00     0.095 C 
ATOM     81  O1  SGN d 504       9.929  16.226 -20.570  0.00  0.00    -0.348 OA
ATOM     82  O6S SGN d 504      12.024  15.272 -27.458  0.00  0.00    -0.572 OA
ATOM     83  O6  SGN d 504      11.452  14.833 -25.172  0.00  0.00    -0.254 OA
ATOM     84  O5S SGN d 504       9.738  15.218 -26.774  0.00  0.00    -0.572 OA
ATOM     85  O3  SGN d 504      13.462  13.803 -20.394  0.00  0.00    -0.391 OA
ATOM     86  O5  SGN d 504      10.270  15.290 -22.676  0.00  0.00    -0.349 OA
ATOM     87  C6  SGN d 504      11.634  16.061 -24.499  0.00  0.00     0.067 C 
ATOM     88  S2  SGN d 504      11.034  14.608 -26.661  0.00  0.00     0.251 S 
ATOM     89  C3  SGN d 504      12.480  14.676 -20.920  0.00  0.00     0.083 C 
ATOM     90  C1  SGN d 504      10.002  15.019 -21.298  0.00  0.00     0.150 C 
ATOM     91  H   SGN d 504      11.064  13.117 -21.209  0.00  0.00     0.076 H 
ATOM     92  H   SGN d 504      10.636  12.548 -17.030  0.00  0.00     0.231 HD
ATOM     93  H   SGN d 504      11.795  16.733 -22.489  0.00  0.00     0.090 H 
ATOM     94  H   SGN d 504       8.803  13.817 -17.596  0.00  0.00     0.231 HD
ATOM     95  H   SGN d 504      10.349  14.707 -18.941  0.00  0.00     0.140 HD
ATOM     96  H   SGN d 504       8.950  11.038 -19.682  0.00  0.00     0.231 HD
ATOM     97  H   SGN d 504      12.554  14.036 -23.126  0.00  0.00     0.091 H 
ATOM     98  H   SGN d 504      13.321  13.695 -19.440  0.00  0.00     0.210 HD
ATOM     99  H   SGN d 504      12.580  16.482 -24.768  0.00  0.00     0.080 H 
ATOM    100  H   SGN d 504      10.857  16.745 -24.773  0.00  0.00     0.080 H 
ATOM    101  H   SGN d 504      12.551  15.621 -20.423  0.00  0.00     0.089 H 
ATOM    102  H   SGN d 504       9.055  14.528 -21.218  0.00  0.00     0.131 H 
ATOM    103  C1  IDS d 501       3.290  26.377 -15.142  0.00  0.00     0.156 C 
ATOM    104  O3  IDS d 501       6.026  24.889 -14.563  0.00  0.00    -0.390 OA
ATOM    105  C2  IDS d 501       4.770  26.824 -15.292  0.00  0.00     0.110 C 
ATOM    106  C4  IDS d 501       5.155  24.750 -16.802  0.00  0.00     0.103 C 
ATOM    107  C6  IDS d 501       3.000  23.443 -17.429  0.00  0.00     0.206 C 
ATOM    108  C3  IDS d 501       5.740  25.680 -15.700  0.00  0.00     0.092 C 
ATOM    109  O5  IDS d 501       2.915  25.547 -16.240  0.00  0.00    -0.340 OA
ATOM    110  O2  IDS d 501       4.823  27.834 -16.283  0.00  0.00    -0.388 OA
ATOM    111  C5  IDS d 501       3.701  24.356 -16.425  0.00  0.00     0.152 C 
ATOM    112  O62 IDS d 501       2.946  22.250 -17.244  0.00  0.00    -0.646 OA
ATOM    113  O61 IDS d 501       2.484  23.884 -18.433  0.00  0.00    -0.646 OA
ATOM    114  O1  IDS d 501       3.134  25.726 -13.908  0.00  0.00    -0.368 OA
ATOM    115  H   IDS d 501       2.640  27.227 -15.156  0.00  0.00     0.133 H 
ATOM    116  H   IDS d 501       6.393  25.451 -13.863  0.00  0.00     0.210 HD
ATOM    117  H   IDS d 501       5.092  27.169 -14.331  0.00  0.00     0.094 H 
ATOM    118  H   IDS d 501       5.528  25.406 -17.561  0.00  0.00     0.092 H 
ATOM    119  H   IDS d 501       6.619  26.145 -16.094  0.00  0.00     0.091 H 
ATOM    120  H   IDS d 501       4.522  27.471 -17.130  0.00  0.00     0.210 HD
ATOM    121  H   IDS d 501       3.782  23.789 -15.521  0.00  0.00     0.104 H 
ATOM    122  H   IDS d 501       3.716  24.950 -13.876  0.00  0.00     0.212 HD
ATOM    123  O3  IDS d 535      17.870  16.216 -25.209  0.00  0.00    -0.393 OA
ATOM    124  H   IDS d 535      18.627  15.833 -25.680  0.00  0.00     0.210 HD
ENDROOT
TORSDOF 37
ENDMDL
MODEL 23
REMARK VINA RESULT:      -6.4      3.428     13.070
REMARK  0 active torsions:
REMARK  status: ('A' for Active; 'I' for Inactive)
REMARK       I    between atoms: O3_1  and  C3_48 
REMARK       I    between atoms: C1_2  and  O1_8 
REMARK       I    between atoms: O2_5  and  C2_76 
REMARK       I    between atoms: O2_5  and  S_66 
REMARK       I    between atoms: C2_7  and  N_46 
REMARK       I    between atoms: O1_8  and  C4_39 
REMARK       I    between atoms: C2_12  and  N_23 
REMARK       I    between atoms: O2S_13  and  S1_25 
REMARK       I    between atoms: C1_14  and  O1_65 
REMARK       I    between atoms: O3_15  and  C3_69 
REMARK       I    between atoms: C5_16  and  C6_31 
REMARK       I    between atoms: C5_17  and  C6_68 
REMARK       I    between atoms: C5_18  and  C6_71 
REMARK       I    between atoms: O3S_19  and  S1_25 
REMARK       I    between atoms: C6_20  and  C5_28 
REMARK       I    between atoms: C6_20  and  O6_74 
REMARK       I    between atoms: C4_21  and  O1_35 
REMARK       I    between atoms: S2_22  and  O6_74 
REMARK       I    between atoms: N_23  and  S1_25 
REMARK       I    between atoms: O1S_24  and  S1_25 
REMARK       I    between atoms: C4_27  and  O1_63 
REMARK       I    between atoms: O1_29  and  C4_49 
REMARK       I    between atoms: O1_29  and  C1_73 
REMARK       I    between atoms: O2_30  and  C2_78 
REMARK       I    between atoms: O3_33  and  C3_42 
REMARK       I    between atoms: O1_35  and  C1_77 
REMARK       I    between atoms: O3S_37  and  S1_50 
REMARK       I    between atoms: C2_38  and  O2_45 
REMARK       I    between atoms: C6_40  and  C5_51 
REMARK       I    between atoms: C3_41  and  O3_67 
REMARK       I    between atoms: N_46  and  S1_50 
REMARK       I    between atoms: O6_47  and  C6_71 
REMARK       I    between atoms: O6_47  and  S2_72 
REMARK       I    between atoms: S1_50  and  O1S_61 
REMARK       I    between atoms: S1_50  and  O2S_54 
REMARK       I    between atoms: O3_56  and  C3_75 
REMARK       I    between atoms: C1_58  and  O1_63 
ROOT
ATOM      1  O3  SGN d 502       9.598  20.621 -21.500  0.00  0.00    -0.391 OA
ATOM      2  C1  SGN d 502      12.882  19.972 -23.236  0.00  0.00     0.150 C 
ATOM      3  O6S SGN d 502      11.940  13.627 -22.996  0.00  0.00    -0.572 OA
ATOM      4  C2  SGN d 502      11.452  20.548 -23.046  0.00  0.00     0.081 C 
ATOM      5  O1  SGN d 502      13.786  20.543 -22.312  0.00  0.00    -0.348 OA
ATOM      6  O5  SGN d 502      12.869  18.544 -23.099  0.00  0.00    -0.349 OA
ATOM      7  C6  SGN d 502      12.430  16.489 -21.918  0.00  0.00     0.067 C 
ATOM      8  S2  SGN d 502      11.626  14.768 -23.806  0.00  0.00     0.251 S 
ATOM      9  C5  SGN d 502      12.307  18.024 -21.866  0.00  0.00     0.091 C 
ATOM     10  O3S SGN d 502      12.147  22.407 -25.484  0.00  0.00    -0.296 OA
ATOM     11  N   SGN d 502      11.518  22.012 -23.162  0.00  0.00    -0.210 NA
ATOM     12  C3  SGN d 502      10.905  20.108 -21.674  0.00  0.00     0.083 C 
ATOM     13  C4  SGN d 502      10.854  18.562 -21.657  0.00  0.00     0.095 C 
ATOM     14  S1  SGN d 502      11.087  22.731 -24.571  0.00  0.00     0.156 S 
ATOM     15  O2S SGN d 502      11.020  24.135 -24.287  0.00  0.00    -0.296 OA
ATOM     16  O4S SGN d 502      10.386  14.631 -24.505  0.00  0.00    -0.572 OA
ATOM     17  O1S SGN d 502       9.834  22.187 -24.999  0.00  0.00    -0.296 OA
ATOM     18  O5S SGN d 502      12.712  15.144 -24.666  0.00  0.00    -0.572 OA
ATOM     19  O6  SGN d 502      11.469  15.973 -22.819  0.00  0.00    -0.254 OA
ATOM     20  H   SGN d 502       9.628  21.590 -21.511  0.00  0.00     0.210 HD
ATOM     21  H   SGN d 502      13.210  20.222 -24.223  0.00  0.00     0.131 H 
ATOM     22  H   SGN d 502      10.786  20.178 -23.797  0.00  0.00     0.076 H 
ATOM     23  H   SGN d 502      12.260  16.083 -20.943  0.00  0.00     0.080 H 
ATOM     24  H   SGN d 502      13.412  16.220 -22.247  0.00  0.00     0.080 H 
ATOM     25  H   SGN d 502      12.838  18.363 -21.001  0.00  0.00     0.090 H 
ATOM     26  H   SGN d 502      12.154  21.451 -25.646  0.00  0.00     0.231 HD
ATOM     27  H   SGN d 502      12.484  22.281 -22.975  0.00  0.00     0.140 HD
ATOM     28  H   SGN d 502      11.532  20.473 -20.888  0.00  0.00     0.089 H 
ATOM     29  H   SGN d 502      10.277  18.090 -22.423  0.00  0.00     0.091 H 
ATOM     30  H   SGN d 502      11.893  24.450 -24.002  0.00  0.00     0.231 HD
ATOM     31  H   SGN d 502       9.937  21.239 -25.176  0.00  0.00     0.231 HD
ATOM     32  O62 IDS d 503       5.904  20.531 -20.277  0.00  0.00    -0.646 OA
ATOM     33  O2  IDS d 503       8.766  15.399 -18.934  0.00  0.00    -0.244 OA
ATOM     34  O5  IDS d 503       8.023  17.774 -20.690  0.00  0.00    -0.340 OA
ATOM     35  C5  IDS d 503       7.440  18.766 -19.833  0.00  0.00     0.152 C 
ATOM     36  C4  IDS d 503       7.111  18.119 -18.468  0.00  0.00     0.103 C 
ATOM     37  O61 IDS d 503       5.626  18.809 -21.398  0.00  0.00    -0.646 OA
ATOM     38  O1  IDS d 503      10.290  18.290 -20.375  0.00  0.00    -0.348 OA
ATOM     39  C6  IDS d 503       6.252  19.404 -20.547  0.00  0.00     0.206 C 
ATOM     40  O1S IDS d 503      10.115  13.939 -17.592  0.00  0.00    -0.572 OA
ATOM     41  O3S IDS d 503      10.580  14.165 -19.923  0.00  0.00    -0.572 OA
ATOM     42  C3  IDS d 503       8.407  17.526 -17.850  0.00  0.00     0.094 C 
ATOM     43  O2S IDS d 503       8.605  13.041 -19.215  0.00  0.00    -0.572 OA
ATOM     44  S   IDS d 503       9.571  14.058 -18.911  0.00  0.00     0.252 S 
ATOM     45  O3  IDS d 503       9.183  18.596 -17.344  0.00  0.00    -0.390 OA
ATOM     46  C1  IDS d 503       9.306  17.293 -20.306  0.00  0.00     0.161 C 
ATOM     47  C2  IDS d 503       9.269  16.719 -18.863  0.00  0.00     0.134 C 
ATOM     48  H   IDS d 503       8.117  19.567 -19.622  0.00  0.00     0.104 H 
ATOM     49  H   IDS d 503       6.684  18.902 -17.876  0.00  0.00     0.092 H 
ATOM     50  H   IDS d 503       8.110  16.840 -17.085  0.00  0.00     0.091 H 
ATOM     51  H   IDS d 503       9.428  19.190 -18.070  0.00  0.00     0.210 HD
ATOM     52  H   IDS d 503       9.560  16.520 -21.000  0.00  0.00     0.133 H 
ATOM     53  H   IDS d 503      10.271  16.771 -18.491  0.00  0.00     0.097 H 
ATOM     54  C4  IDS d 505      -1.672  14.515 -21.454  0.00  0.00    -0.005 C 
ATOM     55  C5  IDS d 505      -0.777  14.012 -20.273  0.00  0.00     0.127 C 
ATOM     56  O2  IDS d 505       0.282  17.714 -21.924  0.00  0.00    -0.388 OA
ATOM     57  O62 IDS d 505      -1.954  13.311 -18.300  0.00  0.00    -0.646 OA
ATOM     58  C1  IDS d 505       0.479  16.129 -20.114  0.00  0.00     0.159 C 
ATOM     59  O5  IDS d 505      -0.341  15.137 -19.474  0.00  0.00    -0.343 OA
ATOM     60  O1  IDS d 505       1.834  15.774 -20.084  0.00  0.00    -0.348 OA
ATOM     61  O61 IDS d 505      -1.612  11.848 -19.730  0.00  0.00    -0.646 OA
ATOM     62  C6  IDS d 505      -1.489  12.998 -19.378  0.00  0.00     0.203 C 
ATOM     63  C3  IDS d 505      -1.397  16.000 -21.810  0.00  0.00     0.068 C 
ATOM     64  C2  IDS d 505       0.084  16.351 -21.597  0.00  0.00     0.107 C 
ATOM     65  H   IDS d 505      -1.476  13.912 -22.315  0.00  0.00     0.041 H 
ATOM     66  H   IDS d 505      -2.694  14.437 -21.146  0.00  0.00     0.041 H 
ATOM     67  H   IDS d 505       0.063  13.515 -20.711  0.00  0.00     0.100 H 
ATOM     68  H   IDS d 505       1.214  17.946 -21.793  0.00  0.00     0.210 HD
ATOM     69  H   IDS d 505       0.318  17.031 -19.561  0.00  0.00     0.133 H 
ATOM     70  H   IDS d 505      -1.983  16.629 -21.172  0.00  0.00     0.087 H 
ATOM     71  H   IDS d 505       0.688  15.724 -22.220  0.00  0.00     0.094 H 
ATOM     72  O4S SGN d 504      -0.053  19.778 -16.570  0.00  0.00    -0.572 OA
ATOM     73  C2  SGN d 504       4.473  15.610 -17.503  0.00  0.00     0.081 C 
ATOM     74  O2S SGN d 504       5.935  12.860 -15.538  0.00  0.00    -0.296 OA
ATOM     75  C5  SGN d 504       3.351  17.742 -19.135  0.00  0.00     0.091 C 
ATOM     76  O3S SGN d 504       7.220  14.866 -15.438  0.00  0.00    -0.296 OA
ATOM     77  N   SGN d 504       5.534  14.635 -17.193  0.00  0.00    -0.210 NA
ATOM     78  O1S SGN d 504       4.945  14.894 -14.763  0.00  0.00    -0.296 OA
ATOM     79  S1  SGN d 504       5.917  14.292 -15.628  0.00  0.00     0.156 S 
ATOM     80  C4  SGN d 504       2.650  16.344 -19.054  0.00  0.00     0.095 C 
ATOM     81  O1  SGN d 504       6.169  17.044 -18.545  0.00  0.00    -0.348 OA
ATOM     82  O6S SGN d 504      -0.183  20.553 -18.829  0.00  0.00    -0.572 OA
ATOM     83  O6  SGN d 504       1.532  18.999 -18.205  0.00  0.00    -0.254 OA
ATOM     84  O5S SGN d 504       1.624  21.246 -17.433  0.00  0.00    -0.572 OA
ATOM     85  O3  SGN d 504       3.157  13.999 -18.737  0.00  0.00    -0.391 OA
ATOM     86  O5  SGN d 504       4.133  18.000 -17.937  0.00  0.00    -0.349 OA
ATOM     87  C6  SGN d 504       2.401  18.937 -19.316  0.00  0.00     0.067 C 
ATOM     88  S2  SGN d 504       0.671  20.212 -17.728  0.00  0.00     0.251 S 
ATOM     89  C3  SGN d 504       3.752  15.279 -18.829  0.00  0.00     0.083 C 
ATOM     90  C1  SGN d 504       5.119  17.020 -17.602  0.00  0.00     0.150 C 
ATOM     91  H   SGN d 504       3.742  15.576 -16.724  0.00  0.00     0.076 H 
ATOM     92  H   SGN d 504       6.607  12.506 -16.141  0.00  0.00     0.231 HD
ATOM     93  H   SGN d 504       3.961  17.670 -20.012  0.00  0.00     0.090 H 
ATOM     94  H   SGN d 504       7.852  14.439 -16.036  0.00  0.00     0.231 HD
ATOM     95  H   SGN d 504       6.387  14.979 -17.634  0.00  0.00     0.140 HD
ATOM     96  H   SGN d 504       5.167  14.694 -13.840  0.00  0.00     0.231 HD
ATOM     97  H   SGN d 504       1.934  16.577 -18.294  0.00  0.00     0.091 H 
ATOM     98  H   SGN d 504       3.846  13.330 -18.596  0.00  0.00     0.210 HD
ATOM     99  H   SGN d 504       1.831  18.811 -20.213  0.00  0.00     0.080 H 
ATOM    100  H   SGN d 504       2.967  19.843 -19.388  0.00  0.00     0.080 H 
ATOM    101  H   SGN d 504       4.449  15.282 -19.641  0.00  0.00     0.089 H 
ATOM    102  H   SGN d 504       5.531  17.255 -16.643  0.00  0.00     0.131 H 
ATOM    103  C1  IDS d 501      18.122  20.957 -22.832  0.00  0.00     0.156 C 
ATOM    104  O3  IDS d 501      16.255  18.442 -23.306  0.00  0.00    -0.390 OA
ATOM    105  C2  IDS d 501      17.326  20.471 -24.074  0.00  0.00     0.110 C 
ATOM    106  C4  IDS d 501      15.189  20.482 -22.603  0.00  0.00     0.103 C 
ATOM    107  C6  IDS d 501      15.495  21.527 -20.244  0.00  0.00     0.206 C 
ATOM    108  C3  IDS d 501      15.985  19.764 -23.731  0.00  0.00     0.092 C 
ATOM    109  O5  IDS d 501      17.246  21.604 -21.911  0.00  0.00    -0.340 OA
ATOM    110  O2  IDS d 501      17.044  21.599 -24.882  0.00  0.00    -0.388 OA
ATOM    111  C5  IDS d 501      16.148  20.810 -21.426  0.00  0.00     0.152 C 
ATOM    112  O62 IDS d 501      15.150  20.909 -19.265  0.00  0.00    -0.646 OA
ATOM    113  O61 IDS d 501      15.304  22.723 -20.256  0.00  0.00    -0.646 OA
ATOM    114  O1  IDS d 501      18.782  19.861 -22.257  0.00  0.00    -0.368 OA
ATOM    115  H   IDS d 501      18.860  21.678 -23.121  0.00  0.00     0.133 H 
ATOM    116  H   IDS d 501      16.752  17.976 -23.997  0.00  0.00     0.210 HD
ATOM    117  H   IDS d 501      17.934  19.746 -24.573  0.00  0.00     0.094 H 
ATOM    118  H   IDS d 501      14.726  21.118 -23.327  0.00  0.00     0.092 H 
ATOM    119  H   IDS d 501      15.387  19.783 -24.618  0.00  0.00     0.091 H 
ATOM    120  H   IDS d 501      16.492  22.223 -24.386  0.00  0.00     0.210 HD
ATOM    121  H   IDS d 501      16.477  19.864 -21.050  0.00  0.00     0.104 H 
ATOM    122  H   IDS d 501      18.128  19.195 -21.989  0.00  0.00     0.212 HD
ATOM    123  O3  IDS d 535      -1.739  16.205 -23.165  0.00  0.00    -0.393 OA
ATOM    124  H   IDS d 535      -2.674  15.982 -23.299  0.00  0.00     0.210 HD
ENDROOT
TORSDOF 37
ENDMDL
MODEL 24
REMARK VINA RESULT:      -6.4      3.254     13.082
REMARK  0 active torsions:
REMARK  status: ('A' for Active; 'I' for Inactive)
REMARK       I    between atoms: O3_1  and  C3_48 
REMARK       I    between atoms: C1_2  and  O1_8 
REMARK       I    between atoms: O2_5  and  C2_76 
REMARK       I    between atoms: O2_5  and  S_66 
REMARK       I    between atoms: C2_7  and  N_46 
REMARK       I    between atoms: O1_8  and  C4_39 
REMARK       I    between atoms: C2_12  and  N_23 
REMARK       I    between atoms: O2S_13  and  S1_25 
REMARK       I    between atoms: C1_14  and  O1_65 
REMARK       I    between atoms: O3_15  and  C3_69 
REMARK       I    between atoms: C5_16  and  C6_31 
REMARK       I    between atoms: C5_17  and  C6_68 
REMARK       I    between atoms: C5_18  and  C6_71 
REMARK       I    between atoms: O3S_19  and  S1_25 
REMARK       I    between atoms: C6_20  and  C5_28 
REMARK       I    between atoms: C6_20  and  O6_74 
REMARK       I    between atoms: C4_21  and  O1_35 
REMARK       I    between atoms: S2_22  and  O6_74 
REMARK       I    between atoms: N_23  and  S1_25 
REMARK       I    between atoms: O1S_24  and  S1_25 
REMARK       I    between atoms: C4_27  and  O1_63 
REMARK       I    between atoms: O1_29  and  C4_49 
REMARK       I    between atoms: O1_29  and  C1_73 
REMARK       I    between atoms: O2_30  and  C2_78 
REMARK       I    between atoms: O3_33  and  C3_42 
REMARK       I    between atoms: O1_35  and  C1_77 
REMARK       I    between atoms: O3S_37  and  S1_50 
REMARK       I    between atoms: C2_38  and  O2_45 
REMARK       I    between atoms: C6_40  and  C5_51 
REMARK       I    between atoms: C3_41  and  O3_67 
REMARK       I    between atoms: N_46  and  S1_50 
REMARK       I    between atoms: O6_47  and  C6_71 
REMARK       I    between atoms: O6_47  and  S2_72 
REMARK       I    between atoms: S1_50  and  O1S_61 
REMARK       I    between atoms: S1_50  and  O2S_54 
REMARK       I    between atoms: O3_56  and  C3_75 
REMARK       I    between atoms: C1_58  and  O1_63 
ROOT
ATOM      1  O3  SGN d 502       9.191  20.275 -20.201  0.00  0.00    -0.391 OA
ATOM      2  C1  SGN d 502      12.736  19.315 -19.350  0.00  0.00     0.150 C 
ATOM      3  O6S SGN d 502      11.251  13.072 -19.494  0.00  0.00    -0.572 OA
ATOM      4  C2  SGN d 502      11.586  19.969 -20.163  0.00  0.00     0.081 C 
ATOM      5  O1  SGN d 502      12.882  19.933 -18.088  0.00  0.00    -0.348 OA
ATOM      6  O5  SGN d 502      12.500  17.909 -19.190  0.00  0.00    -0.349 OA
ATOM      7  C6  SGN d 502      11.205  16.001 -18.487  0.00  0.00     0.067 C 
ATOM      8  S2  SGN d 502      11.646  14.141 -20.363  0.00  0.00     0.251 S 
ATOM      9  C5  SGN d 502      11.227  17.537 -18.598  0.00  0.00     0.091 C 
ATOM     10  O3S SGN d 502      13.866  21.549 -21.643  0.00  0.00    -0.296 OA
ATOM     11  N   SGN d 502      11.853  21.411 -20.274  0.00  0.00    -0.210 NA
ATOM     12  C3  SGN d 502      10.244  19.690 -19.459  0.00  0.00     0.083 C 
ATOM     13  C4  SGN d 502      10.043  18.158 -19.409  0.00  0.00     0.095 C 
ATOM     14  S1  SGN d 502      12.506  22.007 -21.655  0.00  0.00     0.156 S 
ATOM     15  O2S SGN d 502      12.409  23.434 -21.547  0.00  0.00    -0.296 OA
ATOM     16  O4S SGN d 502      11.144  13.991 -21.694  0.00  0.00    -0.572 OA
ATOM     17  O1S SGN d 502      11.779  21.480 -22.771  0.00  0.00    -0.296 OA
ATOM     18  O5S SGN d 502      13.061  14.382 -20.325  0.00  0.00    -0.572 OA
ATOM     19  O6  SGN d 502      11.008  15.442 -19.773  0.00  0.00    -0.254 OA
ATOM     20  H   SGN d 502       9.314  21.237 -20.234  0.00  0.00     0.210 HD
ATOM     21  H   SGN d 502      13.646  19.453 -19.896  0.00  0.00     0.131 H 
ATOM     22  H   SGN d 502      11.530  19.558 -21.149  0.00  0.00     0.076 H 
ATOM     23  H   SGN d 502      10.408  15.700 -17.841  0.00  0.00     0.080 H 
ATOM     24  H   SGN d 502      12.136  15.658 -18.086  0.00  0.00     0.080 H 
ATOM     25  H   SGN d 502      11.106  17.935 -17.612  0.00  0.00     0.090 H 
ATOM     26  H   SGN d 502      13.883  20.582 -21.718  0.00  0.00     0.231 HD
ATOM     27  H   SGN d 502      12.491  21.654 -19.516  0.00  0.00     0.140 HD
ATOM     28  H   SGN d 502      10.247  20.102 -18.472  0.00  0.00     0.089 H 
ATOM     29  H   SGN d 502      10.055  17.639 -20.344  0.00  0.00     0.091 H 
ATOM     30  H   SGN d 502      12.917  23.736 -20.778  0.00  0.00     0.231 HD
ATOM     31  H   SGN d 502      11.879  20.515 -22.795  0.00  0.00     0.231 HD
ATOM     32  O62 IDS d 503       5.593  20.470 -21.674  0.00  0.00    -0.646 OA
ATOM     33  O2  IDS d 503       6.397  15.371 -18.561  0.00  0.00    -0.244 OA
ATOM     34  O5  IDS d 503       7.197  17.594 -20.483  0.00  0.00    -0.340 OA
ATOM     35  C5  IDS d 503       6.299  18.690 -20.258  0.00  0.00     0.152 C 
ATOM     36  C4  IDS d 503       5.106  18.195 -19.408  0.00  0.00     0.103 C 
ATOM     37  O61 IDS d 503       5.938  18.661 -22.627  0.00  0.00    -0.646 OA
ATOM     38  O1  IDS d 503       8.763  18.037 -18.793  0.00  0.00    -0.348 OA
ATOM     39  C6  IDS d 503       5.921  19.307 -21.601  0.00  0.00     0.206 C 
ATOM     40  O1S IDS d 503       6.412  13.991 -16.599  0.00  0.00    -0.572 OA
ATOM     41  O3S IDS d 503       8.290  13.967 -18.073  0.00  0.00    -0.572 OA
ATOM     42  C3  IDS d 503       5.633  17.608 -18.070  0.00  0.00     0.094 C 
ATOM     43  O2S IDS d 503       6.227  13.007 -18.772  0.00  0.00    -0.572 OA
ATOM     44  S   IDS d 503       6.862  14.004 -17.958  0.00  0.00     0.252 S 
ATOM     45  O3  IDS d 503       5.998  18.687 -17.229  0.00  0.00    -0.390 OA
ATOM     46  C1  IDS d 503       7.875  17.096 -19.336  0.00  0.00     0.161 C 
ATOM     47  C2  IDS d 503       6.861  16.669 -18.240  0.00  0.00     0.134 C 
ATOM     48  H   IDS d 503       6.755  19.477 -19.694  0.00  0.00     0.104 H 
ATOM     49  H   IDS d 503       4.478  19.050 -19.273  0.00  0.00     0.092 H 
ATOM     50  H   IDS d 503       4.847  17.014 -17.652  0.00  0.00     0.091 H 
ATOM     51  H   IDS d 503       6.710  19.196 -17.647  0.00  0.00     0.210 HD
ATOM     52  H   IDS d 503       8.441  16.249 -19.661  0.00  0.00     0.133 H 
ATOM     53  H   IDS d 503       7.386  16.712 -17.308  0.00  0.00     0.097 H 
ATOM     54  C4  IDS d 505       0.025  14.711 -27.223  0.00  0.00    -0.005 C 
ATOM     55  C5  IDS d 505      -0.107  14.285 -25.723  0.00  0.00     0.127 C 
ATOM     56  O2  IDS d 505       2.120  17.758 -26.454  0.00  0.00    -0.388 OA
ATOM     57  O62 IDS d 505      -2.340  13.834 -24.962  0.00  0.00    -0.646 OA
ATOM     58  C1  IDS d 505       0.948  16.350 -24.881  0.00  0.00     0.159 C 
ATOM     59  O5  IDS d 505      -0.183  15.463 -24.885  0.00  0.00    -0.343 OA
ATOM     60  O1  IDS d 505       1.921  15.940 -23.961  0.00  0.00    -0.348 OA
ATOM     61  O61 IDS d 505      -1.301  12.224 -25.757  0.00  0.00    -0.646 OA
ATOM     62  C6  IDS d 505      -1.323  13.397 -25.462  0.00  0.00     0.203 C 
ATOM     63  C3  IDS d 505       0.608  16.139 -27.381  0.00  0.00     0.068 C 
ATOM     64  C2  IDS d 505       1.627  16.444 -26.273  0.00  0.00     0.107 C 
ATOM     65  H   IDS d 505       0.671  14.018 -27.721  0.00  0.00     0.041 H 
ATOM     66  H   IDS d 505      -0.955  14.708 -27.652  0.00  0.00     0.041 H 
ATOM     67  H   IDS d 505       0.764  13.711 -25.486  0.00  0.00     0.100 H 
ATOM     68  H   IDS d 505       2.765  17.960 -25.758  0.00  0.00     0.210 HD
ATOM     69  H   IDS d 505       0.557  17.308 -24.608  0.00  0.00     0.133 H 
ATOM     70  H   IDS d 505      -0.187  16.853 -27.308  0.00  0.00     0.087 H 
ATOM     71  H   IDS d 505       2.426  15.733 -26.323  0.00  0.00     0.094 H 
ATOM     72  O4S SGN d 504      -1.386  20.348 -22.708  0.00  0.00    -0.572 OA
ATOM     73  C2  SGN d 504       2.241  15.912 -20.280  0.00  0.00     0.081 C 
ATOM     74  O2S SGN d 504       1.814  13.305 -17.714  0.00  0.00    -0.296 OA
ATOM     75  C5  SGN d 504       2.651  17.922 -22.344  0.00  0.00     0.091 C 
ATOM     76  O3S SGN d 504       2.919  15.252 -16.893  0.00  0.00    -0.296 OA
ATOM     77  N   SGN d 504       2.750  14.925 -19.310  0.00  0.00    -0.210 NA
ATOM     78  O1S SGN d 504       0.761  15.446 -17.864  0.00  0.00    -0.296 OA
ATOM     79  S1  SGN d 504       1.998  14.721 -17.859  0.00  0.00     0.156 S 
ATOM     80  C4  SGN d 504       1.931  16.571 -22.675  0.00  0.00     0.095 C 
ATOM     81  O1  SGN d 504       4.338  17.160 -20.031  0.00  0.00    -0.348 OA
ATOM     82  O6S SGN d 504       0.048  20.904 -24.539  0.00  0.00    -0.572 OA
ATOM     83  O6  SGN d 504       0.794  19.343 -22.880  0.00  0.00    -0.254 OA
ATOM     84  O5S SGN d 504       0.585  21.649 -22.337  0.00  0.00    -0.572 OA
ATOM     85  O3  SGN d 504       1.883  14.248 -21.999  0.00  0.00    -0.391 OA
ATOM     86  O5  SGN d 504       2.495  18.261 -20.939  0.00  0.00    -0.349 OA
ATOM     87  C6  SGN d 504       2.164  19.134 -23.153  0.00  0.00     0.067 C 
ATOM     88  S2  SGN d 504      -0.048  20.635 -23.134  0.00  0.00     0.251 S 
ATOM     89  C3  SGN d 504       2.518  15.485 -21.739  0.00  0.00     0.083 C 
ATOM     90  C1  SGN d 504       2.931  17.276 -19.999  0.00  0.00     0.150 C 
ATOM     91  H   SGN d 504       1.181  15.986 -20.163  0.00  0.00     0.076 H 
ATOM     92  H   SGN d 504       2.678  12.864 -17.718  0.00  0.00     0.231 HD
ATOM     93  H   SGN d 504       3.671  17.738 -22.608  0.00  0.00     0.090 H 
ATOM     94  H   SGN d 504       3.742  14.740 -16.916  0.00  0.00     0.231 HD
ATOM     95  H   SGN d 504       3.715  15.187 -19.105  0.00  0.00     0.140 HD
ATOM     96  H   SGN d 504       0.314  15.328 -17.010  0.00  0.00     0.231 HD
ATOM     97  H   SGN d 504       0.920  16.909 -22.576  0.00  0.00     0.091 H 
ATOM     98  H   SGN d 504       2.249  13.566 -21.413  0.00  0.00     0.210 HD
ATOM     99  H   SGN d 504       2.298  18.946 -24.198  0.00  0.00     0.080 H 
ATOM    100  H   SGN d 504       2.726  20.003 -22.881  0.00  0.00     0.080 H 
ATOM    101  H   SGN d 504       3.570  15.378 -21.901  0.00  0.00     0.089 H 
ATOM    102  H   SGN d 504       2.648  17.584 -19.014  0.00  0.00     0.131 H 
ATOM    103  C1  IDS d 501      16.544  20.101 -15.679  0.00  0.00     0.156 C 
ATOM    104  O3  IDS d 501      15.190  17.637 -17.139  0.00  0.00    -0.390 OA
ATOM    105  C2  IDS d 501      16.694  19.532 -17.116  0.00  0.00     0.110 C 
ATOM    106  C4  IDS d 501      14.126  19.781 -17.392  0.00  0.00     0.103 C 
ATOM    107  C6  IDS d 501      12.939  21.037 -15.453  0.00  0.00     0.206 C 
ATOM    108  C3  IDS d 501      15.387  18.921 -17.696  0.00  0.00     0.092 C 
ATOM    109  O5  IDS d 501      15.348  20.873 -15.580  0.00  0.00    -0.340 OA
ATOM    110  O2  IDS d 501      17.111  20.587 -17.963  0.00  0.00    -0.388 OA
ATOM    111  C5  IDS d 501      14.126  20.180 -15.891  0.00  0.00     0.152 C 
ATOM    112  O62 IDS d 501      11.985  20.533 -14.907  0.00  0.00    -0.646 OA
ATOM    113  O61 IDS d 501      12.917  22.233 -15.640  0.00  0.00    -0.646 OA
ATOM    114  O1  IDS d 501      16.566  19.038 -14.764  0.00  0.00    -0.368 OA
ATOM    115  H   IDS d 501      17.359  20.756 -15.450  0.00  0.00     0.133 H 
ATOM    116  H   IDS d 501      15.966  17.084 -17.318  0.00  0.00     0.210 HD
ATOM    117  H   IDS d 501      17.407  18.735 -17.066  0.00  0.00     0.094 H 
ATOM    118  H   IDS d 501      14.305  20.364 -18.271  0.00  0.00     0.092 H 
ATOM    119  H   IDS d 501      15.508  18.881 -18.759  0.00  0.00     0.091 H 
ATOM    120  H   IDS d 501      16.434  21.280 -17.974  0.00  0.00     0.210 HD
ATOM    121  H   IDS d 501      14.040  19.261 -15.349  0.00  0.00     0.104 H 
ATOM    122  H   IDS d 501      15.833  18.431 -14.955  0.00  0.00     0.212 HD
ATOM    123  O3  IDS d 535       1.242  16.226 -28.641  0.00  0.00    -0.393 OA
ATOM    124  H   IDS d 535       0.598  16.033 -29.341  0.00  0.00     0.210 HD
ENDROOT
TORSDOF 37
ENDMDL
MODEL 25
REMARK VINA RESULT:      -6.3      2.018     12.866
REMARK  0 active torsions:
REMARK  status: ('A' for Active; 'I' for Inactive)
REMARK       I    between atoms: O3_1  and  C3_48 
REMARK       I    between atoms: C1_2  and  O1_8 
REMARK       I    between atoms: O2_5  and  C2_76 
REMARK       I    between atoms: O2_5  and  S_66 
REMARK       I    between atoms: C2_7  and  N_46 
REMARK       I    between atoms: O1_8  and  C4_39 
REMARK       I    between atoms: C2_12  and  N_23 
REMARK       I    between atoms: O2S_13  and  S1_25 
REMARK       I    between atoms: C1_14  and  O1_65 
REMARK       I    between atoms: O3_15  and  C3_69 
REMARK       I    between atoms: C5_16  and  C6_31 
REMARK       I    between atoms: C5_17  and  C6_68 
REMARK       I    between atoms: C5_18  and  C6_71 
REMARK       I    between atoms: O3S_19  and  S1_25 
REMARK       I    between atoms: C6_20  and  C5_28 
REMARK       I    between atoms: C6_20  and  O6_74 
REMARK       I    between atoms: C4_21  and  O1_35 
REMARK       I    between atoms: S2_22  and  O6_74 
REMARK       I    between atoms: N_23  and  S1_25 
REMARK       I    between atoms: O1S_24  and  S1_25 
REMARK       I    between atoms: C4_27  and  O1_63 
REMARK       I    between atoms: O1_29  and  C4_49 
REMARK       I    between atoms: O1_29  and  C1_73 
REMARK       I    between atoms: O2_30  and  C2_78 
REMARK       I    between atoms: O3_33  and  C3_42 
REMARK       I    between atoms: O1_35  and  C1_77 
REMARK       I    between atoms: O3S_37  and  S1_50 
REMARK       I    between atoms: C2_38  and  O2_45 
REMARK       I    between atoms: C6_40  and  C5_51 
REMARK       I    between atoms: C3_41  and  O3_67 
REMARK       I    between atoms: N_46  and  S1_50 
REMARK       I    between atoms: O6_47  and  C6_71 
REMARK       I    between atoms: O6_47  and  S2_72 
REMARK       I    between atoms: S1_50  and  O1S_61 
REMARK       I    between atoms: S1_50  and  O2S_54 
REMARK       I    between atoms: O3_56  and  C3_75 
REMARK       I    between atoms: C1_58  and  O1_63 
ROOT
ATOM      1  O3  SGN d 502       8.472  18.892 -20.101  0.00  0.00    -0.391 OA
ATOM      2  C1  SGN d 502      11.759  17.874 -18.561  0.00  0.00     0.150 C 
ATOM      3  O6S SGN d 502       8.802  13.889 -14.489  0.00  0.00    -0.572 OA
ATOM      4  C2  SGN d 502      10.705  18.075 -19.684  0.00  0.00     0.081 C 
ATOM      5  O1  SGN d 502      12.213  19.116 -18.061  0.00  0.00    -0.348 OA
ATOM      6  O5  SGN d 502      11.212  17.081 -17.497  0.00  0.00    -0.349 OA
ATOM      7  C6  SGN d 502       9.598  16.592 -15.775  0.00  0.00     0.067 C 
ATOM      8  S2  SGN d 502       9.328  13.928 -15.822  0.00  0.00     0.251 S 
ATOM      9  C5  SGN d 502       9.976  17.565 -16.909  0.00  0.00     0.091 C 
ATOM     10  O3S SGN d 502      13.087  17.552 -21.668  0.00  0.00    -0.296 OA
ATOM     11  N   SGN d 502      11.296  18.918 -20.734  0.00  0.00    -0.210 NA
ATOM     12  C3  SGN d 502       9.439  18.716 -19.083  0.00  0.00     0.083 C 
ATOM     13  C4  SGN d 502       8.882  17.753 -18.010  0.00  0.00     0.095 C 
ATOM     14  S1  SGN d 502      11.888  18.217 -22.093  0.00  0.00     0.156 S 
ATOM     15  O2S SGN d 502      12.154  19.295 -23.002  0.00  0.00    -0.296 OA
ATOM     16  O4S SGN d 502       8.635  13.055 -16.720  0.00  0.00    -0.572 OA
ATOM     17  O1S SGN d 502      10.917  17.292 -22.592  0.00  0.00    -0.296 OA
ATOM     18  O5S SGN d 502      10.751  13.745 -15.855  0.00  0.00    -0.572 OA
ATOM     19  O6  SGN d 502       9.105  15.389 -16.336  0.00  0.00    -0.254 OA
ATOM     20  H   SGN d 502       8.819  19.497 -20.775  0.00  0.00     0.210 HD
ATOM     21  H   SGN d 502      12.596  17.358 -18.982  0.00  0.00     0.131 H 
ATOM     22  H   SGN d 502      10.424  17.139 -20.118  0.00  0.00     0.076 H 
ATOM     23  H   SGN d 502       8.842  17.035 -15.161  0.00  0.00     0.080 H 
ATOM     24  H   SGN d 502      10.462  16.383 -15.180  0.00  0.00     0.080 H 
ATOM     25  H   SGN d 502      10.084  18.538 -16.478  0.00  0.00     0.090 H 
ATOM     26  H   SGN d 502      12.860  16.834 -21.057  0.00  0.00     0.231 HD
ATOM     27  H   SGN d 502      12.067  19.430 -20.305  0.00  0.00     0.140 HD
ATOM     28  H   SGN d 502       9.671  19.667 -18.652  0.00  0.00     0.089 H 
ATOM     29  H   SGN d 502       8.646  16.759 -18.329  0.00  0.00     0.091 H 
ATOM     30  H   SGN d 502      12.816  19.889 -22.615  0.00  0.00     0.231 HD
ATOM     31  H   SGN d 502      10.777  16.587 -21.940  0.00  0.00     0.231 HD
ATOM     32  O62 IDS d 503       4.868  18.977 -21.568  0.00  0.00    -0.646 OA
ATOM     33  O2  IDS d 503       4.812  17.381 -15.756  0.00  0.00    -0.244 OA
ATOM     34  O5  IDS d 503       5.869  17.390 -18.613  0.00  0.00    -0.340 OA
ATOM     35  C5  IDS d 503       5.301  18.532 -19.269  0.00  0.00     0.152 C 
ATOM     36  C4  IDS d 503       4.144  19.083 -18.404  0.00  0.00     0.103 C 
ATOM     37  O61 IDS d 503       4.638  17.000 -20.989  0.00  0.00    -0.646 OA
ATOM     38  O1  IDS d 503       7.702  18.426 -17.577  0.00  0.00    -0.348 OA
ATOM     39  C6  IDS d 503       4.911  18.144 -20.693  0.00  0.00     0.206 C 
ATOM     40  O1S IDS d 503       4.749  17.762 -13.389  0.00  0.00    -0.572 OA
ATOM     41  O3S IDS d 503       6.357  16.249 -14.298  0.00  0.00    -0.572 OA
ATOM     42  C3  IDS d 503       4.683  19.450 -16.994  0.00  0.00     0.094 C 
ATOM     43  O2S IDS d 503       4.050  15.662 -14.298  0.00  0.00    -0.572 OA
ATOM     44  S   IDS d 503       5.008  16.729 -14.347  0.00  0.00     0.252 S 
ATOM     45  O3  IDS d 503       5.405  20.663 -17.099  0.00  0.00    -0.390 OA
ATOM     46  C1  IDS d 503       6.550  17.647 -17.390  0.00  0.00     0.161 C 
ATOM     47  C2  IDS d 503       5.614  18.366 -16.380  0.00  0.00     0.134 C 
ATOM     48  H   IDS d 503       6.002  19.333 -19.368  0.00  0.00     0.104 H 
ATOM     49  H   IDS d 503       3.764  19.928 -18.940  0.00  0.00     0.092 H 
ATOM     50  H   IDS d 503       3.838  19.533 -16.342  0.00  0.00     0.091 H 
ATOM     51  H   IDS d 503       6.158  20.540 -17.698  0.00  0.00     0.210 HD
ATOM     52  H   IDS d 503       6.847  16.696 -17.001  0.00  0.00     0.133 H 
ATOM     53  H   IDS d 503       6.251  18.888 -15.696  0.00  0.00     0.097 H 
ATOM     54  C4  IDS d 505      -2.602  12.737 -22.043  0.00  0.00    -0.005 C 
ATOM     55  C5  IDS d 505      -2.636  13.497 -20.677  0.00  0.00     0.127 C 
ATOM     56  O2  IDS d 505       0.250  14.794 -23.423  0.00  0.00    -0.388 OA
ATOM     57  O62 IDS d 505      -4.794  14.294 -19.983  0.00  0.00    -0.646 OA
ATOM     58  C1  IDS d 505      -1.013  15.205 -21.406  0.00  0.00     0.159 C 
ATOM     59  O5  IDS d 505      -2.316  14.893 -20.884  0.00  0.00    -0.343 OA
ATOM     60  O1  IDS d 505      -0.056  15.291 -20.386  0.00  0.00    -0.348 OA
ATOM     61  O61 IDS d 505      -4.287  12.377 -19.375  0.00  0.00    -0.646 OA
ATOM     62  C6  IDS d 505      -3.987  13.387 -19.969  0.00  0.00     0.203 C 
ATOM     63  C3  IDS d 505      -1.717  13.455 -23.095  0.00  0.00     0.068 C 
ATOM     64  C2  IDS d 505      -0.519  14.147 -22.426  0.00  0.00     0.107 C 
ATOM     65  H   IDS d 505      -2.213  11.753 -21.880  0.00  0.00     0.041 H 
ATOM     66  H   IDS d 505      -3.601  12.703 -22.425  0.00  0.00     0.041 H 
ATOM     67  H   IDS d 505      -1.907  13.034 -20.046  0.00  0.00     0.100 H 
ATOM     68  H   IDS d 505       1.009  15.234 -23.010  0.00  0.00     0.210 HD
ATOM     69  H   IDS d 505      -1.121  16.151 -21.896  0.00  0.00     0.133 H 
ATOM     70  H   IDS d 505      -2.298  14.204 -23.592  0.00  0.00     0.087 H 
ATOM     71  H   IDS d 505       0.071  13.414 -21.915  0.00  0.00     0.094 H 
ATOM     72  O4S SGN d 504      -2.008  20.038 -22.754  0.00  0.00    -0.572 OA
ATOM     73  C2  SGN d 504       0.724  17.684 -17.681  0.00  0.00     0.081 C 
ATOM     74  O2S SGN d 504       0.016  17.750 -14.068  0.00  0.00    -0.296 OA
ATOM     75  C5  SGN d 504       1.335  17.554 -20.524  0.00  0.00     0.091 C 
ATOM     76  O3S SGN d 504       1.656  19.350 -14.728  0.00  0.00    -0.296 OA
ATOM     77  N   SGN d 504       1.101  17.531 -16.264  0.00  0.00    -0.210 NA
ATOM     78  O1S SGN d 504      -0.497  19.395 -15.725  0.00  0.00    -0.296 OA
ATOM     79  S1  SGN d 504       0.516  18.573 -15.131  0.00  0.00     0.156 S 
ATOM     80  C4  SGN d 504       0.273  16.593 -19.889  0.00  0.00     0.095 C 
ATOM     81  O1  SGN d 504       3.074  18.155 -18.202  0.00  0.00    -0.348 OA
ATOM     82  O6S SGN d 504      -0.733  18.797 -24.353  0.00  0.00    -0.572 OA
ATOM     83  O6  SGN d 504      -0.177  18.656 -22.025  0.00  0.00    -0.254 OA
ATOM     84  O5S SGN d 504       0.251  20.661 -23.231  0.00  0.00    -0.572 OA
ATOM     85  O3  SGN d 504      -0.248  15.472 -17.808  0.00  0.00    -0.391 OA
ATOM     86  O5  SGN d 504       1.450  18.781 -19.752  0.00  0.00    -0.349 OA
ATOM     87  C6  SGN d 504       1.054  17.965 -21.977  0.00  0.00     0.067 C 
ATOM     88  S2  SGN d 504      -0.707  19.591 -23.159  0.00  0.00     0.251 S 
ATOM     89  C3  SGN d 504       0.696  16.329 -18.423  0.00  0.00     0.083 C 
ATOM     90  C1  SGN d 504       1.753  18.627 -18.363  0.00  0.00     0.150 C 
ATOM     91  H   SGN d 504      -0.263  18.094 -17.727  0.00  0.00     0.076 H 
ATOM     92  H   SGN d 504       0.740  17.217 -13.703  0.00  0.00     0.231 HD
ATOM     93  H   SGN d 504       2.237  16.979 -20.512  0.00  0.00     0.090 H 
ATOM     94  H   SGN d 504       2.321  18.766 -14.332  0.00  0.00     0.231 HD
ATOM     95  H   SGN d 504       2.118  17.594 -16.223  0.00  0.00     0.140 HD
ATOM     96  H   SGN d 504      -0.845  20.011 -15.060  0.00  0.00     0.231 HD
ATOM     97  H   SGN d 504      -0.605  17.160 -20.125  0.00  0.00     0.091 H 
ATOM     98  H   SGN d 504       0.016  15.305 -16.890  0.00  0.00     0.210 HD
ATOM     99  H   SGN d 504       1.002  17.092 -22.594  0.00  0.00     0.080 H 
ATOM    100  H   SGN d 504       1.841  18.597 -22.334  0.00  0.00     0.080 H 
ATOM    101  H   SGN d 504       1.661  15.867 -18.388  0.00  0.00     0.089 H 
ATOM    102  H   SGN d 504       1.684  19.582 -17.884  0.00  0.00     0.131 H 
ATOM    103  C1  IDS d 501      16.088  19.897 -16.160  0.00  0.00     0.156 C 
ATOM    104  O3  IDS d 501      14.000  17.575 -15.626  0.00  0.00    -0.390 OA
ATOM    105  C2  IDS d 501      15.908  18.492 -16.798  0.00  0.00     0.110 C 
ATOM    106  C4  IDS d 501      13.463  19.154 -17.360  0.00  0.00     0.103 C 
ATOM    107  C6  IDS d 501      12.878  21.645 -16.909  0.00  0.00     0.206 C 
ATOM    108  C3  IDS d 501      14.428  18.025 -16.896  0.00  0.00     0.092 C 
ATOM    109  O5  IDS d 501      15.138  20.809 -16.708  0.00  0.00    -0.340 OA
ATOM    110  O2  IDS d 501      16.454  18.531 -18.104  0.00  0.00    -0.388 OA
ATOM    111  C5  IDS d 501      13.755  20.446 -16.549  0.00  0.00     0.152 C 
ATOM    112  O62 IDS d 501      11.910  21.922 -16.240  0.00  0.00    -0.646 OA
ATOM    113  O61 IDS d 501      13.122  22.344 -17.867  0.00  0.00    -0.646 OA
ATOM    114  O1  IDS d 501      15.971  19.783 -14.767  0.00  0.00    -0.368 OA
ATOM    115  H   IDS d 501      17.060  20.286 -16.384  0.00  0.00     0.133 H 
ATOM    116  H   IDS d 501      14.590  16.869 -15.317  0.00  0.00     0.210 HD
ATOM    117  H   IDS d 501      16.407  17.792 -16.161  0.00  0.00     0.094 H 
ATOM    118  H   IDS d 501      13.661  18.911 -18.383  0.00  0.00     0.092 H 
ATOM    119  H   IDS d 501      14.397  17.245 -17.627  0.00  0.00     0.091 H 
ATOM    120  H   IDS d 501      15.969  19.178 -18.638  0.00  0.00     0.210 HD
ATOM    121  H   IDS d 501      13.521  20.206 -15.532  0.00  0.00     0.104 H 
ATOM    122  H   IDS d 501      15.095  19.431 -14.544  0.00  0.00     0.212 HD
ATOM    123  O3  IDS d 535      -1.250  12.493 -24.018  0.00  0.00    -0.393 OA
ATOM    124  H   IDS d 535      -2.007  12.056 -24.440  0.00  0.00     0.210 HD
ENDROOT
TORSDOF 37
ENDMDL
MODEL 26
REMARK VINA RESULT:      -6.1      4.883     12.607
REMARK  0 active torsions:
REMARK  status: ('A' for Active; 'I' for Inactive)
REMARK       I    between atoms: O3_1  and  C3_48 
REMARK       I    between atoms: C1_2  and  O1_8 
REMARK       I    between atoms: O2_5  and  C2_76 
REMARK       I    between atoms: O2_5  and  S_66 
REMARK       I    between atoms: C2_7  and  N_46 
REMARK       I    between atoms: O1_8  and  C4_39 
REMARK       I    between atoms: C2_12  and  N_23 
REMARK       I    between atoms: O2S_13  and  S1_25 
REMARK       I    between atoms: C1_14  and  O1_65 
REMARK       I    between atoms: O3_15  and  C3_69 
REMARK       I    between atoms: C5_16  and  C6_31 
REMARK       I    between atoms: C5_17  and  C6_68 
REMARK       I    between atoms: C5_18  and  C6_71 
REMARK       I    between atoms: O3S_19  and  S1_25 
REMARK       I    between atoms: C6_20  and  C5_28 
REMARK       I    between atoms: C6_20  and  O6_74 
REMARK       I    between atoms: C4_21  and  O1_35 
REMARK       I    between atoms: S2_22  and  O6_74 
REMARK       I    between atoms: N_23  and  S1_25 
REMARK       I    between atoms: O1S_24  and  S1_25 
REMARK       I    between atoms: C4_27  and  O1_63 
REMARK       I    between atoms: O1_29  and  C4_49 
REMARK       I    between atoms: O1_29  and  C1_73 
REMARK       I    between atoms: O2_30  and  C2_78 
REMARK       I    between atoms: O3_33  and  C3_42 
REMARK       I    between atoms: O1_35  and  C1_77 
REMARK       I    between atoms: O3S_37  and  S1_50 
REMARK       I    between atoms: C2_38  and  O2_45 
REMARK       I    between atoms: C6_40  and  C5_51 
REMARK       I    between atoms: C3_41  and  O3_67 
REMARK       I    between atoms: N_46  and  S1_50 
REMARK       I    between atoms: O6_47  and  C6_71 
REMARK       I    between atoms: O6_47  and  S2_72 
REMARK       I    between atoms: S1_50  and  O1S_61 
REMARK       I    between atoms: S1_50  and  O2S_54 
REMARK       I    between atoms: O3_56  and  C3_75 
REMARK       I    between atoms: C1_58  and  O1_63 
ROOT
ATOM      1  O3  SGN d 502      12.832  18.570 -21.996  0.00  0.00    -0.391 OA
ATOM      2  C1  SGN d 502      14.324  16.784 -24.962  0.00  0.00     0.150 C 
ATOM      3  O6S SGN d 502       9.538  12.507 -25.000  0.00  0.00    -0.572 OA
ATOM      4  C2  SGN d 502      13.729  17.971 -24.156  0.00  0.00     0.081 C 
ATOM      5  O1  SGN d 502      15.569  16.381 -24.429  0.00  0.00    -0.348 OA
ATOM      6  O5  SGN d 502      13.409  15.679 -24.976  0.00  0.00    -0.349 OA
ATOM      7  C6  SGN d 502      12.032  14.000 -23.930  0.00  0.00     0.067 C 
ATOM      8  S2  SGN d 502       9.868  13.812 -25.496  0.00  0.00     0.251 S 
ATOM      9  C5  SGN d 502      12.966  15.199 -23.679  0.00  0.00     0.091 C 
ATOM     10  O3S SGN d 502      14.855  19.780 -26.468  0.00  0.00    -0.296 OA
ATOM     11  N   SGN d 502      14.712  19.065 -24.141  0.00  0.00    -0.210 NA
ATOM     12  C3  SGN d 502      13.384  17.495 -22.732  0.00  0.00     0.083 C 
ATOM     13  C4  SGN d 502      12.335  16.365 -22.850  0.00  0.00     0.095 C 
ATOM     14  S1  SGN d 502      14.535  20.323 -25.178  0.00  0.00     0.156 S 
ATOM     15  O2S SGN d 502      15.480  21.314 -24.753  0.00  0.00    -0.296 OA
ATOM     16  O4S SGN d 502       8.723  14.656 -25.647  0.00  0.00    -0.572 OA
ATOM     17  O1S SGN d 502      13.180  20.780 -25.118  0.00  0.00    -0.296 OA
ATOM     18  O5S SGN d 502      10.680  13.758 -26.679  0.00  0.00    -0.572 OA
ATOM     19  O6  SGN d 502      10.788  14.470 -24.415  0.00  0.00    -0.254 OA
ATOM     20  H   SGN d 502      13.488  19.280 -21.920  0.00  0.00     0.210 HD
ATOM     21  H   SGN d 502      14.483  17.114 -25.967  0.00  0.00     0.131 H 
ATOM     22  H   SGN d 502      12.829  18.330 -24.609  0.00  0.00     0.076 H 
ATOM     23  H   SGN d 502      11.881  13.467 -23.015  0.00  0.00     0.080 H 
ATOM     24  H   SGN d 502      12.475  13.346 -24.652  0.00  0.00     0.080 H 
ATOM     25  H   SGN d 502      13.778  14.856 -23.073  0.00  0.00     0.090 H 
ATOM     26  H   SGN d 502      14.192  19.116 -26.714  0.00  0.00     0.231 HD
ATOM     27  H   SGN d 502      15.623  18.649 -24.333  0.00  0.00     0.140 HD
ATOM     28  H   SGN d 502      14.262  17.144 -22.232  0.00  0.00     0.089 H 
ATOM     29  H   SGN d 502      11.427  16.601 -23.362  0.00  0.00     0.091 H 
ATOM     30  H   SGN d 502      16.378  20.952 -24.813  0.00  0.00     0.231 HD
ATOM     31  H   SGN d 502      12.586  20.073 -25.415  0.00  0.00     0.231 HD
ATOM     32  O62 IDS d 503      10.437  20.213 -19.405  0.00  0.00    -0.646 OA
ATOM     33  O2  IDS d 503       9.428  14.287 -19.849  0.00  0.00    -0.244 OA
ATOM     34  O5  IDS d 503      10.033  17.077 -20.909  0.00  0.00    -0.340 OA
ATOM     35  C5  IDS d 503      10.479  17.864 -19.795  0.00  0.00     0.152 C 
ATOM     36  C4  IDS d 503      10.150  17.111 -18.486  0.00  0.00     0.103 C 
ATOM     37  O61 IDS d 503       8.833  19.464 -20.485  0.00  0.00    -0.646 OA
ATOM     38  O1  IDS d 503      12.065  16.055 -21.484  0.00  0.00    -0.348 OA
ATOM     39  C6  IDS d 503       9.878  19.262 -19.903  0.00  0.00     0.206 C 
ATOM     40  O1S IDS d 503       9.756  11.971 -19.316  0.00  0.00    -0.572 OA
ATOM     41  O3S IDS d 503       9.670  12.656 -21.602  0.00  0.00    -0.572 OA
ATOM     42  C3  IDS d 503      10.835  15.717 -18.505  0.00  0.00     0.094 C 
ATOM     43  O2S IDS d 503       7.694  12.714 -20.275  0.00  0.00    -0.572 OA
ATOM     44  S   IDS d 503       9.126  12.815 -20.286  0.00  0.00     0.252 S 
ATOM     45  O3  IDS d 503      12.215  15.900 -18.250  0.00  0.00    -0.390 OA
ATOM     46  C1  IDS d 503      10.725  15.852 -21.125  0.00  0.00     0.161 C 
ATOM     47  C2  IDS d 503      10.672  14.960 -19.854  0.00  0.00     0.134 C 
ATOM     48  H   IDS d 503      11.540  18.002 -19.796  0.00  0.00     0.104 H 
ATOM     49  H   IDS d 503      10.505  17.742 -17.697  0.00  0.00     0.092 H 
ATOM     50  H   IDS d 503      10.358  15.118 -17.758  0.00  0.00     0.091 H 
ATOM     51  H   IDS d 503      12.604  16.447 -18.950  0.00  0.00     0.210 HD
ATOM     52  H   IDS d 503      10.229  15.362 -21.936  0.00  0.00     0.133 H 
ATOM     53  H   IDS d 503      11.511  14.298 -19.915  0.00  0.00     0.097 H 
ATOM     54  C4  IDS d 505       0.793  20.467 -18.027  0.00  0.00    -0.005 C 
ATOM     55  C5  IDS d 505       1.387  19.180 -17.364  0.00  0.00     0.127 C 
ATOM     56  O2  IDS d 505       4.175  21.892 -18.922  0.00  0.00    -0.388 OA
ATOM     57  O62 IDS d 505       0.566  18.669 -15.165  0.00  0.00    -0.646 OA
ATOM     58  C1  IDS d 505       3.713  19.986 -17.512  0.00  0.00     0.159 C 
ATOM     59  O5  IDS d 505       2.632  19.501 -16.699  0.00  0.00    -0.343 OA
ATOM     60  O1  IDS d 505       4.453  18.933 -18.067  0.00  0.00    -0.348 OA
ATOM     61  O61 IDS d 505      -0.500  17.861 -16.750  0.00  0.00    -0.646 OA
ATOM     62  C6  IDS d 505       0.430  18.531 -16.364  0.00  0.00     0.203 C 
ATOM     63  C3  IDS d 505       1.879  21.537 -18.313  0.00  0.00     0.068 C 
ATOM     64  C2  IDS d 505       3.217  20.877 -18.681  0.00  0.00     0.107 C 
ATOM     65  H   IDS d 505       0.326  20.194 -18.950  0.00  0.00     0.041 H 
ATOM     66  H   IDS d 505       0.087  20.891 -17.344  0.00  0.00     0.041 H 
ATOM     67  H   IDS d 505       1.552  18.474 -18.150  0.00  0.00     0.100 H 
ATOM     68  H   IDS d 505       5.024  21.485 -19.155  0.00  0.00     0.210 HD
ATOM     69  H   IDS d 505       4.327  20.566 -16.854  0.00  0.00     0.133 H 
ATOM     70  H   IDS d 505       2.030  22.128 -17.434  0.00  0.00     0.087 H 
ATOM     71  H   IDS d 505       3.085  20.272 -19.553  0.00  0.00     0.094 H 
ATOM     72  O4S SGN d 504       6.595  21.825 -13.709  0.00  0.00    -0.572 OA
ATOM     73  C2  SGN d 504       6.855  16.428 -16.797  0.00  0.00     0.081 C 
ATOM     74  O2S SGN d 504       6.566  12.875 -15.873  0.00  0.00    -0.296 OA
ATOM     75  C5  SGN d 504       7.060  19.213 -17.617  0.00  0.00     0.091 C 
ATOM     76  O3S SGN d 504       8.826  13.601 -16.098  0.00  0.00    -0.296 OA
ATOM     77  N   SGN d 504       7.045  14.986 -17.040  0.00  0.00    -0.210 NA
ATOM     78  O1S SGN d 504       7.386  14.701 -14.566  0.00  0.00    -0.296 OA
ATOM     79  S1  SGN d 504       7.473  13.985 -15.804  0.00  0.00     0.156 S 
ATOM     80  C4  SGN d 504       5.660  18.544 -17.401  0.00  0.00     0.095 C 
ATOM     81  O1  SGN d 504       8.753  16.875 -18.284  0.00  0.00    -0.348 OA
ATOM     82  O6S SGN d 504       6.463  23.237 -15.634  0.00  0.00    -0.572 OA
ATOM     83  O6  SGN d 504       6.816  20.883 -15.912  0.00  0.00    -0.254 OA
ATOM     84  O5S SGN d 504       8.547  22.248 -15.022  0.00  0.00    -0.572 OA
ATOM     85  O3  SGN d 504       4.556  16.396 -17.551  0.00  0.00    -0.391 OA
ATOM     86  O5  SGN d 504       8.078  18.554 -16.816  0.00  0.00    -0.349 OA
ATOM     87  C6  SGN d 504       7.125  20.711 -17.280  0.00  0.00     0.067 C 
ATOM     88  S2  SGN d 504       7.116  22.123 -15.010  0.00  0.00     0.251 S 
ATOM     89  C3  SGN d 504       5.800  17.040 -17.746  0.00  0.00     0.083 C 
ATOM     90  C1  SGN d 504       8.218  17.144 -17.006  0.00  0.00     0.150 C 
ATOM     91  H   SGN d 504       6.500  16.560 -15.797  0.00  0.00     0.076 H 
ATOM     92  H   SGN d 504       6.666  12.427 -16.728  0.00  0.00     0.231 HD
ATOM     93  H   SGN d 504       7.234  19.104 -18.667  0.00  0.00     0.090 H 
ATOM     94  H   SGN d 504       8.849  13.120 -16.940  0.00  0.00     0.231 HD
ATOM     95  H   SGN d 504       7.772  14.902 -17.750  0.00  0.00     0.140 HD
ATOM     96  H   SGN d 504       7.637  14.114 -13.835  0.00  0.00     0.231 HD
ATOM     97  H   SGN d 504       5.487  18.873 -16.397  0.00  0.00     0.091 H 
ATOM     98  H   SGN d 504       4.642  15.454 -17.767  0.00  0.00     0.210 HD
ATOM     99  H   SGN d 504       6.417  21.245 -17.879  0.00  0.00     0.080 H 
ATOM    100  H   SGN d 504       8.106  21.086 -17.482  0.00  0.00     0.080 H 
ATOM    101  H   SGN d 504       6.101  16.916 -18.766  0.00  0.00     0.089 H 
ATOM    102  H   SGN d 504       8.899  16.760 -16.276  0.00  0.00     0.131 H 
ATOM    103  C1  IDS d 501      18.807  14.376 -26.606  0.00  0.00     0.156 C 
ATOM    104  O3  IDS d 501      15.706  13.729 -26.538  0.00  0.00    -0.390 OA
ATOM    105  C2  IDS d 501      17.617  14.887 -27.464  0.00  0.00     0.110 C 
ATOM    106  C4  IDS d 501      16.458  15.627 -25.264  0.00  0.00     0.103 C 
ATOM    107  C6  IDS d 501      17.937  15.439 -23.137  0.00  0.00     0.206 C 
ATOM    108  C3  IDS d 501      16.279  15.013 -26.683  0.00  0.00     0.092 C 
ATOM    109  O5  IDS d 501      18.831  15.051 -25.350  0.00  0.00    -0.340 OA
ATOM    110  O2  IDS d 501      17.962  16.163 -27.973  0.00  0.00    -0.388 OA
ATOM    111  C5  IDS d 501      17.644  14.927 -24.546  0.00  0.00     0.152 C 
ATOM    112  O62 IDS d 501      17.523  14.846 -22.168  0.00  0.00    -0.646 OA
ATOM    113  O61 IDS d 501      18.585  16.445 -22.950  0.00  0.00    -0.646 OA
ATOM    114  O1  IDS d 501      18.695  12.985 -26.458  0.00  0.00    -0.368 OA
ATOM    115  H   IDS d 501      19.736  14.587 -27.093  0.00  0.00     0.133 H 
ATOM    116  H   IDS d 501      15.586  13.328 -27.412  0.00  0.00     0.210 HD
ATOM    117  H   IDS d 501      17.453  14.164 -28.236  0.00  0.00     0.094 H 
ATOM    118  H   IDS d 501      16.371  16.612 -25.673  0.00  0.00     0.092 H 
ATOM    119  H   IDS d 501      15.650  15.669 -27.248  0.00  0.00     0.091 H 
ATOM    120  H   IDS d 501      18.100  16.779 -27.237  0.00  0.00     0.210 HD
ATOM    121  H   IDS d 501      17.347  13.905 -24.431  0.00  0.00     0.104 H 
ATOM    122  H   IDS d 501      17.857  12.773 -26.017  0.00  0.00     0.212 HD
ATOM    123  O3  IDS d 535       1.440  22.342 -19.388  0.00  0.00    -0.393 OA
ATOM    124  H   IDS d 535       0.594  22.758 -19.155  0.00  0.00     0.210 HD
ENDROOT
TORSDOF 37
ENDMDL
MODEL 27
REMARK VINA RESULT:      -6.1      3.245     12.891
REMARK  0 active torsions:
REMARK  status: ('A' for Active; 'I' for Inactive)
REMARK       I    between atoms: O3_1  and  C3_48 
REMARK       I    between atoms: C1_2  and  O1_8 
REMARK       I    between atoms: O2_5  and  C2_76 
REMARK       I    between atoms: O2_5  and  S_66 
REMARK       I    between atoms: C2_7  and  N_46 
REMARK       I    between atoms: O1_8  and  C4_39 
REMARK       I    between atoms: C2_12  and  N_23 
REMARK       I    between atoms: O2S_13  and  S1_25 
REMARK       I    between atoms: C1_14  and  O1_65 
REMARK       I    between atoms: O3_15  and  C3_69 
REMARK       I    between atoms: C5_16  and  C6_31 
REMARK       I    between atoms: C5_17  and  C6_68 
REMARK       I    between atoms: C5_18  and  C6_71 
REMARK       I    between atoms: O3S_19  and  S1_25 
REMARK       I    between atoms: C6_20  and  C5_28 
REMARK       I    between atoms: C6_20  and  O6_74 
REMARK       I    between atoms: C4_21  and  O1_35 
REMARK       I    between atoms: S2_22  and  O6_74 
REMARK       I    between atoms: N_23  and  S1_25 
REMARK       I    between atoms: O1S_24  and  S1_25 
REMARK       I    between atoms: C4_27  and  O1_63 
REMARK       I    between atoms: O1_29  and  C4_49 
REMARK       I    between atoms: O1_29  and  C1_73 
REMARK       I    between atoms: O2_30  and  C2_78 
REMARK       I    between atoms: O3_33  and  C3_42 
REMARK       I    between atoms: O1_35  and  C1_77 
REMARK       I    between atoms: O3S_37  and  S1_50 
REMARK       I    between atoms: C2_38  and  O2_45 
REMARK       I    between atoms: C6_40  and  C5_51 
REMARK       I    between atoms: C3_41  and  O3_67 
REMARK       I    between atoms: N_46  and  S1_50 
REMARK       I    between atoms: O6_47  and  C6_71 
REMARK       I    between atoms: O6_47  and  S2_72 
REMARK       I    between atoms: S1_50  and  O1S_61 
REMARK       I    between atoms: S1_50  and  O2S_54 
REMARK       I    between atoms: O3_56  and  C3_75 
REMARK       I    between atoms: C1_58  and  O1_63 
ROOT
ATOM      1  O3  SGN d 502       9.304  20.522 -16.496  0.00  0.00    -0.391 OA
ATOM      2  C1  SGN d 502      12.524  19.303 -18.030  0.00  0.00     0.150 C 
ATOM      3  O6S SGN d 502       9.454  14.591 -21.124  0.00  0.00    -0.572 OA
ATOM      4  C2  SGN d 502      11.386  20.306 -17.699  0.00  0.00     0.081 C 
ATOM      5  O1  SGN d 502      13.259  18.965 -16.871  0.00  0.00    -0.348 OA
ATOM      6  O5  SGN d 502      11.987  18.119 -18.639  0.00  0.00    -0.349 OA
ATOM      7  C6  SGN d 502      10.552  16.184 -18.706  0.00  0.00     0.067 C 
ATOM      8  S2  SGN d 502       9.797  15.976 -21.267  0.00  0.00     0.251 S 
ATOM      9  C5  SGN d 502      10.949  17.431 -17.893  0.00  0.00     0.091 C 
ATOM     10  O3S SGN d 502      13.350  22.508 -18.787  0.00  0.00    -0.296 OA
ATOM     11  N   SGN d 502      11.977  21.485 -17.050  0.00  0.00    -0.210 NA
ATOM     12  C3  SGN d 502      10.349  19.616 -16.793  0.00  0.00     0.083 C 
ATOM     13  C4  SGN d 502       9.772  18.407 -17.566  0.00  0.00     0.095 C 
ATOM     14  S1  SGN d 502      12.247  22.842 -17.930  0.00  0.00     0.156 S 
ATOM     15  O2S SGN d 502      12.583  23.863 -16.980  0.00  0.00    -0.296 OA
ATOM     16  O4S SGN d 502       8.845  16.709 -22.043  0.00  0.00    -0.572 OA
ATOM     17  O1S SGN d 502      11.066  23.144 -18.681  0.00  0.00    -0.296 OA
ATOM     18  O5S SGN d 502      11.146  16.161 -21.721  0.00  0.00    -0.572 OA
ATOM     19  O6  SGN d 502       9.779  16.580 -19.824  0.00  0.00    -0.254 OA
ATOM     20  H   SGN d 502       9.663  21.281 -16.010  0.00  0.00     0.210 HD
ATOM     21  H   SGN d 502      13.190  19.775 -18.722  0.00  0.00     0.131 H 
ATOM     22  H   SGN d 502      10.884  20.625 -18.588  0.00  0.00     0.076 H 
ATOM     23  H   SGN d 502       9.978  15.523 -18.091  0.00  0.00     0.080 H 
ATOM     24  H   SGN d 502      11.434  15.679 -19.041  0.00  0.00     0.080 H 
ATOM     25  H   SGN d 502      11.288  17.099 -16.935  0.00  0.00     0.090 H 
ATOM     26  H   SGN d 502      13.078  21.816 -19.409  0.00  0.00     0.231 HD
ATOM     27  H   SGN d 502      12.878  21.195 -16.670  0.00  0.00     0.140 HD
ATOM     28  H   SGN d 502      10.805  19.296 -15.879  0.00  0.00     0.089 H 
ATOM     29  H   SGN d 502       9.318  18.612 -18.513  0.00  0.00     0.091 H 
ATOM     30  H   SGN d 502      13.387  23.608 -16.502  0.00  0.00     0.231 HD
ATOM     31  H   SGN d 502      10.887  22.423 -19.305  0.00  0.00     0.231 HD
ATOM     32  O62 IDS d 503       5.614  21.555 -15.810  0.00  0.00    -0.646 OA
ATOM     33  O2  IDS d 503       6.036  15.665 -17.016  0.00  0.00    -0.244 OA
ATOM     34  O5  IDS d 503       6.691  18.617 -17.380  0.00  0.00    -0.340 OA
ATOM     35  C5  IDS d 503       6.258  19.295 -16.192  0.00  0.00     0.152 C 
ATOM     36  C4  IDS d 503       5.346  18.348 -15.378  0.00  0.00     0.103 C 
ATOM     37  O61 IDS d 503       5.106  20.790 -17.668  0.00  0.00    -0.646 OA
ATOM     38  O1  IDS d 503       8.802  17.895 -16.654  0.00  0.00    -0.348 OA
ATOM     39  C6  IDS d 503       5.620  20.624 -16.583  0.00  0.00     0.206 C 
ATOM     40  O1S IDS d 503       6.356  13.346 -16.489  0.00  0.00    -0.572 OA
ATOM     41  O3S IDS d 503       7.527  14.310 -18.333  0.00  0.00    -0.572 OA
ATOM     42  C3  IDS d 503       6.124  17.047 -15.038  0.00  0.00     0.094 C 
ATOM     43  O2S IDS d 503       5.172  13.988 -18.466  0.00  0.00    -0.572 OA
ATOM     44  S   IDS d 503       6.294  14.239 -17.607  0.00  0.00     0.252 S 
ATOM     45  O3  IDS d 503       7.035  17.338 -13.994  0.00  0.00    -0.390 OA
ATOM     46  C1  IDS d 503       7.563  17.509 -17.185  0.00  0.00     0.161 C 
ATOM     47  C2  IDS d 503       6.915  16.459 -16.242  0.00  0.00     0.134 C 
ATOM     48  H   IDS d 503       7.075  19.542 -15.547  0.00  0.00     0.104 H 
ATOM     49  H   IDS d 503       5.059  18.904 -14.510  0.00  0.00     0.092 H 
ATOM     50  H   IDS d 503       5.402  16.309 -14.755  0.00  0.00     0.091 H 
ATOM     51  H   IDS d 503       7.667  18.009 -14.294  0.00  0.00     0.210 HD
ATOM     52  H   IDS d 503       7.729  17.080 -18.150  0.00  0.00     0.133 H 
ATOM     53  H   IDS d 503       7.721  15.902 -15.811  0.00  0.00     0.097 H 
ATOM     54  C4  IDS d 505      -2.864  20.620 -20.522  0.00  0.00    -0.005 C 
ATOM     55  C5  IDS d 505      -2.579  19.327 -19.688  0.00  0.00     0.127 C 
ATOM     56  O2  IDS d 505       0.108  22.494 -19.135  0.00  0.00    -0.388 OA
ATOM     57  O62 IDS d 505      -4.444  18.452 -18.453  0.00  0.00    -0.646 OA
ATOM     58  C1  IDS d 505      -0.782  20.384 -18.369  0.00  0.00     0.159 C 
ATOM     59  O5  IDS d 505      -2.039  19.687 -18.394  0.00  0.00    -0.343 OA
ATOM     60  O1  IDS d 505       0.300  19.495 -18.408  0.00  0.00    -0.348 OA
ATOM     61  O61 IDS d 505      -4.220  17.750 -20.392  0.00  0.00    -0.646 OA
ATOM     62  C6  IDS d 505      -3.821  18.458 -19.495  0.00  0.00     0.203 C 
ATOM     63  C3  IDS d 505      -2.009  21.826 -20.050  0.00  0.00     0.068 C 
ATOM     64  C2  IDS d 505      -0.628  21.363 -19.562  0.00  0.00     0.107 C 
ATOM     65  H   IDS d 505      -2.643  20.422 -21.550  0.00  0.00     0.041 H 
ATOM     66  H   IDS d 505      -3.894  20.876 -20.386  0.00  0.00     0.041 H 
ATOM     67  H   IDS d 505      -1.870  18.751 -20.244  0.00  0.00     0.100 H 
ATOM     68  H   IDS d 505       0.982  22.212 -18.825  0.00  0.00     0.210 HD
ATOM     69  H   IDS d 505      -0.779  20.934 -17.451  0.00  0.00     0.133 H 
ATOM     70  H   IDS d 505      -2.505  22.311 -19.235  0.00  0.00     0.087 H 
ATOM     71  H   IDS d 505      -0.120  20.865 -20.362  0.00  0.00     0.094 H 
ATOM     72  O4S SGN d 504      -1.047  22.004 -13.525  0.00  0.00    -0.572 OA
ATOM     73  C2  SGN d 504       1.854  17.111 -16.050  0.00  0.00     0.081 C 
ATOM     74  O2S SGN d 504       1.653  13.457 -15.634  0.00  0.00    -0.296 OA
ATOM     75  C5  SGN d 504       2.050  19.985 -16.465  0.00  0.00     0.091 C 
ATOM     76  O3S SGN d 504       3.456  14.438 -14.421  0.00  0.00    -0.296 OA
ATOM     77  N   SGN d 504       2.380  15.741 -16.188  0.00  0.00    -0.210 NA
ATOM     78  O1S SGN d 504       1.234  15.174 -14.024  0.00  0.00    -0.296 OA
ATOM     79  S1  SGN d 504       2.151  14.637 -14.987  0.00  0.00     0.156 S 
ATOM     80  C4  SGN d 504       0.924  19.151 -17.165  0.00  0.00     0.095 C 
ATOM     81  O1  SGN d 504       4.161  17.943 -16.071  0.00  0.00    -0.348 OA
ATOM     82  O6S SGN d 504      -0.243  23.633 -15.081  0.00  0.00    -0.572 OA
ATOM     83  O6  SGN d 504       0.581  21.384 -15.186  0.00  0.00    -0.254 OA
ATOM     84  O5S SGN d 504       1.203  22.795 -13.376  0.00  0.00    -0.572 OA
ATOM     85  O3  SGN d 504       0.487  16.937 -18.040  0.00  0.00    -0.391 OA
ATOM     86  O5  SGN d 504       2.489  19.337 -15.240  0.00  0.00    -0.349 OA
ATOM     87  C6  SGN d 504       1.661  21.424 -16.096  0.00  0.00     0.067 C 
ATOM     88  S2  SGN d 504       0.085  22.521 -14.236  0.00  0.00     0.251 S 
ATOM     89  C3  SGN d 504       1.482  17.728 -17.417  0.00  0.00     0.083 C 
ATOM     90  C1  SGN d 504       2.939  17.986 -15.365  0.00  0.00     0.150 C 
ATOM     91  H   SGN d 504       0.961  17.074 -15.462  0.00  0.00     0.076 H 
ATOM     92  H   SGN d 504       2.309  13.138 -16.273  0.00  0.00     0.231 HD
ATOM     93  H   SGN d 504       2.826  20.032 -17.201  0.00  0.00     0.090 H 
ATOM     94  H   SGN d 504       4.049  14.076 -15.096  0.00  0.00     0.231 HD
ATOM     95  H   SGN d 504       3.389  15.826 -16.318  0.00  0.00     0.140 HD
ATOM     96  H   SGN d 504       1.096  14.526 -13.314  0.00  0.00     0.231 HD
ATOM     97  H   SGN d 504       0.142  19.327 -16.456  0.00  0.00     0.091 H 
ATOM     98  H   SGN d 504       0.835  16.045 -18.198  0.00  0.00     0.210 HD
ATOM     99  H   SGN d 504       1.368  21.955 -16.978  0.00  0.00     0.080 H 
ATOM    100  H   SGN d 504       2.495  21.924 -15.649  0.00  0.00     0.080 H 
ATOM    101  H   SGN d 504       2.342  17.769 -18.052  0.00  0.00     0.089 H 
ATOM    102  H   SGN d 504       3.109  17.583 -14.388  0.00  0.00     0.131 H 
ATOM    103  C1  IDS d 501      17.428  17.609 -16.734  0.00  0.00     0.156 C 
ATOM    104  O3  IDS d 501      15.041  16.639 -18.577  0.00  0.00    -0.390 OA
ATOM    105  C2  IDS d 501      16.912  18.101 -18.114  0.00  0.00     0.110 C 
ATOM    106  C4  IDS d 501      14.577  18.424 -17.031  0.00  0.00     0.103 C 
ATOM    107  C6  IDS d 501      14.520  18.116 -14.452  0.00  0.00     0.206 C 
ATOM    108  C3  IDS d 501      15.373  17.984 -18.294  0.00  0.00     0.092 C 
ATOM    109  O5  IDS d 501      16.597  18.115 -15.691  0.00  0.00    -0.340 OA
ATOM    110  O2  IDS d 501      17.279  19.461 -18.259  0.00  0.00    -0.388 OA
ATOM    111  C5  IDS d 501      15.204  17.764 -15.773  0.00  0.00     0.152 C 
ATOM    112  O62 IDS d 501      13.716  17.363 -13.955  0.00  0.00    -0.646 OA
ATOM    113  O61 IDS d 501      14.759  19.152 -13.871  0.00  0.00    -0.646 OA
ATOM    114  O1  IDS d 501      17.477  16.207 -16.740  0.00  0.00    -0.368 OA
ATOM    115  H   IDS d 501      18.417  17.978 -16.553  0.00  0.00     0.133 H 
ATOM    116  H   IDS d 501      15.527  16.345 -19.363  0.00  0.00     0.210 HD
ATOM    117  H   IDS d 501      17.355  17.471 -18.858  0.00  0.00     0.094 H 
ATOM    118  H   IDS d 501      14.590  19.439 -17.369  0.00  0.00     0.092 H 
ATOM    119  H   IDS d 501      15.103  18.639 -19.096  0.00  0.00     0.091 H 
ATOM    120  H   IDS d 501      16.854  19.987 -17.564  0.00  0.00     0.210 HD
ATOM    121  H   IDS d 501      15.066  16.710 -15.902  0.00  0.00     0.104 H 
ATOM    122  H   IDS d 501      16.589  15.853 -16.904  0.00  0.00     0.212 HD
ATOM    123  O3  IDS d 535      -1.852  22.713 -21.138  0.00  0.00    -0.393 OA
ATOM    124  H   IDS d 535      -2.725  23.005 -21.446  0.00  0.00     0.210 HD
ENDROOT
TORSDOF 37
ENDMDL
MODEL 28
REMARK VINA RESULT:      -6.1      3.024     13.034
REMARK  0 active torsions:
REMARK  status: ('A' for Active; 'I' for Inactive)
REMARK       I    between atoms: O3_1  and  C3_48 
REMARK       I    between atoms: C1_2  and  O1_8 
REMARK       I    between atoms: O2_5  and  C2_76 
REMARK       I    between atoms: O2_5  and  S_66 
REMARK       I    between atoms: C2_7  and  N_46 
REMARK       I    between atoms: O1_8  and  C4_39 
REMARK       I    between atoms: C2_12  and  N_23 
REMARK       I    between atoms: O2S_13  and  S1_25 
REMARK       I    between atoms: C1_14  and  O1_65 
REMARK       I    between atoms: O3_15  and  C3_69 
REMARK       I    between atoms: C5_16  and  C6_31 
REMARK       I    between atoms: C5_17  and  C6_68 
REMARK       I    between atoms: C5_18  and  C6_71 
REMARK       I    between atoms: O3S_19  and  S1_25 
REMARK       I    between atoms: C6_20  and  C5_28 
REMARK       I    between atoms: C6_20  and  O6_74 
REMARK       I    between atoms: C4_21  and  O1_35 
REMARK       I    between atoms: S2_22  and  O6_74 
REMARK       I    between atoms: N_23  and  S1_25 
REMARK       I    between atoms: O1S_24  and  S1_25 
REMARK       I    between atoms: C4_27  and  O1_63 
REMARK       I    between atoms: O1_29  and  C4_49 
REMARK       I    between atoms: O1_29  and  C1_73 
REMARK       I    between atoms: O2_30  and  C2_78 
REMARK       I    between atoms: O3_33  and  C3_42 
REMARK       I    between atoms: O1_35  and  C1_77 
REMARK       I    between atoms: O3S_37  and  S1_50 
REMARK       I    between atoms: C2_38  and  O2_45 
REMARK       I    between atoms: C6_40  and  C5_51 
REMARK       I    between atoms: C3_41  and  O3_67 
REMARK       I    between atoms: N_46  and  S1_50 
REMARK       I    between atoms: O6_47  and  C6_71 
REMARK       I    between atoms: O6_47  and  S2_72 
REMARK       I    between atoms: S1_50  and  O1S_61 
REMARK       I    between atoms: S1_50  and  O2S_54 
REMARK       I    between atoms: O3_56  and  C3_75 
REMARK       I    between atoms: C1_58  and  O1_63 
ROOT
ATOM      1  O3  SGN d 502       7.069  19.589 -22.608  0.00  0.00    -0.391 OA
ATOM      2  C1  SGN d 502      10.753  18.787 -22.654  0.00  0.00     0.150 C 
ATOM      3  O6S SGN d 502       9.796  13.434 -19.244  0.00  0.00    -0.572 OA
ATOM      4  C2  SGN d 502       9.345  19.089 -23.238  0.00  0.00     0.081 C 
ATOM      5  O1  SGN d 502      11.277  19.915 -21.983  0.00  0.00    -0.348 OA
ATOM      6  O5  SGN d 502      10.695  17.663 -21.764  0.00  0.00    -0.349 OA
ATOM      7  C6  SGN d 502       9.875  16.474 -19.835  0.00  0.00     0.067 C 
ATOM      8  S2  SGN d 502       9.783  13.908 -20.597  0.00  0.00     0.251 S 
ATOM      9  C5  SGN d 502       9.738  17.757 -20.676  0.00  0.00     0.091 C 
ATOM     10  O3S SGN d 502      10.845  19.517 -25.968  0.00  0.00    -0.296 OA
ATOM     11  N   SGN d 502       9.445  20.264 -24.116  0.00  0.00    -0.210 NA
ATOM     12  C3  SGN d 502       8.355  19.324 -22.081  0.00  0.00     0.083 C 
ATOM     13  C4  SGN d 502       8.303  18.033 -21.231  0.00  0.00     0.095 C 
ATOM     14  S1  SGN d 502       9.533  20.053 -25.740  0.00  0.00     0.156 S 
ATOM     15  O2S SGN d 502       9.369  21.359 -26.311  0.00  0.00    -0.296 OA
ATOM     16  O4S SGN d 502       8.865  13.192 -21.429  0.00  0.00    -0.572 OA
ATOM     17  O1S SGN d 502       8.509  19.136 -26.139  0.00  0.00    -0.296 OA
ATOM     18  O5S SGN d 502      11.101  13.987 -21.162  0.00  0.00    -0.572 OA
ATOM     19  O6  SGN d 502       9.289  15.392 -20.535  0.00  0.00    -0.254 OA
ATOM     20  H   SGN d 502       7.099  20.398 -23.141  0.00  0.00     0.210 HD
ATOM     21  H   SGN d 502      11.404  18.551 -23.468  0.00  0.00     0.131 H 
ATOM     22  H   SGN d 502       8.984  18.264 -23.815  0.00  0.00     0.076 H 
ATOM     23  H   SGN d 502       9.376  16.605 -18.898  0.00  0.00     0.080 H 
ATOM     24  H   SGN d 502      10.910  16.269 -19.659  0.00  0.00     0.080 H 
ATOM     25  H   SGN d 502       9.934  18.589 -20.032  0.00  0.00     0.090 H 
ATOM     26  H   SGN d 502      10.909  18.637 -25.565  0.00  0.00     0.231 HD
ATOM     27  H   SGN d 502      10.285  20.772 -23.837  0.00  0.00     0.140 HD
ATOM     28  H   SGN d 502       8.667  20.155 -21.485  0.00  0.00     0.089 H 
ATOM     29  H   SGN d 502       8.031  17.132 -21.738  0.00  0.00     0.091 H 
ATOM     30  H   SGN d 502      10.087  21.937 -26.008  0.00  0.00     0.231 HD
ATOM     31  H   SGN d 502       8.669  18.273 -25.725  0.00  0.00     0.231 HD
ATOM     32  O62 IDS d 503       3.180  19.430 -22.674  0.00  0.00    -0.646 OA
ATOM     33  O2  IDS d 503       5.401  16.394 -17.965  0.00  0.00    -0.244 OA
ATOM     34  O5  IDS d 503       5.314  17.326 -20.862  0.00  0.00    -0.340 OA
ATOM     35  C5  IDS d 503       4.467  18.484 -20.908  0.00  0.00     0.152 C 
ATOM     36  C4  IDS d 503       3.683  18.584 -19.579  0.00  0.00     0.103 C 
ATOM     37  O61 IDS d 503       3.313  17.361 -22.683  0.00  0.00    -0.646 OA
ATOM     38  O1  IDS d 503       7.328  18.358 -20.242  0.00  0.00    -0.348 OA
ATOM     39  C6  IDS d 503       3.602  18.418 -22.163  0.00  0.00     0.206 C 
ATOM     40  O1S IDS d 503       6.199  16.130 -15.718  0.00  0.00    -0.572 OA
ATOM     41  O3S IDS d 503       7.448  15.205 -17.531  0.00  0.00    -0.572 OA
ATOM     42  C3  IDS d 503       4.683  18.659 -18.393  0.00  0.00     0.094 C 
ATOM     43  O2S IDS d 503       5.352  14.251 -16.932  0.00  0.00    -0.572 OA
ATOM     44  S   IDS d 503       6.150  15.442 -16.973  0.00  0.00     0.252 S 
ATOM     45  O3  IDS d 503       5.232  19.963 -18.361  0.00  0.00    -0.390 OA
ATOM     46  C1  IDS d 503       6.383  17.371 -19.925  0.00  0.00     0.161 C 
ATOM     47  C2  IDS d 503       5.845  17.630 -18.490  0.00  0.00     0.134 C 
ATOM     48  H   IDS d 503       5.027  19.392 -20.988  0.00  0.00     0.104 H 
ATOM     49  H   IDS d 503       3.076  19.460 -19.672  0.00  0.00     0.092 H 
ATOM     50  H   IDS d 503       4.139  18.424 -17.502  0.00  0.00     0.091 H 
ATOM     51  H   IDS d 503       5.714  20.132 -19.185  0.00  0.00     0.210 HD
ATOM     52  H   IDS d 503       6.865  16.417 -19.967  0.00  0.00     0.133 H 
ATOM     53  H   IDS d 503       6.655  18.058 -17.937  0.00  0.00     0.097 H 
ATOM     54  C4  IDS d 505      -3.499  12.337 -22.481  0.00  0.00    -0.005 C 
ATOM     55  C5  IDS d 505      -3.072  12.699 -21.020  0.00  0.00     0.127 C 
ATOM     56  O2  IDS d 505      -1.509  15.141 -24.044  0.00  0.00    -0.388 OA
ATOM     57  O62 IDS d 505      -4.863  12.904 -19.432  0.00  0.00    -0.646 OA
ATOM     58  C1  IDS d 505      -1.954  14.791 -21.697  0.00  0.00     0.159 C 
ATOM     59  O5  IDS d 505      -2.944  14.134 -20.888  0.00  0.00    -0.343 OA
ATOM     60  O1  IDS d 505      -0.694  14.772 -21.084  0.00  0.00    -0.348 OA
ATOM     61  O61 IDS d 505      -4.041  11.011 -19.645  0.00  0.00    -0.646 OA
ATOM     62  C6  IDS d 505      -4.051  12.177 -19.968  0.00  0.00     0.203 C 
ATOM     63  C3  IDS d 505      -3.119  13.445 -23.497  0.00  0.00     0.068 C 
ATOM     64  C2  IDS d 505      -1.807  14.135 -23.094  0.00  0.00     0.107 C 
ATOM     65  H   IDS d 505      -3.014  11.427 -22.766  0.00  0.00     0.041 H 
ATOM     66  H   IDS d 505      -4.564  12.232 -22.494  0.00  0.00     0.041 H 
ATOM     67  H   IDS d 505      -2.131  12.220 -20.845  0.00  0.00     0.100 H 
ATOM     68  H   IDS d 505      -0.682  15.583 -23.798  0.00  0.00     0.210 HD
ATOM     69  H   IDS d 505      -2.299  15.798 -21.808  0.00  0.00     0.133 H 
ATOM     70  H   IDS d 505      -3.892  14.186 -23.515  0.00  0.00     0.087 H 
ATOM     71  H   IDS d 505      -1.022  13.407 -23.060  0.00  0.00     0.094 H 
ATOM     72  O4S SGN d 504      -3.695  19.561 -21.090  0.00  0.00    -0.572 OA
ATOM     73  C2  SGN d 504       0.879  16.478 -18.208  0.00  0.00     0.081 C 
ATOM     74  O2S SGN d 504       1.566  15.480 -14.731  0.00  0.00    -0.296 OA
ATOM     75  C5  SGN d 504       0.393  17.198 -20.986  0.00  0.00     0.091 C 
ATOM     76  O3S SGN d 504       2.733  17.454 -15.385  0.00  0.00    -0.296 OA
ATOM     77  N   SGN d 504       1.766  16.029 -17.120  0.00  0.00    -0.210 NA
ATOM     78  O1S SGN d 504       0.365  17.385 -15.533  0.00  0.00    -0.296 OA
ATOM     79  S1  SGN d 504       1.579  16.625 -15.596  0.00  0.00     0.156 S 
ATOM     80  C4  SGN d 504      -0.290  15.937 -20.356  0.00  0.00     0.095 C 
ATOM     81  O1  SGN d 504       2.829  17.465 -19.321  0.00  0.00    -0.348 OA
ATOM     82  O6S SGN d 504      -3.030  19.017 -23.322  0.00  0.00    -0.572 OA
ATOM     83  O6  SGN d 504      -1.638  18.375 -21.479  0.00  0.00    -0.254 OA
ATOM     84  O5S SGN d 504      -1.824  20.666 -22.087  0.00  0.00    -0.572 OA
ATOM     85  O3  SGN d 504       0.078  14.241 -18.668  0.00  0.00    -0.391 OA
ATOM     86  O5  SGN d 504       0.707  18.182 -19.964  0.00  0.00    -0.349 OA
ATOM     87  C6  SGN d 504      -0.435  17.917 -22.062  0.00  0.00     0.067 C 
ATOM     88  S2  SGN d 504      -2.613  19.466 -22.025  0.00  0.00     0.251 S 
ATOM     89  C3  SGN d 504       0.666  15.378 -19.273  0.00  0.00     0.083 C 
ATOM     90  C1  SGN d 504       1.516  17.728 -18.875  0.00  0.00     0.150 C 
ATOM     91  H   SGN d 504      -0.079  16.710 -17.792  0.00  0.00     0.076 H 
ATOM     92  H   SGN d 504       2.408  15.003 -14.813  0.00  0.00     0.231 HD
ATOM     93  H   SGN d 504       1.271  16.803 -21.455  0.00  0.00     0.090 H 
ATOM     94  H   SGN d 504       3.534  16.911 -15.434  0.00  0.00     0.231 HD
ATOM     95  H   SGN d 504       2.719  16.254 -17.407  0.00  0.00     0.140 HD
ATOM     96  H   SGN d 504       0.251  17.738 -14.636  0.00  0.00     0.231 HD
ATOM     97  H   SGN d 504      -1.227  16.385 -20.097  0.00  0.00     0.091 H 
ATOM     98  H   SGN d 504       0.676  13.890 -17.990  0.00  0.00     0.210 HD
ATOM     99  H   SGN d 504      -0.656  17.239 -22.859  0.00  0.00     0.080 H 
ATOM    100  H   SGN d 504       0.118  18.746 -22.453  0.00  0.00     0.080 H 
ATOM    101  H   SGN d 504       1.602  15.096 -19.708  0.00  0.00     0.089 H 
ATOM    102  H   SGN d 504       1.567  18.499 -18.135  0.00  0.00     0.131 H 
ATOM    103  C1  IDS d 501      15.521  20.832 -21.359  0.00  0.00     0.156 C 
ATOM    104  O3  IDS d 501      13.941  18.127 -20.886  0.00  0.00    -0.390 OA
ATOM    105  C2  IDS d 501      15.209  19.631 -22.294  0.00  0.00     0.110 C 
ATOM    106  C4  IDS d 501      12.693  19.986 -21.769  0.00  0.00     0.103 C 
ATOM    107  C6  IDS d 501      12.155  22.134 -20.411  0.00  0.00     0.206 C 
ATOM    108  C3  IDS d 501      13.834  18.959 -22.025  0.00  0.00     0.092 C 
ATOM    109  O5  IDS d 501      14.377  21.677 -21.248  0.00  0.00    -0.340 OA
ATOM    110  O2  IDS d 501      15.225  20.101 -23.630  0.00  0.00    -0.388 OA
ATOM    111  C5  IDS d 501      13.180  21.053 -20.751  0.00  0.00     0.152 C 
ATOM    112  O62 IDS d 501      11.490  22.057 -19.404  0.00  0.00    -0.646 OA
ATOM    113  O61 IDS d 501      11.978  23.089 -21.134  0.00  0.00    -0.646 OA
ATOM    114  O1  IDS d 501      15.940  20.341 -20.113  0.00  0.00    -0.368 OA
ATOM    115  H   IDS d 501      16.312  21.427 -21.767  0.00  0.00     0.133 H 
ATOM    116  H   IDS d 501      14.648  17.478 -21.025  0.00  0.00     0.210 HD
ATOM    117  H   IDS d 501      15.955  18.886 -22.108  0.00  0.00     0.094 H 
ATOM    118  H   IDS d 501      12.511  20.054 -22.821  0.00  0.00     0.092 H 
ATOM    119  H   IDS d 501      13.583  18.401 -22.903  0.00  0.00     0.091 H 
ATOM    120  H   IDS d 501      14.534  20.771 -23.745  0.00  0.00     0.210 HD
ATOM    121  H   IDS d 501      13.358  20.520 -19.840  0.00  0.00     0.104 H 
ATOM    122  H   IDS d 501      15.235  19.798 -19.726  0.00  0.00     0.212 HD
ATOM    123  O3  IDS d 535      -2.968  12.851 -24.770  0.00  0.00    -0.393 OA
ATOM    124  H   IDS d 535      -3.797  12.415 -25.024  0.00  0.00     0.210 HD
ENDROOT
TORSDOF 37
ENDMDL
MODEL 29
REMARK VINA RESULT:      -6.1      2.584     12.898
REMARK  0 active torsions:
REMARK  status: ('A' for Active; 'I' for Inactive)
REMARK       I    between atoms: O3_1  and  C3_48 
REMARK       I    between atoms: C1_2  and  O1_8 
REMARK       I    between atoms: O2_5  and  C2_76 
REMARK       I    between atoms: O2_5  and  S_66 
REMARK       I    between atoms: C2_7  and  N_46 
REMARK       I    between atoms: O1_8  and  C4_39 
REMARK       I    between atoms: C2_12  and  N_23 
REMARK       I    between atoms: O2S_13  and  S1_25 
REMARK       I    between atoms: C1_14  and  O1_65 
REMARK       I    between atoms: O3_15  and  C3_69 
REMARK       I    between atoms: C5_16  and  C6_31 
REMARK       I    between atoms: C5_17  and  C6_68 
REMARK       I    between atoms: C5_18  and  C6_71 
REMARK       I    between atoms: O3S_19  and  S1_25 
REMARK       I    between atoms: C6_20  and  C5_28 
REMARK       I    between atoms: C6_20  and  O6_74 
REMARK       I    between atoms: C4_21  and  O1_35 
REMARK       I    between atoms: S2_22  and  O6_74 
REMARK       I    between atoms: N_23  and  S1_25 
REMARK       I    between atoms: O1S_24  and  S1_25 
REMARK       I    between atoms: C4_27  and  O1_63 
REMARK       I    between atoms: O1_29  and  C4_49 
REMARK       I    between atoms: O1_29  and  C1_73 
REMARK       I    between atoms: O2_30  and  C2_78 
REMARK       I    between atoms: O3_33  and  C3_42 
REMARK       I    between atoms: O1_35  and  C1_77 
REMARK       I    between atoms: O3S_37  and  S1_50 
REMARK       I    between atoms: C2_38  and  O2_45 
REMARK       I    between atoms: C6_40  and  C5_51 
REMARK       I    between atoms: C3_41  and  O3_67 
REMARK       I    between atoms: N_46  and  S1_50 
REMARK       I    between atoms: O6_47  and  C6_71 
REMARK       I    between atoms: O6_47  and  S2_72 
REMARK       I    between atoms: S1_50  and  O1S_61 
REMARK       I    between atoms: S1_50  and  O2S_54 
REMARK       I    between atoms: O3_56  and  C3_75 
REMARK       I    between atoms: C1_58  and  O1_63 
ROOT
ATOM      1  O3  SGN d 502       7.680  20.709 -20.927  0.00  0.00    -0.391 OA
ATOM      2  C1  SGN d 502      11.394  20.294 -20.427  0.00  0.00     0.150 C 
ATOM      3  O6S SGN d 502      10.508  14.840 -17.159  0.00  0.00    -0.572 OA
ATOM      4  C2  SGN d 502      10.064  20.453 -21.213  0.00  0.00     0.081 C 
ATOM      5  O1  SGN d 502      11.694  21.464 -19.694  0.00  0.00    -0.348 OA
ATOM      6  O5  SGN d 502      11.323  19.162 -19.547  0.00  0.00    -0.349 OA
ATOM      7  C6  SGN d 502      10.357  17.877 -17.752  0.00  0.00     0.067 C 
ATOM      8  S2  SGN d 502      10.644  15.322 -18.503  0.00  0.00     0.251 S 
ATOM      9  C5  SGN d 502      10.212  19.147 -18.612  0.00  0.00     0.091 C 
ATOM     10  O3S SGN d 502      11.895  21.059 -23.696  0.00  0.00    -0.296 OA
ATOM     11  N   SGN d 502      10.169  21.640 -22.074  0.00  0.00    -0.210 NA
ATOM     12  C3  SGN d 502       8.896  20.574 -20.216  0.00  0.00     0.083 C 
ATOM     13  C4  SGN d 502       8.854  19.278 -19.374  0.00  0.00     0.095 C 
ATOM     14  S1  SGN d 502      10.516  21.454 -23.666  0.00  0.00     0.156 S 
ATOM     15  O2S SGN d 502      10.303  22.741 -24.264  0.00  0.00    -0.296 OA
ATOM     16  O4S SGN d 502       9.938  14.522 -19.456  0.00  0.00    -0.572 OA
ATOM     17  O1S SGN d 502       9.662  20.439 -24.206  0.00  0.00    -0.296 OA
ATOM     18  O5S SGN d 502      12.015  15.543 -18.868  0.00  0.00    -0.572 OA
ATOM     19  O6  SGN d 502       9.996  16.746 -18.524  0.00  0.00    -0.254 OA
ATOM     20  H   SGN d 502       7.704  21.521 -21.456  0.00  0.00     0.210 HD
ATOM     21  H   SGN d 502      12.179  20.133 -21.135  0.00  0.00     0.131 H 
ATOM     22  H   SGN d 502       9.879  19.600 -21.832  0.00  0.00     0.076 H 
ATOM     23  H   SGN d 502       9.714  17.947 -16.899  0.00  0.00     0.080 H 
ATOM     24  H   SGN d 502      11.371  17.779 -17.425  0.00  0.00     0.080 H 
ATOM     25  H   SGN d 502      10.225  19.988 -17.952  0.00  0.00     0.090 H 
ATOM     26  H   SGN d 502      11.991  20.187 -23.282  0.00  0.00     0.231 HD
ATOM     27  H   SGN d 502      10.901  22.230 -21.679  0.00  0.00     0.140 HD
ATOM     28  H   SGN d 502       9.029  21.428 -19.586  0.00  0.00     0.089 H 
ATOM     29  H   SGN d 502       8.754  18.357 -19.910  0.00  0.00     0.091 H 
ATOM     30  H   SGN d 502      10.904  23.387 -23.862  0.00  0.00     0.231 HD
ATOM     31  H   SGN d 502       9.848  19.594 -23.767  0.00  0.00     0.231 HD
ATOM     32  O62 IDS d 503       3.881  20.148 -21.563  0.00  0.00    -0.646 OA
ATOM     33  O2  IDS d 503       5.689  17.317 -16.559  0.00  0.00    -0.244 OA
ATOM     34  O5  IDS d 503       5.932  18.261 -19.444  0.00  0.00    -0.340 OA
ATOM     35  C5  IDS d 503       4.986  19.325 -19.621  0.00  0.00     0.152 C 
ATOM     36  C4  IDS d 503       4.009  19.332 -18.423  0.00  0.00     0.103 C 
ATOM     37  O61 IDS d 503       4.228  18.104 -21.540  0.00  0.00    -0.646 OA
ATOM     38  O1  IDS d 503       7.715  19.490 -18.541  0.00  0.00    -0.348 OA
ATOM     39  C6  IDS d 503       4.326  19.181 -20.989  0.00  0.00     0.206 C 
ATOM     40  O1S IDS d 503       6.172  17.117 -14.218  0.00  0.00    -0.572 OA
ATOM     41  O3S IDS d 503       7.763  16.343 -15.821  0.00  0.00    -0.572 OA
ATOM     42  C3  IDS d 503       4.811  19.499 -17.103  0.00  0.00     0.094 C 
ATOM     43  O2S IDS d 503       5.712  15.171 -15.531  0.00  0.00    -0.572 OA
ATOM     44  S   IDS d 503       6.379  16.440 -15.462  0.00  0.00     0.252 S 
ATOM     45  O3  IDS d 503       5.211  20.853 -16.999  0.00  0.00    -0.390 OA
ATOM     46  C1  IDS d 503       6.842  18.408 -18.360  0.00  0.00     0.161 C 
ATOM     47  C2  IDS d 503       6.075  18.597 -17.022  0.00  0.00     0.134 C 
ATOM     48  H   IDS d 503       5.454  20.287 -19.624  0.00  0.00     0.104 H 
ATOM     49  H   IDS d 503       3.334  20.141 -18.609  0.00  0.00     0.092 H 
ATOM     50  H   IDS d 503       4.169  19.201 -16.300  0.00  0.00     0.091 H 
ATOM     51  H   IDS d 503       5.789  21.078 -17.745  0.00  0.00     0.210 HD
ATOM     52  H   IDS d 503       7.421  17.510 -18.325  0.00  0.00     0.133 H 
ATOM     53  H   IDS d 503       6.746  19.102 -16.358  0.00  0.00     0.097 H 
ATOM     54  C4  IDS d 505      -1.982  12.400 -22.307  0.00  0.00    -0.005 C 
ATOM     55  C5  IDS d 505      -1.813  12.791 -20.802  0.00  0.00     0.127 C 
ATOM     56  O2  IDS d 505      -0.086  15.409 -23.580  0.00  0.00    -0.388 OA
ATOM     57  O62 IDS d 505      -3.829  12.795 -19.496  0.00  0.00    -0.646 OA
ATOM     58  C1  IDS d 505      -0.832  14.993 -21.321  0.00  0.00     0.159 C 
ATOM     59  O5  IDS d 505      -1.856  14.231 -20.662  0.00  0.00    -0.343 OA
ATOM     60  O1  IDS d 505       0.320  15.100 -20.530  0.00  0.00    -0.348 OA
ATOM     61  O61 IDS d 505      -2.793  11.000 -19.574  0.00  0.00    -0.646 OA
ATOM     62  C6  IDS d 505      -2.876  12.162 -19.902  0.00  0.00     0.203 C 
ATOM     63  C3  IDS d 505      -1.574  13.551 -23.264  0.00  0.00     0.068 C 
ATOM     64  C2  IDS d 505      -0.413  14.369 -22.677  0.00  0.00     0.107 C 
ATOM     65  H   IDS d 505      -1.368  11.548 -22.512  0.00  0.00     0.041 H 
ATOM     66  H   IDS d 505      -3.016  12.185 -22.476  0.00  0.00     0.041 H 
ATOM     67  H   IDS d 505      -0.864  12.411 -20.488  0.00  0.00     0.100 H 
ATOM     68  H   IDS d 505       0.646  15.932 -23.218  0.00  0.00     0.210 HD
ATOM     69  H   IDS d 505      -1.259  15.960 -21.488  0.00  0.00     0.133 H 
ATOM     70  H   IDS d 505      -2.408  14.207 -23.401  0.00  0.00     0.087 H 
ATOM     71  H   IDS d 505       0.429  13.726 -22.524  0.00  0.00     0.094 H 
ATOM     72  O4S SGN d 504      -3.129  19.552 -21.008  0.00  0.00    -0.572 OA
ATOM     73  C2  SGN d 504       1.268  16.934 -17.465  0.00  0.00     0.081 C 
ATOM     74  O2S SGN d 504       1.537  15.982 -13.918  0.00  0.00    -0.296 OA
ATOM     75  C5  SGN d 504       1.123  17.624 -20.289  0.00  0.00     0.091 C 
ATOM     76  O3S SGN d 504       2.576  18.072 -14.406  0.00  0.00    -0.296 OA
ATOM     77  N   SGN d 504       2.028  16.570 -16.255  0.00  0.00    -0.210 NA
ATOM     78  O1S SGN d 504       0.276  17.759 -14.900  0.00  0.00    -0.296 OA
ATOM     79  S1  SGN d 504       1.558  17.129 -14.779  0.00  0.00     0.156 S 
ATOM     80  C4  SGN d 504       0.490  16.294 -19.757  0.00  0.00     0.095 C 
ATOM     81  O1  SGN d 504       3.247  18.127 -18.286  0.00  0.00    -0.348 OA
ATOM     82  O6S SGN d 504      -2.090  19.100 -23.114  0.00  0.00    -0.572 OA
ATOM     83  O6  SGN d 504      -0.925  18.589 -21.082  0.00  0.00    -0.254 OA
ATOM     84  O5S SGN d 504      -1.256  20.854 -21.726  0.00  0.00    -0.572 OA
ATOM     85  O3  SGN d 504       0.780  14.631 -18.023  0.00  0.00    -0.391 OA
ATOM     86  O5  SGN d 504       1.180  18.627 -19.238  0.00  0.00    -0.349 OA
ATOM     87  C6  SGN d 504       0.392  18.264 -21.479  0.00  0.00     0.067 C 
ATOM     88  S2  SGN d 504      -1.917  19.578 -21.773  0.00  0.00     0.251 S 
ATOM     89  C3  SGN d 504       1.329  15.828 -18.542  0.00  0.00     0.083 C 
ATOM     90  C1  SGN d 504       1.863  18.250 -18.039  0.00  0.00     0.150 C 
ATOM     91  H   SGN d 504       0.241  17.062 -17.196  0.00  0.00     0.076 H 
ATOM     92  H   SGN d 504       2.427  15.596 -13.872  0.00  0.00     0.231 HD
ATOM     93  H   SGN d 504       2.097  17.327 -20.621  0.00  0.00     0.090 H 
ATOM     94  H   SGN d 504       3.428  17.615 -14.333  0.00  0.00     0.231 HD
ATOM     95  H   SGN d 504       2.984  16.895 -16.401  0.00  0.00     0.140 HD
ATOM     96  H   SGN d 504      -0.005  18.090 -14.032  0.00  0.00     0.231 HD
ATOM     97  H   SGN d 504      -0.516  16.640 -19.642  0.00  0.00     0.091 H 
ATOM     98  H   SGN d 504       1.305  14.337 -17.262  0.00  0.00     0.210 HD
ATOM     99  H   SGN d 504       0.362  17.573 -22.296  0.00  0.00     0.080 H 
ATOM    100  H   SGN d 504       0.907  19.149 -21.790  0.00  0.00     0.080 H 
ATOM    101  H   SGN d 504       2.343  15.648 -18.833  0.00  0.00     0.089 H 
ATOM    102  H   SGN d 504       1.724  19.014 -17.304  0.00  0.00     0.131 H 
ATOM    103  C1  IDS d 501      15.682  22.810 -18.458  0.00  0.00     0.156 C 
ATOM    104  O3  IDS d 501      14.339  19.952 -18.205  0.00  0.00    -0.390 OA
ATOM    105  C2  IDS d 501      15.637  21.592 -19.421  0.00  0.00     0.110 C 
ATOM    106  C4  IDS d 501      13.048  21.679 -19.274  0.00  0.00     0.103 C 
ATOM    107  C6  IDS d 501      12.097  23.748 -18.024  0.00  0.00     0.206 C 
ATOM    108  C3  IDS d 501      14.315  20.778 -19.353  0.00  0.00     0.092 C 
ATOM    109  O5  IDS d 501      14.453  23.531 -18.522  0.00  0.00    -0.340 OA
ATOM    110  O2  IDS d 501      15.800  22.073 -20.743  0.00  0.00    -0.388 OA
ATOM    111  C5  IDS d 501      13.267  22.782 -18.203  0.00  0.00     0.152 C 
ATOM    112  O62 IDS d 501      11.303  23.593 -17.125  0.00  0.00    -0.646 OA
ATOM    113  O61 IDS d 501      11.930  24.686 -18.771  0.00  0.00    -0.646 OA
ATOM    114  O1  IDS d 501      15.962  22.354 -17.161  0.00  0.00    -0.368 OA
ATOM    115  H   IDS d 501      16.458  23.487 -18.750  0.00  0.00     0.133 H 
ATOM    116  H   IDS d 501      15.122  19.381 -18.235  0.00  0.00     0.210 HD
ATOM    117  H   IDS d 501      16.421  20.927 -19.123  0.00  0.00     0.094 H 
ATOM    118  H   IDS d 501      13.017  21.737 -20.342  0.00  0.00     0.092 H 
ATOM    119  H   IDS d 501      14.255  20.205 -20.255  0.00  0.00     0.091 H 
ATOM    120  H   IDS d 501      15.068  22.669 -20.963  0.00  0.00     0.210 HD
ATOM    121  H   IDS d 501      13.364  22.263 -17.271  0.00  0.00     0.104 H 
ATOM    122  H   IDS d 501      15.268  21.737 -16.879  0.00  0.00     0.212 HD
ATOM    123  O3  IDS d 535      -1.176  12.986 -24.497  0.00  0.00    -0.393 OA
ATOM    124  H   IDS d 535      -1.909  12.469 -24.867  0.00  0.00     0.210 HD
ENDROOT
TORSDOF 37
ENDMDL
MODEL 30
REMARK VINA RESULT:      -6.1      3.359      7.312
REMARK  0 active torsions:
REMARK  status: ('A' for Active; 'I' for Inactive)
REMARK       I    between atoms: O3_1  and  C3_48 
REMARK       I    between atoms: C1_2  and  O1_8 
REMARK       I    between atoms: O2_5  and  C2_76 
REMARK       I    between atoms: O2_5  and  S_66 
REMARK       I    between atoms: C2_7  and  N_46 
REMARK       I    between atoms: O1_8  and  C4_39 
REMARK       I    between atoms: C2_12  and  N_23 
REMARK       I    between atoms: O2S_13  and  S1_25 
REMARK       I    between atoms: C1_14  and  O1_65 
REMARK       I    between atoms: O3_15  and  C3_69 
REMARK       I    between atoms: C5_16  and  C6_31 
REMARK       I    between atoms: C5_17  and  C6_68 
REMARK       I    between atoms: C5_18  and  C6_71 
REMARK       I    between atoms: O3S_19  and  S1_25 
REMARK       I    between atoms: C6_20  and  C5_28 
REMARK       I    between atoms: C6_20  and  O6_74 
REMARK       I    between atoms: C4_21  and  O1_35 
REMARK       I    between atoms: S2_22  and  O6_74 
REMARK       I    between atoms: N_23  and  S1_25 
REMARK       I    between atoms: O1S_24  and  S1_25 
REMARK       I    between atoms: C4_27  and  O1_63 
REMARK       I    between atoms: O1_29  and  C4_49 
REMARK       I    between atoms: O1_29  and  C1_73 
REMARK       I    between atoms: O2_30  and  C2_78 
REMARK       I    between atoms: O3_33  and  C3_42 
REMARK       I    between atoms: O1_35  and  C1_77 
REMARK       I    between atoms: O3S_37  and  S1_50 
REMARK       I    between atoms: C2_38  and  O2_45 
REMARK       I    between atoms: C6_40  and  C5_51 
REMARK       I    between atoms: C3_41  and  O3_67 
REMARK       I    between atoms: N_46  and  S1_50 
REMARK       I    between atoms: O6_47  and  C6_71 
REMARK       I    between atoms: O6_47  and  S2_72 
REMARK       I    between atoms: S1_50  and  O1S_61 
REMARK       I    between atoms: S1_50  and  O2S_54 
REMARK       I    between atoms: O3_56  and  C3_75 
REMARK       I    between atoms: C1_58  and  O1_63 
ROOT
ATOM      1  O3  SGN d 502       3.942  17.686 -17.726  0.00  0.00    -0.391 OA
ATOM      2  C1  SGN d 502       0.428  16.896 -18.841  0.00  0.00     0.150 C 
ATOM      3  O6S SGN d 502       2.116  17.335 -25.018  0.00  0.00    -0.572 OA
ATOM      4  C2  SGN d 502       1.785  16.674 -18.120  0.00  0.00     0.081 C 
ATOM      5  O1  SGN d 502      -0.280  17.978 -18.269  0.00  0.00    -0.348 OA
ATOM      6  O5  SGN d 502       0.636  17.125 -20.242  0.00  0.00    -0.349 OA
ATOM      7  C6  SGN d 502       1.584  18.298 -22.123  0.00  0.00     0.067 C 
ATOM      8  S2  SGN d 502       2.088  16.393 -23.937  0.00  0.00     0.251 S 
ATOM      9  C5  SGN d 502       1.541  18.208 -20.585  0.00  0.00     0.091 C 
ATOM     10  O3S SGN d 502       0.304  14.369 -16.578  0.00  0.00    -0.296 OA
ATOM     11  N   SGN d 502       1.526  16.476 -16.686  0.00  0.00    -0.210 NA
ATOM     12  C3  SGN d 502       2.699  17.888 -18.372  0.00  0.00     0.083 C 
ATOM     13  C4  SGN d 502       2.929  18.001 -19.897  0.00  0.00     0.095 C 
ATOM     14  S1  SGN d 502       1.511  14.956 -16.071  0.00  0.00     0.156 S 
ATOM     15  O2S SGN d 502       1.486  15.114 -14.645  0.00  0.00    -0.296 OA
ATOM     16  O4S SGN d 502       3.125  15.411 -24.026  0.00  0.00    -0.572 OA
ATOM     17  O1S SGN d 502       2.674  14.262 -16.535  0.00  0.00    -0.296 OA
ATOM     18  O5S SGN d 502       0.788  15.814 -23.749  0.00  0.00    -0.572 OA
ATOM     19  O6  SGN d 502       2.346  17.219 -22.633  0.00  0.00    -0.254 OA
ATOM     20  H   SGN d 502       3.800  17.615 -16.769  0.00  0.00     0.210 HD
ATOM     21  H   SGN d 502      -0.160  16.011 -18.719  0.00  0.00     0.131 H 
ATOM     22  H   SGN d 502       2.283  15.805 -18.498  0.00  0.00     0.076 H 
ATOM     23  H   SGN d 502       2.034  19.223 -22.415  0.00  0.00     0.080 H 
ATOM     24  H   SGN d 502       0.588  18.250 -22.512  0.00  0.00     0.080 H 
ATOM     25  H   SGN d 502       1.203  19.153 -20.215  0.00  0.00     0.090 H 
ATOM     26  H   SGN d 502       0.366  14.282 -17.542  0.00  0.00     0.231 HD
ATOM     27  H   SGN d 502       0.612  16.884 -16.491  0.00  0.00     0.140 HD
ATOM     28  H   SGN d 502       2.248  18.780 -17.992  0.00  0.00     0.089 H 
ATOM     29  H   SGN d 502       3.349  17.148 -20.386  0.00  0.00     0.091 H 
ATOM     30  H   SGN d 502       0.681  15.589 -14.386  0.00  0.00     0.231 HD
ATOM     31  H   SGN d 502       2.639  14.184 -17.502  0.00  0.00     0.231 HD
ATOM     32  O62 IDS d 503       7.809  17.929 -17.355  0.00  0.00    -0.646 OA
ATOM     33  O2  IDS d 503       5.970  20.316 -22.575  0.00  0.00    -0.244 OA
ATOM     34  O5  IDS d 503       5.982  18.266 -20.323  0.00  0.00    -0.340 OA
ATOM     35  C5  IDS d 503       6.641  18.874 -19.203  0.00  0.00     0.152 C 
ATOM     36  C4  IDS d 503       7.368  20.151 -19.682  0.00  0.00     0.103 C 
ATOM     37  O61 IDS d 503       7.996  16.898 -19.144  0.00  0.00    -0.646 OA
ATOM     38  O1  IDS d 503       3.819  19.112 -19.991  0.00  0.00    -0.348 OA
ATOM     39  C6  IDS d 503       7.536  17.837 -18.530  0.00  0.00     0.206 C 
ATOM     40  O1S IDS d 503       5.168  22.058 -24.016  0.00  0.00    -0.572 OA
ATOM     41  O3S IDS d 503       4.120  19.913 -24.062  0.00  0.00    -0.572 OA
ATOM     42  C3  IDS d 503       6.340  21.119 -20.329  0.00  0.00     0.094 C 
ATOM     43  O2S IDS d 503       6.324  20.171 -24.924  0.00  0.00    -0.572 OA
ATOM     44  S   IDS d 503       5.353  20.639 -23.977  0.00  0.00     0.252 S 
ATOM     45  O3  IDS d 503       5.596  21.731 -19.291  0.00  0.00    -0.390 OA
ATOM     46  C1  IDS d 503       4.897  18.997 -20.881  0.00  0.00     0.161 C 
ATOM     47  C2  IDS d 503       5.353  20.420 -21.307  0.00  0.00     0.134 C 
ATOM     48  H   IDS d 503       5.950  19.193 -18.451  0.00  0.00     0.104 H 
ATOM     49  H   IDS d 503       7.835  20.558 -18.809  0.00  0.00     0.092 H 
ATOM     50  H   IDS d 503       6.893  21.830 -20.907  0.00  0.00     0.091 H 
ATOM     51  H   IDS d 503       5.114  21.051 -18.795  0.00  0.00     0.210 HD
ATOM     52  H   IDS d 503       4.569  18.448 -21.738  0.00  0.00     0.133 H 
ATOM     53  H   IDS d 503       4.474  21.031 -21.312  0.00  0.00     0.097 H 
ATOM     54  C4  IDS d 505      15.495  15.284 -22.731  0.00  0.00    -0.005 C 
ATOM     55  C5  IDS d 505      14.982  16.686 -23.198  0.00  0.00     0.127 C 
ATOM     56  O2  IDS d 505      13.135  15.103 -19.787  0.00  0.00    -0.388 OA
ATOM     57  O62 IDS d 505      16.681  18.338 -23.593  0.00  0.00    -0.646 OA
ATOM     58  C1  IDS d 505      13.572  17.011 -21.201  0.00  0.00     0.159 C 
ATOM     59  O5  IDS d 505      14.632  17.489 -22.046  0.00  0.00    -0.343 OA
ATOM     60  O1  IDS d 505      12.315  17.411 -21.675  0.00  0.00    -0.348 OA
ATOM     61  O61 IDS d 505      16.166  17.149 -25.213  0.00  0.00    -0.646 OA
ATOM     62  C6  IDS d 505      16.004  17.439 -24.050  0.00  0.00     0.203 C 
ATOM     63  C3  IDS d 505      14.973  14.906 -21.319  0.00  0.00     0.068 C 
ATOM     64  C2  IDS d 505      13.561  15.465 -21.087  0.00  0.00     0.107 C 
ATOM     65  H   IDS d 505      15.163  14.546 -23.430  0.00  0.00     0.041 H 
ATOM     66  H   IDS d 505      16.563  15.325 -22.685  0.00  0.00     0.041 H 
ATOM     67  H   IDS d 505      14.122  16.513 -23.811  0.00  0.00     0.100 H 
ATOM     68  H   IDS d 505      12.243  15.452 -19.631  0.00  0.00     0.210 HD
ATOM     69  H   IDS d 505      13.760  17.440 -20.238  0.00  0.00     0.133 H 
ATOM     70  H   IDS d 505      15.623  15.327 -20.580  0.00  0.00     0.087 H 
ATOM     71  H   IDS d 505      12.897  15.063 -21.825  0.00  0.00     0.094 H 
ATOM     72  O4S SGN d 504      14.542  20.035 -17.191  0.00  0.00    -0.572 OA
ATOM     73  C2  SGN d 504      10.430  20.585 -21.831  0.00  0.00     0.081 C 
ATOM     74  O2S SGN d 504       9.821  23.047 -24.500  0.00  0.00    -0.296 OA
ATOM     75  C5  SGN d 504      10.865  18.574 -19.772  0.00  0.00     0.091 C 
ATOM     76  O3S SGN d 504       8.380  23.331 -22.621  0.00  0.00    -0.296 OA
ATOM     77  N   SGN d 504       9.596  21.224 -22.865  0.00  0.00    -0.210 NA
ATOM     78  O1S SGN d 504      10.733  23.398 -22.319  0.00  0.00    -0.296 OA
ATOM     79  S1  SGN d 504       9.653  22.855 -23.088  0.00  0.00     0.156 S 
ATOM     80  C4  SGN d 504      11.719  18.572 -21.086  0.00  0.00     0.095 C 
ATOM     81  O1  SGN d 504       8.378  19.912 -20.668  0.00  0.00    -0.348 OA
ATOM     82  O6S SGN d 504      14.022  17.769 -16.631  0.00  0.00    -0.572 OA
ATOM     83  O6  SGN d 504      12.702  18.919 -18.269  0.00  0.00    -0.254 OA
ATOM     84  O5S SGN d 504      12.547  19.528 -15.975  0.00  0.00    -0.572 OA
ATOM     85  O3  SGN d 504      11.576  19.172 -23.426  0.00  0.00    -0.391 OA
ATOM     86  O5  SGN d 504      10.379  19.911 -19.473  0.00  0.00    -0.349 OA
ATOM     87  C6  SGN d 504      11.598  18.073 -18.518  0.00  0.00     0.067 C 
ATOM     88  S2  SGN d 504      13.510  19.073 -16.940  0.00  0.00     0.251 S 
ATOM     89  C3  SGN d 504      10.835  19.146 -22.221  0.00  0.00     0.083 C 
ATOM     90  C1  SGN d 504       9.624  20.555 -20.502  0.00  0.00     0.150 C 
ATOM     91  H   SGN d 504      11.330  21.152 -21.722  0.00  0.00     0.076 H 
ATOM     92  H   SGN d 504       9.065  22.662 -24.972  0.00  0.00     0.231 HD
ATOM     93  H   SGN d 504      10.070  17.890 -19.985  0.00  0.00     0.090 H 
ATOM     94  H   SGN d 504       7.673  22.945 -23.162  0.00  0.00     0.231 HD
ATOM     95  H   SGN d 504       8.627  20.992 -22.645  0.00  0.00     0.140 HD
ATOM     96  H   SGN d 504      10.770  24.359 -22.447  0.00  0.00     0.231 HD
ATOM     97  H   SGN d 504      12.569  19.106 -20.715  0.00  0.00     0.091 H 
ATOM     98  H   SGN d 504      11.024  19.532 -24.138  0.00  0.00     0.210 HD
ATOM     99  H   SGN d 504      11.940  17.072 -18.678  0.00  0.00     0.080 H 
ATOM    100  H   SGN d 504      10.933  18.085 -17.680  0.00  0.00     0.080 H 
ATOM    101  H   SGN d 504       9.964  18.540 -22.361  0.00  0.00     0.089 H 
ATOM    102  H   SGN d 504       9.437  21.568 -20.215  0.00  0.00     0.131 H 
ATOM    103  C1  IDS d 501      -4.629  18.554 -18.309  0.00  0.00     0.156 C 
ATOM    104  O3  IDS d 501      -2.662  17.798 -20.675  0.00  0.00    -0.390 OA
ATOM    105  C2  IDS d 501      -4.113  17.187 -18.838  0.00  0.00     0.110 C 
ATOM    106  C4  IDS d 501      -1.695  18.060 -18.488  0.00  0.00     0.103 C 
ATOM    107  C6  IDS d 501      -1.527  20.339 -17.252  0.00  0.00     0.206 C 
ATOM    108  C3  IDS d 501      -2.657  17.226 -19.382  0.00  0.00     0.092 C 
ATOM    109  O5  IDS d 501      -3.632  19.174 -17.499  0.00  0.00    -0.340 OA
ATOM    110  O2  IDS d 501      -4.169  16.257 -17.772  0.00  0.00    -0.388 OA
ATOM    111  C5  IDS d 501      -2.365  19.416 -18.136  0.00  0.00     0.152 C 
ATOM    112  O62 IDS d 501      -0.883  21.239 -17.737  0.00  0.00    -0.646 OA
ATOM    113  O61 IDS d 501      -1.482  20.195 -16.050  0.00  0.00    -0.646 OA
ATOM    114  O1  IDS d 501      -4.997  19.354 -19.402  0.00  0.00    -0.368 OA
ATOM    115  H   IDS d 501      -5.491  18.414 -17.692  0.00  0.00     0.133 H 
ATOM    116  H   IDS d 501      -3.257  17.292 -21.250  0.00  0.00     0.210 HD
ATOM    117  H   IDS d 501      -4.739  16.913 -19.661  0.00  0.00     0.094 H 
ATOM    118  H   IDS d 501      -1.501  17.198 -17.884  0.00  0.00     0.092 H 
ATOM    119  H   IDS d 501      -2.303  16.217 -19.394  0.00  0.00     0.091 H 
ATOM    120  H   IDS d 501      -3.587  16.551 -17.055  0.00  0.00     0.210 HD
ATOM    121  H   IDS d 501      -2.481  19.930 -19.068  0.00  0.00     0.104 H 
ATOM    122  H   IDS d 501      -4.226  19.493 -19.975  0.00  0.00     0.212 HD
ATOM    123  O3  IDS d 535      14.946  13.498 -21.216  0.00  0.00    -0.393 OA
ATOM    124  H   IDS d 535      15.838  13.146 -21.363  0.00  0.00     0.210 HD
ENDROOT
TORSDOF 37
ENDMDL
MODEL 31
REMARK VINA RESULT:      -6.0      4.003      7.831
REMARK  0 active torsions:
REMARK  status: ('A' for Active; 'I' for Inactive)
REMARK       I    between atoms: O3_1  and  C3_48 
REMARK       I    between atoms: C1_2  and  O1_8 
REMARK       I    between atoms: O2_5  and  C2_76 
REMARK       I    between atoms: O2_5  and  S_66 
REMARK       I    between atoms: C2_7  and  N_46 
REMARK       I    between atoms: O1_8  and  C4_39 
REMARK       I    between atoms: C2_12  and  N_23 
REMARK       I    between atoms: O2S_13  and  S1_25 
REMARK       I    between atoms: C1_14  and  O1_65 
REMARK       I    between atoms: O3_15  and  C3_69 
REMARK       I    between atoms: C5_16  and  C6_31 
REMARK       I    between atoms: C5_17  and  C6_68 
REMARK       I    between atoms: C5_18  and  C6_71 
REMARK       I    between atoms: O3S_19  and  S1_25 
REMARK       I    between atoms: C6_20  and  C5_28 
REMARK       I    between atoms: C6_20  and  O6_74 
REMARK       I    between atoms: C4_21  and  O1_35 
REMARK       I    between atoms: S2_22  and  O6_74 
REMARK       I    between atoms: N_23  and  S1_25 
REMARK       I    between atoms: O1S_24  and  S1_25 
REMARK       I    between atoms: C4_27  and  O1_63 
REMARK       I    between atoms: O1_29  and  C4_49 
REMARK       I    between atoms: O1_29  and  C1_73 
REMARK       I    between atoms: O2_30  and  C2_78 
REMARK       I    between atoms: O3_33  and  C3_42 
REMARK       I    between atoms: O1_35  and  C1_77 
REMARK       I    between atoms: O3S_37  and  S1_50 
REMARK       I    between atoms: C2_38  and  O2_45 
REMARK       I    between atoms: C6_40  and  C5_51 
REMARK       I    between atoms: C3_41  and  O3_67 
REMARK       I    between atoms: N_46  and  S1_50 
REMARK       I    between atoms: O6_47  and  C6_71 
REMARK       I    between atoms: O6_47  and  S2_72 
REMARK       I    between atoms: S1_50  and  O1S_61 
REMARK       I    between atoms: S1_50  and  O2S_54 
REMARK       I    between atoms: O3_56  and  C3_75 
REMARK       I    between atoms: C1_58  and  O1_63 
ROOT
ATOM      1  O3  SGN d 502       7.684  17.598 -16.983  0.00  0.00    -0.391 OA
ATOM      2  C1  SGN d 502       4.822  15.907 -18.762  0.00  0.00     0.150 C 
ATOM      3  O6S SGN d 502       3.981  20.996 -22.584  0.00  0.00    -0.572 OA
ATOM      4  C2  SGN d 502       6.273  16.095 -18.240  0.00  0.00     0.081 C 
ATOM      5  O1  SGN d 502       3.916  15.725 -17.693  0.00  0.00    -0.348 OA
ATOM      6  O5  SGN d 502       4.427  17.033 -19.560  0.00  0.00    -0.349 OA
ATOM      7  C6  SGN d 502       4.032  19.380 -19.942  0.00  0.00     0.067 C 
ATOM      8  S2  SGN d 502       4.758  19.795 -22.486  0.00  0.00     0.251 S 
ATOM      9  C5  SGN d 502       4.541  18.336 -18.929  0.00  0.00     0.091 C 
ATOM     10  O3S SGN d 502       6.658  13.058 -18.958  0.00  0.00    -0.296 OA
ATOM     11  N   SGN d 502       6.622  14.938 -17.404  0.00  0.00    -0.210 NA
ATOM     12  C3  SGN d 502       6.361  17.416 -17.452  0.00  0.00     0.083 C 
ATOM     13  C4  SGN d 502       5.999  18.570 -18.415  0.00  0.00     0.095 C 
ATOM     14  S1  SGN d 502       7.532  13.729 -18.037  0.00  0.00     0.156 S 
ATOM     15  O2S SGN d 502       7.901  12.898 -16.928  0.00  0.00    -0.296 OA
ATOM     16  O4S SGN d 502       6.042  19.910 -23.105  0.00  0.00    -0.572 OA
ATOM     17  O1S SGN d 502       8.661  14.306 -18.703  0.00  0.00    -0.296 OA
ATOM     18  O5S SGN d 502       4.031  18.636 -22.924  0.00  0.00    -0.572 OA
ATOM     19  O6  SGN d 502       5.001  19.555 -20.959  0.00  0.00    -0.254 OA
ATOM     20  H   SGN d 502       7.914  16.875 -16.377  0.00  0.00     0.210 HD
ATOM     21  H   SGN d 502       4.802  15.028 -19.371  0.00  0.00     0.131 H 
ATOM     22  H   SGN d 502       6.969  16.151 -19.051  0.00  0.00     0.076 H 
ATOM     23  H   SGN d 502       3.866  20.311 -19.442  0.00  0.00     0.080 H 
ATOM     24  H   SGN d 502       3.115  19.041 -20.375  0.00  0.00     0.080 H 
ATOM     25  H   SGN d 502       3.937  18.416 -18.050  0.00  0.00     0.090 H 
ATOM     26  H   SGN d 502       6.436  13.657 -19.687  0.00  0.00     0.231 HD
ATOM     27  H   SGN d 502       5.745  14.518 -17.096  0.00  0.00     0.140 HD
ATOM     28  H   SGN d 502       5.693  17.398 -16.617  0.00  0.00     0.089 H 
ATOM     29  H   SGN d 502       6.588  18.660 -19.304  0.00  0.00     0.091 H 
ATOM     30  H   SGN d 502       7.101  12.535 -16.516  0.00  0.00     0.231 HD
ATOM     31  H   SGN d 502       8.354  14.856 -19.441  0.00  0.00     0.231 HD
ATOM     32  O62 IDS d 503      10.851  19.665 -16.063  0.00  0.00    -0.646 OA
ATOM     33  O2  IDS d 503       6.514  23.207 -18.293  0.00  0.00    -0.244 OA
ATOM     34  O5  IDS d 503       8.230  20.695 -18.143  0.00  0.00    -0.340 OA
ATOM     35  C5  IDS d 503       8.846  20.681 -16.848  0.00  0.00     0.152 C 
ATOM     36  C4  IDS d 503       8.678  22.074 -16.198  0.00  0.00     0.103 C 
ATOM     37  O61 IDS d 503      10.911  20.352 -18.019  0.00  0.00    -0.646 OA
ATOM     38  O1  IDS d 503       6.169  19.722 -17.591  0.00  0.00    -0.348 OA
ATOM     39  C6  IDS d 503      10.289  20.206 -16.988  0.00  0.00     0.206 C 
ATOM     40  O1S IDS d 503       4.561  24.597 -18.187  0.00  0.00    -0.572 OA
ATOM     41  O3S IDS d 503       4.708  22.893 -19.853  0.00  0.00    -0.572 OA
ATOM     42  C3  IDS d 503       7.167  22.422 -16.105  0.00  0.00     0.094 C 
ATOM     43  O2S IDS d 503       6.107  24.813 -20.000  0.00  0.00    -0.572 OA
ATOM     44  S   IDS d 503       5.399  23.918 -19.129  0.00  0.00     0.252 S 
ATOM     45  O3  IDS d 503       6.607  21.674 -15.041  0.00  0.00    -0.390 OA
ATOM     46  C1  IDS d 503       6.814  20.829 -18.161  0.00  0.00     0.161 C 
ATOM     47  C2  IDS d 503       6.373  22.113 -17.406  0.00  0.00     0.134 C 
ATOM     48  H   IDS d 503       8.374  19.988 -16.183  0.00  0.00     0.104 H 
ATOM     49  H   IDS d 503       9.151  22.001 -15.241  0.00  0.00     0.092 H 
ATOM     50  H   IDS d 503       7.093  23.478 -15.944  0.00  0.00     0.091 H 
ATOM     51  H   IDS d 503       6.697  20.727 -15.230  0.00  0.00     0.210 HD
ATOM     52  H   IDS d 503       6.527  20.893 -19.189  0.00  0.00     0.133 H 
ATOM     53  H   IDS d 503       5.363  21.948 -17.093  0.00  0.00     0.097 H 
ATOM     54  C4  IDS d 505      16.639  25.971 -20.721  0.00  0.00    -0.005 C 
ATOM     55  C5  IDS d 505      15.402  26.726 -20.133  0.00  0.00     0.127 C 
ATOM     56  O2  IDS d 505      15.755  22.687 -19.077  0.00  0.00    -0.388 OA
ATOM     57  O62 IDS d 505      15.878  28.811 -19.039  0.00  0.00    -0.646 OA
ATOM     58  C1  IDS d 505      14.745  24.845 -18.680  0.00  0.00     0.159 C 
ATOM     59  O5  IDS d 505      15.110  26.229 -18.805  0.00  0.00    -0.343 OA
ATOM     60  O1  IDS d 505      13.374  24.652 -18.892  0.00  0.00    -0.348 OA
ATOM     61  O61 IDS d 505      15.494  28.913 -21.075  0.00  0.00    -0.646 OA
ATOM     62  C6  IDS d 505      15.602  28.241 -20.075  0.00  0.00     0.203 C 
ATOM     63  C3  IDS d 505      16.852  24.584 -20.060  0.00  0.00     0.068 C 
ATOM     64  C2  IDS d 505      15.508  23.942 -19.684  0.00  0.00     0.107 C 
ATOM     65  H   IDS d 505      16.490  25.833 -21.772  0.00  0.00     0.041 H 
ATOM     66  H   IDS d 505      17.508  26.564 -20.525  0.00  0.00     0.041 H 
ATOM     67  H   IDS d 505      14.581  26.539 -20.793  0.00  0.00     0.100 H 
ATOM     68  H   IDS d 505      14.911  22.274 -18.836  0.00  0.00     0.210 HD
ATOM     69  H   IDS d 505      15.009  24.570 -17.679  0.00  0.00     0.133 H 
ATOM     70  H   IDS d 505      17.424  24.706 -19.164  0.00  0.00     0.087 H 
ATOM     71  H   IDS d 505      14.915  23.821 -20.568  0.00  0.00     0.094 H 
ATOM     72  O4S SGN d 504      15.410  24.467 -13.623  0.00  0.00    -0.572 OA
ATOM     73  C2  SGN d 504      10.275  25.384 -17.017  0.00  0.00     0.081 C 
ATOM     74  O2S SGN d 504       7.738  28.044 -17.246  0.00  0.00    -0.296 OA
ATOM     75  C5  SGN d 504      12.256  23.254 -16.924  0.00  0.00     0.091 C 
ATOM     76  O3S SGN d 504       7.038  26.197 -15.910  0.00  0.00    -0.296 OA
ATOM     77  N   SGN d 504       8.953  25.911 -17.402  0.00  0.00    -0.210 NA
ATOM     78  O1S SGN d 504       9.029  27.364 -15.352  0.00  0.00    -0.296 OA
ATOM     79  S1  SGN d 504       8.153  26.954 -16.410  0.00  0.00     0.156 S 
ATOM     80  C4  SGN d 504      12.527  24.563 -17.740  0.00  0.00     0.095 C 
ATOM     81  O1  SGN d 504       9.296  23.137 -16.930  0.00  0.00    -0.348 OA
ATOM     82  O6S SGN d 504      16.243  22.611 -14.881  0.00  0.00    -0.572 OA
ATOM     83  O6  SGN d 504      14.085  23.519 -15.394  0.00  0.00    -0.254 OA
ATOM     84  O5S SGN d 504      14.416  22.307 -13.375  0.00  0.00    -0.572 OA
ATOM     85  O3  SGN d 504      11.363  26.283 -18.982  0.00  0.00    -0.391 OA
ATOM     86  O5  SGN d 504      11.321  23.505 -15.839  0.00  0.00    -0.349 OA
ATOM     87  C6  SGN d 504      13.502  22.606 -16.301  0.00  0.00     0.067 C 
ATOM     88  S2  SGN d 504      15.105  23.215 -14.250  0.00  0.00     0.251 S 
ATOM     89  C3  SGN d 504      11.162  25.091 -18.248  0.00  0.00     0.083 C 
ATOM     90  C1  SGN d 504      10.063  24.075 -16.207  0.00  0.00     0.150 C 
ATOM     91  H   SGN d 504      10.777  26.124 -16.430  0.00  0.00     0.076 H 
ATOM     92  H   SGN d 504       7.150  27.712 -17.943  0.00  0.00     0.231 HD
ATOM     93  H   SGN d 504      11.862  22.577 -17.653  0.00  0.00     0.090 H 
ATOM     94  H   SGN d 504       6.467  25.936 -16.648  0.00  0.00     0.231 HD
ATOM     95  H   SGN d 504       8.343  25.104 -17.533  0.00  0.00     0.140 HD
ATOM     96  H   SGN d 504       8.561  27.978 -14.765  0.00  0.00     0.231 HD
ATOM     97  H   SGN d 504      13.090  25.091 -16.998  0.00  0.00     0.091 H 
ATOM     98  H   SGN d 504      10.509  26.615 -19.301  0.00  0.00     0.210 HD
ATOM     99  H   SGN d 504      14.205  22.365 -17.070  0.00  0.00     0.080 H 
ATOM    100  H   SGN d 504      13.226  21.708 -15.787  0.00  0.00     0.080 H 
ATOM    101  H   SGN d 504      10.692  24.367 -18.880  0.00  0.00     0.089 H 
ATOM    102  H   SGN d 504       9.523  24.329 -15.319  0.00  0.00     0.131 H 
ATOM    103  C1  IDS d 501       0.074  13.615 -17.867  0.00  0.00     0.156 C 
ATOM    104  O3  IDS d 501       1.270  15.813 -19.811  0.00  0.00    -0.390 OA
ATOM    105  C2  IDS d 501       0.972  13.510 -19.131  0.00  0.00     0.110 C 
ATOM    106  C4  IDS d 501       2.649  15.112 -17.968  0.00  0.00     0.103 C 
ATOM    107  C6  IDS d 501       2.108  15.640 -15.483  0.00  0.00     0.206 C 
ATOM    108  C3  IDS d 501       1.967  14.693 -19.302  0.00  0.00     0.092 C 
ATOM    109  O5  IDS d 501       0.859  13.993 -16.738  0.00  0.00    -0.340 OA
ATOM    110  O2  IDS d 501       1.715  12.308 -19.040  0.00  0.00    -0.388 OA
ATOM    111  C5  IDS d 501       1.572  15.237 -16.856  0.00  0.00     0.152 C 
ATOM    112  O62 IDS d 501       2.049  16.789 -15.112  0.00  0.00    -0.646 OA
ATOM    113  O61 IDS d 501       2.604  14.829 -14.733  0.00  0.00    -0.646 OA
ATOM    114  O1  IDS d 501      -0.962  14.526 -18.121  0.00  0.00    -0.368 OA
ATOM    115  H   IDS d 501      -0.363  12.665 -17.641  0.00  0.00     0.133 H 
ATOM    116  H   IDS d 501       0.836  15.572 -20.645  0.00  0.00     0.210 HD
ATOM    117  H   IDS d 501       0.322  13.533 -19.981  0.00  0.00     0.094 H 
ATOM    118  H   IDS d 501       3.414  14.380 -18.122  0.00  0.00     0.092 H 
ATOM    119  H   IDS d 501       2.732  14.361 -19.972  0.00  0.00     0.091 H 
ATOM    120  H   IDS d 501       2.286  12.338 -18.257  0.00  0.00     0.210 HD
ATOM    121  H   IDS d 501       0.930  16.036 -17.166  0.00  0.00     0.104 H 
ATOM    122  H   IDS d 501      -0.585  15.396 -18.329  0.00  0.00     0.212 HD
ATOM    123  O3  IDS d 535      17.532  23.752 -20.977  0.00  0.00    -0.393 OA
ATOM    124  H   IDS d 535      18.380  24.158 -21.214  0.00  0.00     0.210 HD
ENDROOT
TORSDOF 37
ENDMDL
MODEL 32
REMARK VINA RESULT:      -5.9      3.252     13.076
REMARK  0 active torsions:
REMARK  status: ('A' for Active; 'I' for Inactive)
REMARK       I    between atoms: O3_1  and  C3_48 
REMARK       I    between atoms: C1_2  and  O1_8 
REMARK       I    between atoms: O2_5  and  C2_76 
REMARK       I    between atoms: O2_5  and  S_66 
REMARK       I    between atoms: C2_7  and  N_46 
REMARK       I    between atoms: O1_8  and  C4_39 
REMARK       I    between atoms: C2_12  and  N_23 
REMARK       I    between atoms: O2S_13  and  S1_25 
REMARK       I    between atoms: C1_14  and  O1_65 
REMARK       I    between atoms: O3_15  and  C3_69 
REMARK       I    between atoms: C5_16  and  C6_31 
REMARK       I    between atoms: C5_17  and  C6_68 
REMARK       I    between atoms: C5_18  and  C6_71 
REMARK       I    between atoms: O3S_19  and  S1_25 
REMARK       I    between atoms: C6_20  and  C5_28 
REMARK       I    between atoms: C6_20  and  O6_74 
REMARK       I    between atoms: C4_21  and  O1_35 
REMARK       I    between atoms: S2_22  and  O6_74 
REMARK       I    between atoms: N_23  and  S1_25 
REMARK       I    between atoms: O1S_24  and  S1_25 
REMARK       I    between atoms: C4_27  and  O1_63 
REMARK       I    between atoms: O1_29  and  C4_49 
REMARK       I    between atoms: O1_29  and  C1_73 
REMARK       I    between atoms: O2_30  and  C2_78 
REMARK       I    between atoms: O3_33  and  C3_42 
REMARK       I    between atoms: O1_35  and  C1_77 
REMARK       I    between atoms: O3S_37  and  S1_50 
REMARK       I    between atoms: C2_38  and  O2_45 
REMARK       I    between atoms: C6_40  and  C5_51 
REMARK       I    between atoms: C3_41  and  O3_67 
REMARK       I    between atoms: N_46  and  S1_50 
REMARK       I    between atoms: O6_47  and  C6_71 
REMARK       I    between atoms: O6_47  and  S2_72 
REMARK       I    between atoms: S1_50  and  O1S_61 
REMARK       I    between atoms: S1_50  and  O2S_54 
REMARK       I    between atoms: O3_56  and  C3_75 
REMARK       I    between atoms: C1_58  and  O1_63 
ROOT
ATOM      1  O3  SGN d 502       9.282  22.048 -20.045  0.00  0.00    -0.391 OA
ATOM      2  C1  SGN d 502      12.409  22.187 -22.148  0.00  0.00     0.150 C 
ATOM      3  O6S SGN d 502      11.820  15.993 -23.724  0.00  0.00    -0.572 OA
ATOM      4  C2  SGN d 502      10.977  22.570 -21.684  0.00  0.00     0.081 C 
ATOM      5  O1  SGN d 502      13.369  22.534 -21.172  0.00  0.00    -0.348 OA
ATOM      6  O5  SGN d 502      12.482  20.784 -22.440  0.00  0.00    -0.349 OA
ATOM      7  C6  SGN d 502      12.267  18.448 -21.889  0.00  0.00     0.067 C 
ATOM      8  S2  SGN d 502      11.370  17.292 -24.132  0.00  0.00     0.251 S 
ATOM      9  C5  SGN d 502      12.071  19.887 -21.375  0.00  0.00     0.091 C 
ATOM     10  O3S SGN d 502      11.333  25.106 -23.510  0.00  0.00    -0.296 OA
ATOM     11  N   SGN d 502      10.956  24.006 -21.366  0.00  0.00    -0.210 NA
ATOM     12  C3  SGN d 502      10.591  21.710 -20.466  0.00  0.00     0.083 C 
ATOM     13  C4  SGN d 502      10.620  20.227 -20.902  0.00  0.00     0.095 C 
ATOM     14  S1  SGN d 502      10.354  25.067 -22.461  0.00  0.00     0.156 S 
ATOM     15  O2S SGN d 502      10.243  26.319 -21.770  0.00  0.00    -0.296 OA
ATOM     16  O4S SGN d 502      10.076  17.268 -24.741  0.00  0.00    -0.572 OA
ATOM     17  O1S SGN d 502       9.094  24.575 -22.931  0.00  0.00    -0.296 OA
ATOM     18  O5S SGN d 502      12.346  17.984 -24.926  0.00  0.00    -0.572 OA
ATOM     19  O6  SGN d 502      11.249  18.142 -22.824  0.00  0.00    -0.254 OA
ATOM     20  H   SGN d 502       9.262  22.978 -19.770  0.00  0.00     0.210 HD
ATOM     21  H   SGN d 502      12.625  22.738 -23.039  0.00  0.00     0.131 H 
ATOM     22  H   SGN d 502      10.260  22.384 -22.457  0.00  0.00     0.076 H 
ATOM     23  H   SGN d 502      12.214  17.764 -21.068  0.00  0.00     0.080 H 
ATOM     24  H   SGN d 502      13.224  18.363 -22.360  0.00  0.00     0.080 H 
ATOM     25  H   SGN d 502      12.667  20.000 -20.494  0.00  0.00     0.090 H 
ATOM     26  H   SGN d 502      11.373  24.241 -23.947  0.00  0.00     0.231 HD
ATOM     27  H   SGN d 502      11.921  24.283 -21.185  0.00  0.00     0.140 HD
ATOM     28  H   SGN d 502      11.272  21.879 -19.659  0.00  0.00     0.089 H 
ATOM     29  H   SGN d 502       9.995  19.954 -21.727  0.00  0.00     0.091 H 
ATOM     30  H   SGN d 502      11.122  26.604 -21.475  0.00  0.00     0.231 HD
ATOM     31  H   SGN d 502       9.227  23.730 -23.388  0.00  0.00     0.231 HD
ATOM     32  O62 IDS d 503       5.736  21.320 -18.616  0.00  0.00    -0.646 OA
ATOM     33  O2  IDS d 503       8.973  16.258 -19.083  0.00  0.00    -0.244 OA
ATOM     34  O5  IDS d 503       7.941  18.975 -19.992  0.00  0.00    -0.340 OA
ATOM     35  C5  IDS d 503       7.396  19.627 -18.837  0.00  0.00     0.152 C 
ATOM     36  C4  IDS d 503       7.236  18.588 -17.703  0.00  0.00     0.103 C 
ATOM     37  O61 IDS d 503       5.437  19.982 -20.171  0.00  0.00    -0.646 OA
ATOM     38  O1  IDS d 503      10.199  19.551 -19.719  0.00  0.00    -0.348 OA
ATOM     39  C6  IDS d 503       6.113  20.351 -19.234  0.00  0.00     0.206 C 
ATOM     40  O1S IDS d 503      10.521  14.581 -18.343  0.00  0.00    -0.572 OA
ATOM     41  O3S IDS d 503      10.743  15.508 -20.532  0.00  0.00    -0.572 OA
ATOM     42  C3  IDS d 503       8.615  17.944 -17.393  0.00  0.00     0.094 C 
ATOM     43  O2S IDS d 503       8.906  14.078 -20.035  0.00  0.00    -0.572 OA
ATOM     44  S   IDS d 503       9.845  15.034 -19.521  0.00  0.00     0.252 S 
ATOM     45  O3  IDS d 503       9.381  18.878 -16.655  0.00  0.00    -0.390 OA
ATOM     46  C1  IDS d 503       9.279  18.504 -19.871  0.00  0.00     0.161 C 
ATOM     47  C2  IDS d 503       9.413  17.535 -18.664  0.00  0.00     0.134 C 
ATOM     48  H   IDS d 503       8.049  20.383 -18.452  0.00  0.00     0.104 H 
ATOM     49  H   IDS d 503       6.830  19.130 -16.874  0.00  0.00     0.092 H 
ATOM     50  H   IDS d 503       8.430  17.045 -16.844  0.00  0.00     0.091 H 
ATOM     51  H   IDS d 503       9.523  19.675 -17.190  0.00  0.00     0.210 HD
ATOM     52  H   IDS d 503       9.503  17.988 -20.780  0.00  0.00     0.133 H 
ATOM     53  H   IDS d 503      10.443  17.555 -18.374  0.00  0.00     0.097 H 
ATOM     54  C4  IDS d 505      -1.602  15.336 -20.920  0.00  0.00    -0.005 C 
ATOM     55  C5  IDS d 505      -0.571  14.583 -20.016  0.00  0.00     0.127 C 
ATOM     56  O2  IDS d 505       0.130  18.675 -20.575  0.00  0.00    -0.388 OA
ATOM     57  O62 IDS d 505      -1.511  13.250 -18.252  0.00  0.00    -0.646 OA
ATOM     58  C1  IDS d 505       0.584  16.653 -19.336  0.00  0.00     0.159 C 
ATOM     59  O5  IDS d 505      -0.117  15.457 -18.956  0.00  0.00    -0.343 OA
ATOM     60  O1  IDS d 505       1.952  16.411 -19.520  0.00  0.00    -0.348 OA
ATOM     61  O61 IDS d 505      -1.238  12.296 -20.073  0.00  0.00    -0.646 OA
ATOM     62  C6  IDS d 505      -1.140  13.301 -19.407  0.00  0.00     0.203 C 
ATOM     63  C3  IDS d 505      -1.439  16.877 -20.841  0.00  0.00     0.068 C 
ATOM     64  C2  IDS d 505       0.035  17.265 -20.651  0.00  0.00     0.107 C 
ATOM     65  H   IDS d 505      -1.461  15.026 -21.934  0.00  0.00     0.041 H 
ATOM     66  H   IDS d 505      -2.584  15.092 -20.570  0.00  0.00     0.041 H 
ATOM     67  H   IDS d 505       0.246  14.301 -20.646  0.00  0.00     0.100 H 
ATOM     68  H   IDS d 505       1.058  18.930 -20.455  0.00  0.00     0.210 HD
ATOM     69  H   IDS d 505       0.433  17.341 -18.530  0.00  0.00     0.133 H 
ATOM     70  H   IDS d 505      -1.991  17.246 -20.001  0.00  0.00     0.087 H 
ATOM     71  H   IDS d 505       0.607  16.895 -21.477  0.00  0.00     0.094 H 
ATOM     72  O4S SGN d 504       0.217  19.064 -14.841  0.00  0.00    -0.572 OA
ATOM     73  C2  SGN d 504       4.837  15.711 -17.320  0.00  0.00     0.081 C 
ATOM     74  O2S SGN d 504       6.623  12.631 -16.378  0.00  0.00    -0.296 OA
ATOM     75  C5  SGN d 504       3.453  18.131 -18.154  0.00  0.00     0.091 C 
ATOM     76  O3S SGN d 504       7.808  14.615 -15.790  0.00  0.00    -0.296 OA
ATOM     77  N   SGN d 504       5.972  14.773 -17.397  0.00  0.00    -0.210 NA
ATOM     78  O1S SGN d 504       5.611  14.269 -14.961  0.00  0.00    -0.296 OA
ATOM     79  S1  SGN d 504       6.523  14.022 -16.039  0.00  0.00     0.156 S 
ATOM     80  C4  SGN d 504       2.835  16.719 -18.435  0.00  0.00     0.095 C 
ATOM     81  O1  SGN d 504       6.347  17.512 -18.021  0.00  0.00    -0.348 OA
ATOM     82  O6S SGN d 504      -0.173  20.449 -16.751  0.00  0.00    -0.572 OA
ATOM     83  O6  SGN d 504       1.672  18.918 -16.752  0.00  0.00    -0.254 OA
ATOM     84  O5S SGN d 504       1.725  20.845 -15.360  0.00  0.00    -0.572 OA
ATOM     85  O3  SGN d 504       3.490  14.430 -18.868  0.00  0.00    -0.391 OA
ATOM     86  O5  SGN d 504       4.334  18.090 -16.998  0.00  0.00    -0.349 OA
ATOM     87  C6  SGN d 504       2.430  19.249 -17.897  0.00  0.00     0.067 C 
ATOM     88  S2  SGN d 504       0.801  19.871 -15.871  0.00  0.00     0.251 S 
ATOM     89  C3  SGN d 504       4.007  15.724 -18.623  0.00  0.00     0.083 C 
ATOM     90  C1  SGN d 504       5.397  17.135 -17.047  0.00  0.00     0.150 C 
ATOM     91  H   SGN d 504       4.189  15.395 -16.530  0.00  0.00     0.076 H 
ATOM     92  H   SGN d 504       7.250  12.521 -17.110  0.00  0.00     0.231 HD
ATOM     93  H   SGN d 504       3.976  18.364 -19.058  0.00  0.00     0.090 H 
ATOM     94  H   SGN d 504       8.399  14.430 -16.536  0.00  0.00     0.231 HD
ATOM     95  H   SGN d 504       6.759  15.296 -17.782  0.00  0.00     0.140 HD
ATOM     96  H   SGN d 504       5.933  13.828 -14.158  0.00  0.00     0.231 HD
ATOM     97  H   SGN d 504       2.186  16.665 -17.586  0.00  0.00     0.091 H 
ATOM     98  H   SGN d 504       4.222  13.805 -18.985  0.00  0.00     0.210 HD
ATOM     99  H   SGN d 504       1.782  19.345 -18.743  0.00  0.00     0.080 H 
ATOM    100  H   SGN d 504       2.939  20.178 -17.742  0.00  0.00     0.080 H 
ATOM    101  H   SGN d 504       4.619  16.016 -19.450  0.00  0.00     0.089 H 
ATOM    102  H   SGN d 504       5.889  17.112 -16.097  0.00  0.00     0.131 H 
ATOM    103  C1  IDS d 501      17.606  23.417 -21.886  0.00  0.00     0.156 C 
ATOM    104  O3  IDS d 501      15.833  21.011 -22.934  0.00  0.00    -0.390 OA
ATOM    105  C2  IDS d 501      16.718  23.252 -23.149  0.00  0.00     0.110 C 
ATOM    106  C4  IDS d 501      14.738  22.669 -21.577  0.00  0.00     0.103 C 
ATOM    107  C6  IDS d 501      15.221  23.005 -19.047  0.00  0.00     0.206 C 
ATOM    108  C3  IDS d 501      15.455  22.373 -22.926  0.00  0.00     0.092 C 
ATOM    109  O5  IDS d 501      16.793  23.698 -20.748  0.00  0.00    -0.340 OA
ATOM    110  O2  IDS d 501      16.301  24.540 -23.562  0.00  0.00    -0.388 OA
ATOM    111  C5  IDS d 501      15.790  22.715 -20.435  0.00  0.00     0.152 C 
ATOM    112  O62 IDS d 501      15.005  22.104 -18.270  0.00  0.00    -0.646 OA
ATOM    113  O61 IDS d 501      14.969  24.134 -18.688  0.00  0.00    -0.646 OA
ATOM    114  O1  IDS d 501      18.374  22.255 -21.715  0.00  0.00    -0.368 OA
ATOM    115  H   IDS d 501      18.274  24.245 -22.005  0.00  0.00     0.133 H 
ATOM    116  H   IDS d 501      16.282  20.805 -23.769  0.00  0.00     0.210 HD
ATOM    117  H   IDS d 501      17.311  22.752 -23.887  0.00  0.00     0.094 H 
ATOM    118  H   IDS d 501      14.174  23.450 -22.041  0.00  0.00     0.092 H 
ATOM    119  H   IDS d 501      14.773  22.603 -23.718  0.00  0.00     0.091 H 
ATOM    120  H   IDS d 501      15.769  24.949 -22.861  0.00  0.00     0.210 HD
ATOM    121  H   IDS d 501      16.202  21.729 -20.383  0.00  0.00     0.104 H 
ATOM    122  H   IDS d 501      17.785  21.492 -21.605  0.00  0.00     0.212 HD
ATOM    123  O3  IDS d 535      -1.924  17.439 -22.043  0.00  0.00    -0.393 OA
ATOM    124  H   IDS d 535      -2.854  17.193 -22.163  0.00  0.00     0.210 HD
ENDROOT
TORSDOF 37
ENDMDL
MODEL 33
REMARK VINA RESULT:      -5.8      3.611     12.609
REMARK  0 active torsions:
REMARK  status: ('A' for Active; 'I' for Inactive)
REMARK       I    between atoms: O3_1  and  C3_48 
REMARK       I    between atoms: C1_2  and  O1_8 
REMARK       I    between atoms: O2_5  and  C2_76 
REMARK       I    between atoms: O2_5  and  S_66 
REMARK       I    between atoms: C2_7  and  N_46 
REMARK       I    between atoms: O1_8  and  C4_39 
REMARK       I    between atoms: C2_12  and  N_23 
REMARK       I    between atoms: O2S_13  and  S1_25 
REMARK       I    between atoms: C1_14  and  O1_65 
REMARK       I    between atoms: O3_15  and  C3_69 
REMARK       I    between atoms: C5_16  and  C6_31 
REMARK       I    between atoms: C5_17  and  C6_68 
REMARK       I    between atoms: C5_18  and  C6_71 
REMARK       I    between atoms: O3S_19  and  S1_25 
REMARK       I    between atoms: C6_20  and  C5_28 
REMARK       I    between atoms: C6_20  and  O6_74 
REMARK       I    between atoms: C4_21  and  O1_35 
REMARK       I    between atoms: S2_22  and  O6_74 
REMARK       I    between atoms: N_23  and  S1_25 
REMARK       I    between atoms: O1S_24  and  S1_25 
REMARK       I    between atoms: C4_27  and  O1_63 
REMARK       I    between atoms: O1_29  and  C4_49 
REMARK       I    between atoms: O1_29  and  C1_73 
REMARK       I    between atoms: O2_30  and  C2_78 
REMARK       I    between atoms: O3_33  and  C3_42 
REMARK       I    between atoms: O1_35  and  C1_77 
REMARK       I    between atoms: O3S_37  and  S1_50 
REMARK       I    between atoms: C2_38  and  O2_45 
REMARK       I    between atoms: C6_40  and  C5_51 
REMARK       I    between atoms: C3_41  and  O3_67 
REMARK       I    between atoms: N_46  and  S1_50 
REMARK       I    between atoms: O6_47  and  C6_71 
REMARK       I    between atoms: O6_47  and  S2_72 
REMARK       I    between atoms: S1_50  and  O1S_61 
REMARK       I    between atoms: S1_50  and  O2S_54 
REMARK       I    between atoms: O3_56  and  C3_75 
REMARK       I    between atoms: C1_58  and  O1_63 
ROOT
ATOM      1  O3  SGN d 502       8.177  18.179 -22.960  0.00  0.00    -0.391 OA
ATOM      2  C1  SGN d 502      11.171  15.936 -22.494  0.00  0.00     0.150 C 
ATOM      3  O6S SGN d 502       8.548  13.245 -17.290  0.00  0.00    -0.572 OA
ATOM      4  C2  SGN d 502       9.949  16.560 -23.222  0.00  0.00     0.081 C 
ATOM      5  O1  SGN d 502      12.192  16.894 -22.302  0.00  0.00    -0.348 OA
ATOM      6  O5  SGN d 502      10.772  15.376 -21.235  0.00  0.00    -0.349 OA
ATOM      7  C6  SGN d 502       9.789  15.482 -19.037  0.00  0.00     0.067 C 
ATOM      8  S2  SGN d 502       8.559  13.125 -18.719  0.00  0.00     0.251 S 
ATOM      9  C5  SGN d 502      10.085  16.274 -20.325  0.00  0.00     0.091 C 
ATOM     10  O3S SGN d 502      11.133  15.235 -25.816  0.00  0.00    -0.296 OA
ATOM     11  N   SGN d 502      10.409  17.148 -24.488  0.00  0.00    -0.210 NA
ATOM     12  C3  SGN d 502       9.298  17.614 -22.306  0.00  0.00     0.083 C 
ATOM     13  C4  SGN d 502       8.831  16.901 -21.017  0.00  0.00     0.095 C 
ATOM     14  S1  SGN d 502      10.196  16.320 -25.887  0.00  0.00     0.156 S 
ATOM     15  O2S SGN d 502      10.510  17.245 -26.939  0.00  0.00    -0.296 OA
ATOM     16  O4S SGN d 502       7.331  12.611 -19.244  0.00  0.00    -0.572 OA
ATOM     17  O1S SGN d 502       8.844  15.851 -25.941  0.00  0.00    -0.296 OA
ATOM     18  O5S SGN d 502       9.710  12.414 -19.200  0.00  0.00    -0.572 OA
ATOM     19  O6  SGN d 502       8.728  14.577 -19.278  0.00  0.00    -0.254 OA
ATOM     20  H   SGN d 502       8.468  18.628 -23.769  0.00  0.00     0.210 HD
ATOM     21  H   SGN d 502      11.560  15.154 -23.113  0.00  0.00     0.131 H 
ATOM     22  H   SGN d 502       9.212  15.817 -23.441  0.00  0.00     0.076 H 
ATOM     23  H   SGN d 502       9.511  16.159 -18.256  0.00  0.00     0.080 H 
ATOM     24  H   SGN d 502      10.663  14.940 -18.741  0.00  0.00     0.080 H 
ATOM     25  H   SGN d 502      10.684  17.118 -20.055  0.00  0.00     0.090 H 
ATOM     26  H   SGN d 502      10.882  14.638 -25.094  0.00  0.00     0.231 HD
ATOM     27  H   SGN d 502      11.411  17.314 -24.392  0.00  0.00     0.140 HD
ATOM     28  H   SGN d 502       9.996  18.391 -22.075  0.00  0.00     0.089 H 
ATOM     29  H   SGN d 502       8.151  16.084 -21.137  0.00  0.00     0.091 H 
ATOM     30  H   SGN d 502      11.433  17.529 -26.854  0.00  0.00     0.231 HD
ATOM     31  H   SGN d 502       8.688  15.232 -25.211  0.00  0.00     0.231 HD
ATOM     32  O62 IDS d 503       4.591  19.679 -23.158  0.00  0.00    -0.646 OA
ATOM     33  O2  IDS d 503       5.952  18.033 -17.522  0.00  0.00    -0.244 OA
ATOM     34  O5  IDS d 503       5.887  17.733 -20.552  0.00  0.00    -0.340 OA
ATOM     35  C5  IDS d 503       5.591  19.026 -21.098  0.00  0.00     0.152 C 
ATOM     36  C4  IDS d 503       5.092  19.948 -19.961  0.00  0.00     0.103 C 
ATOM     37  O61 IDS d 503       3.863  17.920 -22.337  0.00  0.00    -0.646 OA
ATOM     38  O1  IDS d 503       8.208  17.959 -20.290  0.00  0.00    -0.348 OA
ATOM     39  C6  IDS d 503       4.623  18.863 -22.265  0.00  0.00     0.206 C 
ATOM     40  O1S IDS d 503       6.851  18.331 -15.318  0.00  0.00    -0.572 OA
ATOM     41  O3S IDS d 503       7.371  16.350 -16.546  0.00  0.00    -0.572 OA
ATOM     42  C3  IDS d 503       6.177  20.035 -18.852  0.00  0.00     0.094 C 
ATOM     43  O2S IDS d 503       5.162  16.687 -15.726  0.00  0.00    -0.572 OA
ATOM     44  S   IDS d 503       6.365  17.310 -16.197  0.00  0.00     0.252 S 
ATOM     45  O3  IDS d 503       7.211  20.884 -19.314  0.00  0.00    -0.390 OA
ATOM     46  C1  IDS d 503       6.991  17.671 -19.656  0.00  0.00     0.161 C 
ATOM     47  C2  IDS d 503       6.793  18.658 -18.472  0.00  0.00     0.134 C 
ATOM     48  H   IDS d 503       6.458  19.503 -21.503  0.00  0.00     0.104 H 
ATOM     49  H   IDS d 503       4.890  20.890 -20.425  0.00  0.00     0.092 H 
ATOM     50  H   IDS d 503       5.702  20.412 -17.971  0.00  0.00     0.091 H 
ATOM     51  H   IDS d 503       7.611  20.504 -20.111  0.00  0.00     0.210 HD
ATOM     52  H   IDS d 503       7.030  16.667 -19.291  0.00  0.00     0.133 H 
ATOM     53  H   IDS d 503       7.771  18.876 -18.094  0.00  0.00     0.097 H 
ATOM     54  C4  IDS d 505      -4.323  16.772 -20.503  0.00  0.00    -0.005 C 
ATOM     55  C5  IDS d 505      -3.603  17.443 -19.287  0.00  0.00     0.127 C 
ATOM     56  O2  IDS d 505      -1.576  17.633 -22.948  0.00  0.00    -0.388 OA
ATOM     57  O62 IDS d 505      -4.935  18.978 -18.006  0.00  0.00    -0.646 OA
ATOM     58  C1  IDS d 505      -1.823  18.427 -20.681  0.00  0.00     0.159 C 
ATOM     59  O5  IDS d 505      -2.883  18.618 -19.730  0.00  0.00    -0.343 OA
ATOM     60  O1  IDS d 505      -0.614  18.109 -20.048  0.00  0.00    -0.348 OA
ATOM     61  O61 IDS d 505      -4.995  16.993 -17.406  0.00  0.00    -0.646 OA
ATOM     62  C6  IDS d 505      -4.567  17.832 -18.166  0.00  0.00     0.203 C 
ATOM     63  C3  IDS d 505      -3.655  17.134 -21.855  0.00  0.00     0.068 C 
ATOM     64  C2  IDS d 505      -2.136  17.295 -21.693  0.00  0.00     0.107 C 
ATOM     65  H   IDS d 505      -4.294  15.710 -20.377  0.00  0.00     0.041 H 
ATOM     66  H   IDS d 505      -5.330  17.134 -20.528  0.00  0.00     0.041 H 
ATOM     67  H   IDS d 505      -2.927  16.717 -18.888  0.00  0.00     0.100 H 
ATOM     68  H   IDS d 505      -0.616  17.737 -22.856  0.00  0.00     0.210 HD
ATOM     69  H   IDS d 505      -1.736  19.359 -21.202  0.00  0.00     0.133 H 
ATOM     70  H   IDS d 505      -4.053  18.064 -22.206  0.00  0.00     0.087 H 
ATOM     71  H   IDS d 505      -1.721  16.376 -21.332  0.00  0.00     0.094 H 
ATOM     72  O4S SGN d 504      -1.365  23.316 -22.113  0.00  0.00    -0.572 OA
ATOM     73  C2  SGN d 504       1.871  19.934 -18.011  0.00  0.00     0.081 C 
ATOM     74  O2S SGN d 504       2.525  20.145 -14.393  0.00  0.00    -0.296 OA
ATOM     75  C5  SGN d 504       1.374  19.675 -20.867  0.00  0.00     0.091 C 
ATOM     76  O3S SGN d 504       4.304  21.020 -15.718  0.00  0.00    -0.296 OA
ATOM     77  N   SGN d 504       2.627  19.602 -16.790  0.00  0.00    -0.210 NA
ATOM     78  O1S SGN d 504       2.118  21.915 -15.948  0.00  0.00    -0.296 OA
ATOM     79  S1  SGN d 504       2.895  20.750 -15.641  0.00  0.00     0.156 S 
ATOM     80  C4  SGN d 504       0.321  19.170 -19.823  0.00  0.00     0.095 C 
ATOM     81  O1  SGN d 504       3.895  19.491 -19.323  0.00  0.00    -0.348 OA
ATOM     82  O6S SGN d 504      -1.270  21.737 -23.907  0.00  0.00    -0.572 OA
ATOM     83  O6  SGN d 504      -0.042  21.318 -21.891  0.00  0.00    -0.254 OA
ATOM     84  O5S SGN d 504       0.651  23.047 -23.369  0.00  0.00    -0.572 OA
ATOM     85  O3  SGN d 504       0.173  18.263 -17.584  0.00  0.00    -0.391 OA
ATOM     86  O5  SGN d 504       2.191  20.738 -20.306  0.00  0.00    -0.349 OA
ATOM     87  C6  SGN d 504       0.783  20.209 -22.181  0.00  0.00     0.067 C 
ATOM     88  S2  SGN d 504      -0.546  22.422 -22.876  0.00  0.00     0.251 S 
ATOM     89  C3  SGN d 504       1.093  18.716 -18.560  0.00  0.00     0.083 C 
ATOM     90  C1  SGN d 504       2.873  20.436 -19.087  0.00  0.00     0.150 C 
ATOM     91  H   SGN d 504       1.153  20.690 -17.771  0.00  0.00     0.076 H 
ATOM     92  H   SGN d 504       3.080  19.364 -14.235  0.00  0.00     0.231 HD
ATOM     93  H   SGN d 504       1.945  18.799 -21.095  0.00  0.00     0.090 H 
ATOM     94  H   SGN d 504       4.800  20.215 -15.505  0.00  0.00     0.231 HD
ATOM     95  H   SGN d 504       3.543  19.272 -17.094  0.00  0.00     0.140 HD
ATOM     96  H   SGN d 504       2.273  22.594 -15.273  0.00  0.00     0.231 HD
ATOM     97  H   SGN d 504      -0.310  20.035 -19.813  0.00  0.00     0.091 H 
ATOM     98  H   SGN d 504       0.655  17.979 -16.792  0.00  0.00     0.210 HD
ATOM     99  H   SGN d 504       0.204  19.443 -22.653  0.00  0.00     0.080 H 
ATOM    100  H   SGN d 504       1.573  20.505 -22.840  0.00  0.00     0.080 H 
ATOM    101  H   SGN d 504       1.768  17.921 -18.798  0.00  0.00     0.089 H 
ATOM    102  H   SGN d 504       3.329  21.328 -18.712  0.00  0.00     0.131 H 
ATOM    103  C1  IDS d 501      16.481  16.077 -21.876  0.00  0.00     0.156 C 
ATOM    104  O3  IDS d 501      14.006  14.709 -20.449  0.00  0.00    -0.390 OA
ATOM    105  C2  IDS d 501      15.589  14.869 -22.271  0.00  0.00     0.110 C 
ATOM    106  C4  IDS d 501      13.528  16.430 -22.061  0.00  0.00     0.103 C 
ATOM    107  C6  IDS d 501      14.094  18.939 -21.699  0.00  0.00     0.206 C 
ATOM    108  C3  IDS d 501      14.105  15.004 -21.828  0.00  0.00     0.092 C 
ATOM    109  O5  IDS d 501      15.808  17.300 -22.170  0.00  0.00    -0.340 OA
ATOM    110  O2  IDS d 501      15.626  14.740 -23.681  0.00  0.00    -0.388 OA
ATOM    111  C5  IDS d 501      14.534  17.486 -21.528  0.00  0.00     0.152 C 
ATOM    112  O62 IDS d 501      13.590  19.542 -20.780  0.00  0.00    -0.646 OA
ATOM    113  O61 IDS d 501      14.233  19.524 -22.751  0.00  0.00    -0.646 OA
ATOM    114  O1  IDS d 501      16.817  15.970 -20.518  0.00  0.00    -0.368 OA
ATOM    115  H   IDS d 501      17.387  16.074 -22.446  0.00  0.00     0.133 H 
ATOM    116  H   IDS d 501      14.361  13.822 -20.281  0.00  0.00     0.210 HD
ATOM    117  H   IDS d 501      15.981  14.010 -21.766  0.00  0.00     0.094 H 
ATOM    118  H   IDS d 501      13.258  16.163 -23.061  0.00  0.00     0.092 H 
ATOM    119  H   IDS d 501      13.539  14.319 -22.424  0.00  0.00     0.091 H 
ATOM    120  H   IDS d 501      15.261  15.540 -24.089  0.00  0.00     0.210 HD
ATOM    121  H   IDS d 501      14.593  17.320 -20.472  0.00  0.00     0.104 H 
ATOM    122  H   IDS d 501      16.007  15.971 -19.984  0.00  0.00     0.212 HD
ATOM    123  O3  IDS d 535      -3.924  16.097 -22.777  0.00  0.00    -0.393 OA
ATOM    124  H   IDS d 535      -4.883  15.996 -22.879  0.00  0.00     0.210 HD
ENDROOT
TORSDOF 37
ENDMDL
MODEL 34
REMARK VINA RESULT:      -5.8      3.076     12.772
REMARK  0 active torsions:
REMARK  status: ('A' for Active; 'I' for Inactive)
REMARK       I    between atoms: O3_1  and  C3_48 
REMARK       I    between atoms: C1_2  and  O1_8 
REMARK       I    between atoms: O2_5  and  C2_76 
REMARK       I    between atoms: O2_5  and  S_66 
REMARK       I    between atoms: C2_7  and  N_46 
REMARK       I    between atoms: O1_8  and  C4_39 
REMARK       I    between atoms: C2_12  and  N_23 
REMARK       I    between atoms: O2S_13  and  S1_25 
REMARK       I    between atoms: C1_14  and  O1_65 
REMARK       I    between atoms: O3_15  and  C3_69 
REMARK       I    between atoms: C5_16  and  C6_31 
REMARK       I    between atoms: C5_17  and  C6_68 
REMARK       I    between atoms: C5_18  and  C6_71 
REMARK       I    between atoms: O3S_19  and  S1_25 
REMARK       I    between atoms: C6_20  and  C5_28 
REMARK       I    between atoms: C6_20  and  O6_74 
REMARK       I    between atoms: C4_21  and  O1_35 
REMARK       I    between atoms: S2_22  and  O6_74 
REMARK       I    between atoms: N_23  and  S1_25 
REMARK       I    between atoms: O1S_24  and  S1_25 
REMARK       I    between atoms: C4_27  and  O1_63 
REMARK       I    between atoms: O1_29  and  C4_49 
REMARK       I    between atoms: O1_29  and  C1_73 
REMARK       I    between atoms: O2_30  and  C2_78 
REMARK       I    between atoms: O3_33  and  C3_42 
REMARK       I    between atoms: O1_35  and  C1_77 
REMARK       I    between atoms: O3S_37  and  S1_50 
REMARK       I    between atoms: C2_38  and  O2_45 
REMARK       I    between atoms: C6_40  and  C5_51 
REMARK       I    between atoms: C3_41  and  O3_67 
REMARK       I    between atoms: N_46  and  S1_50 
REMARK       I    between atoms: O6_47  and  C6_71 
REMARK       I    between atoms: O6_47  and  S2_72 
REMARK       I    between atoms: S1_50  and  O1S_61 
REMARK       I    between atoms: S1_50  and  O2S_54 
REMARK       I    between atoms: O3_56  and  C3_75 
REMARK       I    between atoms: C1_58  and  O1_63 
ROOT
ATOM      1  O3  SGN d 502       9.741  20.427 -19.725  0.00  0.00    -0.391 OA
ATOM      2  C1  SGN d 502      12.761  19.054 -21.517  0.00  0.00     0.150 C 
ATOM      3  O6S SGN d 502       9.930  13.341 -22.251  0.00  0.00    -0.572 OA
ATOM      4  C2  SGN d 502      11.565  20.009 -21.252  0.00  0.00     0.081 C 
ATOM      5  O1  SGN d 502      13.746  19.182 -20.512  0.00  0.00    -0.348 OA
ATOM      6  O5  SGN d 502      12.309  17.695 -21.599  0.00  0.00    -0.349 OA
ATOM      7  C6  SGN d 502      11.207  15.729 -20.747  0.00  0.00     0.067 C 
ATOM      8  S2  SGN d 502      10.020  14.626 -22.879  0.00  0.00     0.251 S 
ATOM      9  C5  SGN d 502      11.551  17.203 -20.463  0.00  0.00     0.091 C 
ATOM     10  O3S SGN d 502      12.919  21.892 -23.375  0.00  0.00    -0.296 OA
ATOM     11  N   SGN d 502      12.078  21.382 -21.143  0.00  0.00    -0.210 NA
ATOM     12  C3  SGN d 502      10.839  19.567 -19.967  0.00  0.00     0.083 C 
ATOM     13  C4  SGN d 502      10.321  18.127 -20.184  0.00  0.00     0.095 C 
ATOM     14  S1  SGN d 502      11.961  22.392 -22.430  0.00  0.00     0.156 S 
ATOM     15  O2S SGN d 502      12.307  23.693 -21.936  0.00  0.00    -0.296 OA
ATOM     16  O4S SGN d 502       8.835  14.978 -23.600  0.00  0.00    -0.572 OA
ATOM     17  O1S SGN d 502      10.626  22.327 -22.944  0.00  0.00    -0.296 OA
ATOM     18  O5S SGN d 502      11.213  14.768 -23.666  0.00  0.00    -0.572 OA
ATOM     19  O6  SGN d 502      10.183  15.667 -21.723  0.00  0.00    -0.254 OA
ATOM     20  H   SGN d 502      10.064  21.331 -19.588  0.00  0.00     0.210 HD
ATOM     21  H   SGN d 502      13.202  19.330 -22.452  0.00  0.00     0.131 H 
ATOM     22  H   SGN d 502      10.859  19.973 -22.055  0.00  0.00     0.076 H 
ATOM     23  H   SGN d 502      10.870  15.260 -19.846  0.00  0.00     0.080 H 
ATOM     24  H   SGN d 502      12.077  15.221 -21.107  0.00  0.00     0.080 H 
ATOM     25  H   SGN d 502      12.114  17.235 -19.554  0.00  0.00     0.090 H 
ATOM     26  H   SGN d 502      12.645  21.013 -23.679  0.00  0.00     0.231 HD
ATOM     27  H   SGN d 502      13.068  21.312 -20.911  0.00  0.00     0.140 HD
ATOM     28  H   SGN d 502      11.504  19.606 -19.130  0.00  0.00     0.089 H 
ATOM     29  H   SGN d 502       9.669  17.969 -21.018  0.00  0.00     0.091 H 
ATOM     30  H   SGN d 502      13.218  23.680 -21.601  0.00  0.00     0.231 HD
ATOM     31  H   SGN d 502      10.446  21.428 -23.263  0.00  0.00     0.231 HD
ATOM     32  O62 IDS d 503       6.134  21.304 -18.555  0.00  0.00    -0.646 OA
ATOM     33  O2  IDS d 503       7.231  15.405 -17.988  0.00  0.00    -0.244 OA
ATOM     34  O5  IDS d 503       7.337  18.118 -19.367  0.00  0.00    -0.340 OA
ATOM     35  C5  IDS d 503       7.037  19.108 -18.374  0.00  0.00     0.152 C 
ATOM     36  C4  IDS d 503       6.455  18.406 -17.125  0.00  0.00     0.103 C 
ATOM     37  O61 IDS d 503       5.407  19.930 -19.926  0.00  0.00    -0.646 OA
ATOM     38  O1  IDS d 503       9.633  17.861 -18.963  0.00  0.00    -0.348 OA
ATOM     39  C6  IDS d 503       6.138  20.175 -18.990  0.00  0.00     0.206 C 
ATOM     40  O1S IDS d 503       8.002  13.425 -16.874  0.00  0.00    -0.572 OA
ATOM     41  O3S IDS d 503       8.636  13.826 -19.141  0.00  0.00    -0.572 OA
ATOM     42  C3  IDS d 503       7.477  17.362 -16.596  0.00  0.00     0.094 C 
ATOM     43  O2S IDS d 503       6.378  13.276 -18.625  0.00  0.00    -0.572 OA
ATOM     44  S   IDS d 503       7.590  13.892 -18.164  0.00  0.00     0.252 S 
ATOM     45  O3  IDS d 503       8.512  18.058 -15.928  0.00  0.00    -0.390 OA
ATOM     46  C1  IDS d 503       8.391  17.216 -19.053  0.00  0.00     0.161 C 
ATOM     47  C2  IDS d 503       8.106  16.482 -17.714  0.00  0.00     0.134 C 
ATOM     48  H   IDS d 503       7.913  19.624 -18.039  0.00  0.00     0.104 H 
ATOM     49  H   IDS d 503       6.255  19.190 -16.424  0.00  0.00     0.092 H 
ATOM     50  H   IDS d 503       6.946  16.698 -15.946  0.00  0.00     0.091 H 
ATOM     51  H   IDS d 503       8.964  18.645 -16.554  0.00  0.00     0.210 HD
ATOM     52  H   IDS d 503       8.436  16.509 -19.854  0.00  0.00     0.133 H 
ATOM     53  H   IDS d 503       9.056  16.169 -17.332  0.00  0.00     0.097 H 
ATOM     54  C4  IDS d 505      -2.834  18.142 -20.683  0.00  0.00    -0.005 C 
ATOM     55  C5  IDS d 505      -2.198  17.225 -19.587  0.00  0.00     0.127 C 
ATOM     56  O2  IDS d 505       0.018  20.618 -20.649  0.00  0.00    -0.388 OA
ATOM     57  O62 IDS d 505      -3.635  16.646 -17.751  0.00  0.00    -0.646 OA
ATOM     58  C1  IDS d 505      -0.371  18.808 -19.099  0.00  0.00     0.159 C 
ATOM     59  O5  IDS d 505      -1.485  18.035 -18.623  0.00  0.00    -0.343 OA
ATOM     60  O1  IDS d 505       0.810  18.053 -19.115  0.00  0.00    -0.348 OA
ATOM     61  O61 IDS d 505      -3.678  15.368 -19.384  0.00  0.00    -0.646 OA
ATOM     62  C6  IDS d 505      -3.231  16.363 -18.860  0.00  0.00     0.203 C 
ATOM     63  C3  IDS d 505      -2.104  19.505 -20.808  0.00  0.00     0.068 C 
ATOM     64  C2  IDS d 505      -0.600  19.350 -20.534  0.00  0.00     0.107 C 
ATOM     65  H   IDS d 505      -2.785  17.637 -21.625  0.00  0.00     0.041 H 
ATOM     66  H   IDS d 505      -3.847  18.338 -20.398  0.00  0.00     0.041 H 
ATOM     67  H   IDS d 505      -1.526  16.561 -20.090  0.00  0.00     0.100 H 
ATOM     68  H   IDS d 505       0.969  20.530 -20.478  0.00  0.00     0.210 HD
ATOM     69  H   IDS d 505      -0.279  19.627 -18.417  0.00  0.00     0.133 H 
ATOM     70  H   IDS d 505      -2.505  20.186 -20.086  0.00  0.00     0.087 H 
ATOM     71  H   IDS d 505      -0.182  18.663 -21.240  0.00  0.00     0.094 H 
ATOM     72  O4S SGN d 504       0.041  21.900 -15.046  0.00  0.00    -0.572 OA
ATOM     73  C2  SGN d 504       3.135  16.719 -16.571  0.00  0.00     0.081 C 
ATOM     74  O2S SGN d 504       3.588  13.403 -15.036  0.00  0.00    -0.296 OA
ATOM     75  C5  SGN d 504       2.799  19.303 -17.868  0.00  0.00     0.091 C 
ATOM     76  O3S SGN d 504       5.414  14.880 -14.624  0.00  0.00    -0.296 OA
ATOM     77  N   SGN d 504       3.832  15.431 -16.405  0.00  0.00    -0.210 NA
ATOM     78  O1S SGN d 504       3.221  15.510 -13.968  0.00  0.00    -0.296 OA
ATOM     79  S1  SGN d 504       4.009  14.768 -14.908  0.00  0.00     0.156 S 
ATOM     80  C4  SGN d 504       1.704  18.191 -18.005  0.00  0.00     0.095 C 
ATOM     81  O1  SGN d 504       5.237  17.695 -17.371  0.00  0.00    -0.348 OA
ATOM     82  O6S SGN d 504       0.272  22.991 -17.162  0.00  0.00    -0.572 OA
ATOM     83  O6  SGN d 504       1.400  20.912 -16.769  0.00  0.00    -0.254 OA
ATOM     84  O5S SGN d 504       2.128  22.888 -15.664  0.00  0.00    -0.572 OA
ATOM     85  O3  SGN d 504       1.459  15.784 -18.044  0.00  0.00    -0.391 OA
ATOM     86  O5  SGN d 504       3.558  19.135 -16.639  0.00  0.00    -0.349 OA
ATOM     87  C6  SGN d 504       2.267  20.745 -17.871  0.00  0.00     0.067 C 
ATOM     88  S2  SGN d 504       0.923  22.251 -16.120  0.00  0.00     0.251 S 
ATOM     89  C3  SGN d 504       2.419  16.819 -17.936  0.00  0.00     0.083 C 
ATOM     90  C1  SGN d 504       4.181  17.862 -16.450  0.00  0.00     0.150 C 
ATOM     91  H   SGN d 504       2.387  16.801 -15.810  0.00  0.00     0.076 H 
ATOM     92  H   SGN d 504       4.153  12.949 -15.682  0.00  0.00     0.231 HD
ATOM     93  H   SGN d 504       3.404  19.173 -18.741  0.00  0.00     0.090 H 
ATOM     94  H   SGN d 504       5.917  14.369 -15.276  0.00  0.00     0.231 HD
ATOM     95  H   SGN d 504       4.772  15.556 -16.783  0.00  0.00     0.140 HD
ATOM     96  H   SGN d 504       3.322  15.122 -13.084  0.00  0.00     0.231 HD
ATOM     97  H   SGN d 504       1.053  18.522 -17.222  0.00  0.00     0.091 H 
ATOM     98  H   SGN d 504       1.905  14.923 -18.002  0.00  0.00     0.210 HD
ATOM     99  H   SGN d 504       1.734  20.929 -18.780  0.00  0.00     0.080 H 
ATOM    100  H   SGN d 504       3.084  21.433 -17.800  0.00  0.00     0.080 H 
ATOM    101  H   SGN d 504       3.125  16.723 -18.734  0.00  0.00     0.089 H 
ATOM    102  H   SGN d 504       4.594  17.819 -15.464  0.00  0.00     0.131 H 
ATOM    103  C1  IDS d 501      18.025  18.312 -20.933  0.00  0.00     0.156 C 
ATOM    104  O3  IDS d 501      15.512  16.588 -21.796  0.00  0.00    -0.390 OA
ATOM    105  C2  IDS d 501      17.186  18.277 -22.240  0.00  0.00     0.110 C 
ATOM    106  C4  IDS d 501      15.078  18.734 -20.798  0.00  0.00     0.103 C 
ATOM    107  C6  IDS d 501      15.560  19.287 -18.307  0.00  0.00     0.206 C 
ATOM    108  C3  IDS d 501      15.677  17.974 -22.017  0.00  0.00     0.092 C 
ATOM    109  O5  IDS d 501      17.338  19.059 -19.930  0.00  0.00    -0.340 OA
ATOM    110  O2  IDS d 501      17.302  19.540 -22.869  0.00  0.00    -0.388 OA
ATOM    111  C5  IDS d 501      16.027  18.581 -19.579  0.00  0.00     0.152 C 
ATOM    112  O62 IDS d 501      14.992  18.672 -17.434  0.00  0.00    -0.646 OA
ATOM    113  O61 IDS d 501      15.741  20.473 -18.137  0.00  0.00    -0.646 OA
ATOM    114  O1  IDS d 501      18.289  16.996 -20.527  0.00  0.00    -0.368 OA
ATOM    115  H   IDS d 501      18.960  18.804 -21.104  0.00  0.00     0.133 H 
ATOM    116  H   IDS d 501      15.879  16.095 -22.546  0.00  0.00     0.210 HD
ATOM    117  H   IDS d 501      17.572  17.479 -22.839  0.00  0.00     0.094 H 
ATOM    118  H   IDS d 501      14.869  19.579 -21.421  0.00  0.00     0.092 H 
ATOM    119  H   IDS d 501      15.161  18.303 -22.895  0.00  0.00     0.091 H 
ATOM    120  H   IDS d 501      16.940  20.226 -22.287  0.00  0.00     0.210 HD
ATOM    121  H   IDS d 501      16.033  17.536 -19.349  0.00  0.00     0.104 H 
ATOM    122  H   IDS d 501      17.452  16.532 -20.367  0.00  0.00     0.212 HD
ATOM    123  O3  IDS d 535      -2.296  19.996 -22.118  0.00  0.00    -0.393 OA
ATOM    124  H   IDS d 535      -3.246  20.093 -22.291  0.00  0.00     0.210 HD
ENDROOT
TORSDOF 37
ENDMDL
MODEL 35
REMARK VINA RESULT:      -5.8      5.013     12.292
REMARK  0 active torsions:
REMARK  status: ('A' for Active; 'I' for Inactive)
REMARK       I    between atoms: O3_1  and  C3_48 
REMARK       I    between atoms: C1_2  and  O1_8 
REMARK       I    between atoms: O2_5  and  C2_76 
REMARK       I    between atoms: O2_5  and  S_66 
REMARK       I    between atoms: C2_7  and  N_46 
REMARK       I    between atoms: O1_8  and  C4_39 
REMARK       I    between atoms: C2_12  and  N_23 
REMARK       I    between atoms: O2S_13  and  S1_25 
REMARK       I    between atoms: C1_14  and  O1_65 
REMARK       I    between atoms: O3_15  and  C3_69 
REMARK       I    between atoms: C5_16  and  C6_31 
REMARK       I    between atoms: C5_17  and  C6_68 
REMARK       I    between atoms: C5_18  and  C6_71 
REMARK       I    between atoms: O3S_19  and  S1_25 
REMARK       I    between atoms: C6_20  and  C5_28 
REMARK       I    between atoms: C6_20  and  O6_74 
REMARK       I    between atoms: C4_21  and  O1_35 
REMARK       I    between atoms: S2_22  and  O6_74 
REMARK       I    between atoms: N_23  and  S1_25 
REMARK       I    between atoms: O1S_24  and  S1_25 
REMARK       I    between atoms: C4_27  and  O1_63 
REMARK       I    between atoms: O1_29  and  C4_49 
REMARK       I    between atoms: O1_29  and  C1_73 
REMARK       I    between atoms: O2_30  and  C2_78 
REMARK       I    between atoms: O3_33  and  C3_42 
REMARK       I    between atoms: O1_35  and  C1_77 
REMARK       I    between atoms: O3S_37  and  S1_50 
REMARK       I    between atoms: C2_38  and  O2_45 
REMARK       I    between atoms: C6_40  and  C5_51 
REMARK       I    between atoms: C3_41  and  O3_67 
REMARK       I    between atoms: N_46  and  S1_50 
REMARK       I    between atoms: O6_47  and  C6_71 
REMARK       I    between atoms: O6_47  and  S2_72 
REMARK       I    between atoms: S1_50  and  O1S_61 
REMARK       I    between atoms: S1_50  and  O2S_54 
REMARK       I    between atoms: O3_56  and  C3_75 
REMARK       I    between atoms: C1_58  and  O1_63 
ROOT
ATOM      1  O3  SGN d 502      11.142  17.454 -23.350  0.00  0.00    -0.391 OA
ATOM      2  C1  SGN d 502      12.848  14.155 -22.702  0.00  0.00     0.150 C 
ATOM      3  O6S SGN d 502       8.962  12.938 -17.740  0.00  0.00    -0.572 OA
ATOM      4  C2  SGN d 502      12.065  15.229 -23.507  0.00  0.00     0.081 C 
ATOM      5  O1  SGN d 502      14.164  14.588 -22.422  0.00  0.00    -0.348 OA
ATOM      6  O5  SGN d 502      12.159  13.842 -21.482  0.00  0.00    -0.349 OA
ATOM      7  C6  SGN d 502      11.161  14.398 -19.360  0.00  0.00     0.067 C 
ATOM      8  S2  SGN d 502       9.022  12.799 -19.165  0.00  0.00     0.251 S 
ATOM      9  C5  SGN d 502      11.858  14.965 -20.611  0.00  0.00     0.091 C 
ATOM     10  O3S SGN d 502      12.750  13.478 -26.027  0.00  0.00    -0.296 OA
ATOM     11  N   SGN d 502      12.822  15.541 -24.728  0.00  0.00    -0.210 NA
ATOM     12  C3  SGN d 502      11.863  16.477 -22.625  0.00  0.00     0.083 C 
ATOM     13  C4  SGN d 502      11.045  16.054 -21.383  0.00  0.00     0.095 C 
ATOM     14  S1  SGN d 502      12.375  14.859 -26.150  0.00  0.00     0.156 S 
ATOM     15  O2S SGN d 502      13.128  15.541 -27.163  0.00  0.00    -0.296 OA
ATOM     16  O4S SGN d 502       7.733  12.850 -19.785  0.00  0.00    -0.572 OA
ATOM     17  O1S SGN d 502      10.960  15.011 -26.309  0.00  0.00    -0.296 OA
ATOM     18  O5S SGN d 502       9.790  11.656 -19.572  0.00  0.00    -0.572 OA
ATOM     19  O6  SGN d 502       9.835  14.029 -19.690  0.00  0.00    -0.254 OA
ATOM     20  H   SGN d 502      11.653  17.721 -24.130  0.00  0.00     0.210 HD
ATOM     21  H   SGN d 502      12.908  13.272 -23.302  0.00  0.00     0.131 H 
ATOM     22  H   SGN d 502      11.099  14.868 -23.789  0.00  0.00     0.076 H 
ATOM     23  H   SGN d 502      11.144  15.143 -18.592  0.00  0.00     0.080 H 
ATOM     24  H   SGN d 502      11.696  13.540 -19.010  0.00  0.00     0.080 H 
ATOM     25  H   SGN d 502      12.740  15.476 -20.288  0.00  0.00     0.090 H 
ATOM     26  H   SGN d 502      12.217  13.059 -25.333  0.00  0.00     0.231 HD
ATOM     27  H   SGN d 502      13.788  15.264 -24.557  0.00  0.00     0.140 HD
ATOM     28  H   SGN d 502      12.808  16.884 -22.334  0.00  0.00     0.089 H 
ATOM     29  H   SGN d 502      10.092  15.604 -21.564  0.00  0.00     0.091 H 
ATOM     30  H   SGN d 502      14.076  15.405 -27.008  0.00  0.00     0.231 HD
ATOM     31  H   SGN d 502      10.503  14.532 -25.600  0.00  0.00     0.231 HD
ATOM     32  O62 IDS d 503       8.565  20.339 -23.785  0.00  0.00    -0.646 OA
ATOM     33  O2  IDS d 503       8.686  18.370 -18.090  0.00  0.00    -0.244 OA
ATOM     34  O5  IDS d 503       8.715  18.073 -21.121  0.00  0.00    -0.340 OA
ATOM     35  C5  IDS d 503       9.040  19.359 -21.668  0.00  0.00     0.152 C 
ATOM     36  C4  IDS d 503       8.903  20.425 -20.557  0.00  0.00     0.103 C 
ATOM     37  O61 IDS d 503       7.098  19.075 -23.044  0.00  0.00    -0.646 OA
ATOM     38  O1  IDS d 503      10.884  17.290 -20.689  0.00  0.00    -0.348 OA
ATOM     39  C6  IDS d 503       8.181  19.604 -22.905  0.00  0.00     0.206 C 
ATOM     40  O1S IDS d 503       9.466  18.296 -15.822  0.00  0.00    -0.572 OA
ATOM     41  O3S IDS d 503       9.175  16.261 -17.038  0.00  0.00    -0.572 OA
ATOM     42  C3  IDS d 503       9.839  20.060 -19.372  0.00  0.00     0.094 C 
ATOM     43  O2S IDS d 503       7.270  17.524 -16.375  0.00  0.00    -0.572 OA
ATOM     44  S   IDS d 503       8.654  17.565 -16.749  0.00  0.00     0.252 S 
ATOM     45  O3  IDS d 503      11.167  20.378 -19.745  0.00  0.00    -0.390 OA
ATOM     46  C1  IDS d 503       9.619  17.562 -20.148  0.00  0.00     0.161 C 
ATOM     47  C2  IDS d 503       9.779  18.559 -18.968  0.00  0.00     0.134 C 
ATOM     48  H   IDS d 503      10.054  19.412 -22.003  0.00  0.00     0.104 H 
ATOM     49  H   IDS d 503       9.158  21.355 -21.021  0.00  0.00     0.092 H 
ATOM     50  H   IDS d 503       9.510  20.620 -18.522  0.00  0.00     0.091 H 
ATOM     51  H   IDS d 503      11.422  19.849 -20.517  0.00  0.00     0.210 HD
ATOM     52  H   IDS d 503       9.199  16.643 -19.795  0.00  0.00     0.133 H 
ATOM     53  H   IDS d 503      10.726  18.345 -18.517  0.00  0.00     0.097 H 
ATOM     54  C4  IDS d 505      -0.901  21.569 -21.823  0.00  0.00    -0.005 C 
ATOM     55  C5  IDS d 505      -0.052  21.889 -20.548  0.00  0.00     0.127 C 
ATOM     56  O2  IDS d 505       2.118  21.129 -24.051  0.00  0.00    -0.388 OA
ATOM     57  O62 IDS d 505      -0.688  23.869 -19.345  0.00  0.00    -0.646 OA
ATOM     58  C1  IDS d 505       2.073  21.993 -21.796  0.00  0.00     0.159 C 
ATOM     59  O5  IDS d 505       1.131  22.636 -20.921  0.00  0.00    -0.343 OA
ATOM     60  O1  IDS d 505       2.981  21.200 -21.082  0.00  0.00    -0.348 OA
ATOM     61  O61 IDS d 505      -1.633  22.112 -18.779  0.00  0.00    -0.646 OA
ATOM     62  C6  IDS d 505      -0.835  22.673 -19.494  0.00  0.00     0.203 C 
ATOM     63  C3  IDS d 505      -0.048  21.586 -23.118  0.00  0.00     0.068 C 
ATOM     64  C2  IDS d 505       1.378  21.085 -22.844  0.00  0.00     0.107 C 
ATOM     65  H   IDS d 505      -1.337  20.598 -21.710  0.00  0.00     0.041 H 
ATOM     66  H   IDS d 505      -1.651  22.326 -21.915  0.00  0.00     0.041 H 
ATOM     67  H   IDS d 505       0.218  20.951 -20.112  0.00  0.00     0.100 H 
ATOM     68  H   IDS d 505       3.020  20.814 -23.888  0.00  0.00     0.210 HD
ATOM     69  H   IDS d 505       2.586  22.788 -22.296  0.00  0.00     0.133 H 
ATOM     70  H   IDS d 505       0.017  22.590 -23.483  0.00  0.00     0.087 H 
ATOM     71  H   IDS d 505       1.335  20.084 -22.468  0.00  0.00     0.094 H 
ATOM     72  O4S SGN d 504       4.677  26.191 -23.121  0.00  0.00    -0.572 OA
ATOM     73  C2  SGN d 504       5.855  21.824 -18.845  0.00  0.00     0.081 C 
ATOM     74  O2S SGN d 504       6.277  21.801 -15.187  0.00  0.00    -0.296 OA
ATOM     75  C5  SGN d 504       5.500  21.751 -21.733  0.00  0.00     0.091 C 
ATOM     76  O3S SGN d 504       8.349  21.808 -16.367  0.00  0.00    -0.296 OA
ATOM     77  N   SGN d 504       6.307  21.223 -17.578  0.00  0.00    -0.210 NA
ATOM     78  O1S SGN d 504       6.777  23.546 -16.741  0.00  0.00    -0.296 OA
ATOM     79  S1  SGN d 504       6.958  22.167 -16.396  0.00  0.00     0.156 S 
ATOM     80  C4  SGN d 504       4.261  21.764 -20.775  0.00  0.00     0.095 C 
ATOM     81  O1  SGN d 504       7.583  20.535 -20.013  0.00  0.00    -0.348 OA
ATOM     82  O6S SGN d 504       4.216  24.691 -24.926  0.00  0.00    -0.572 OA
ATOM     83  O6  SGN d 504       5.000  23.823 -22.833  0.00  0.00    -0.254 OA
ATOM     84  O5S SGN d 504       6.469  25.064 -24.232  0.00  0.00    -0.572 OA
ATOM     85  O3  SGN d 504       3.580  21.048 -18.566  0.00  0.00    -0.391 OA
ATOM     86  O5  SGN d 504       6.651  22.374 -21.100  0.00  0.00    -0.349 OA
ATOM     87  C6  SGN d 504       5.290  22.463 -23.079  0.00  0.00     0.067 C 
ATOM     88  S2  SGN d 504       5.088  25.018 -23.836  0.00  0.00     0.251 S 
ATOM     89  C3  SGN d 504       4.673  21.046 -19.466  0.00  0.00     0.083 C 
ATOM     90  C1  SGN d 504       7.050  21.830 -19.839  0.00  0.00     0.150 C 
ATOM     91  H   SGN d 504       5.515  22.819 -18.647  0.00  0.00     0.076 H 
ATOM     92  H   SGN d 504       6.431  20.861 -15.001  0.00  0.00     0.231 HD
ATOM     93  H   SGN d 504       5.657  20.711 -21.932  0.00  0.00     0.090 H 
ATOM     94  H   SGN d 504       8.436  20.872 -16.131  0.00  0.00     0.231 HD
ATOM     95  H   SGN d 504       7.014  20.528 -17.819  0.00  0.00     0.140 HD
ATOM     96  H   SGN d 504       7.160  24.107 -16.047  0.00  0.00     0.231 HD
ATOM     97  H   SGN d 504       4.062  22.815 -20.798  0.00  0.00     0.091 H 
ATOM     98  H   SGN d 504       3.837  20.599 -17.745  0.00  0.00     0.210 HD
ATOM     99  H   SGN d 504       4.475  22.009 -23.602  0.00  0.00     0.080 H 
ATOM    100  H   SGN d 504       6.175  22.381 -23.675  0.00  0.00     0.080 H 
ATOM    101  H   SGN d 504       4.958  20.035 -19.666  0.00  0.00     0.089 H 
ATOM    102  H   SGN d 504       7.815  22.449 -19.419  0.00  0.00     0.131 H 
ATOM    103  C1  IDS d 501      17.649  12.025 -21.700  0.00  0.00     0.156 C 
ATOM    104  O3  IDS d 501      14.732  11.872 -20.474  0.00  0.00    -0.390 OA
ATOM    105  C2  IDS d 501      16.356  11.307 -22.175  0.00  0.00     0.110 C 
ATOM    106  C4  IDS d 501      15.152  13.603 -22.092  0.00  0.00     0.103 C 
ATOM    107  C6  IDS d 501      16.709  15.636 -21.654  0.00  0.00     0.206 C 
ATOM    108  C3  IDS d 501      15.046  12.071 -21.838  0.00  0.00     0.092 C 
ATOM    109  O5  IDS d 501      17.587  13.413 -22.024  0.00  0.00    -0.340 OA
ATOM    110  O2  IDS d 501      16.436  11.149 -23.580  0.00  0.00    -0.388 OA
ATOM    111  C5  IDS d 501      16.472  14.137 -21.473  0.00  0.00     0.152 C 
ATOM    112  O62 IDS d 501      16.446  16.412 -20.766  0.00  0.00    -0.646 OA
ATOM    113  O61 IDS d 501      17.159  16.086 -22.685  0.00  0.00    -0.646 OA
ATOM    114  O1  IDS d 501      17.809  11.809 -20.322  0.00  0.00    -0.368 OA
ATOM    115  H   IDS d 501      18.505  11.625 -22.203  0.00  0.00     0.133 H 
ATOM    116  H   IDS d 501      14.661  10.922 -20.294  0.00  0.00     0.210 HD
ATOM    117  H   IDS d 501      16.307  10.373 -21.656  0.00  0.00     0.094 H 
ATOM    118  H   IDS d 501      14.865  13.459 -23.113  0.00  0.00     0.092 H 
ATOM    119  H   IDS d 501      14.285  11.683 -22.483  0.00  0.00     0.091 H 
ATOM    120  H   IDS d 501      16.478  12.021 -24.002  0.00  0.00     0.210 HD
ATOM    121  H   IDS d 501      16.379  13.981 -20.418  0.00  0.00     0.104 H 
ATOM    122  H   IDS d 501      17.041  12.166 -19.848  0.00  0.00     0.212 HD
ATOM    123  O3  IDS d 535      -0.667  20.747 -24.071  0.00  0.00    -0.393 OA
ATOM    124  H   IDS d 535      -1.568  21.063 -24.244  0.00  0.00     0.210 HD
ENDROOT
TORSDOF 37
ENDMDL
MODEL 36
REMARK VINA RESULT:      -5.8      4.285      8.141
REMARK  0 active torsions:
REMARK  status: ('A' for Active; 'I' for Inactive)
REMARK       I    between atoms: O3_1  and  C3_48 
REMARK       I    between atoms: C1_2  and  O1_8 
REMARK       I    between atoms: O2_5  and  C2_76 
REMARK       I    between atoms: O2_5  and  S_66 
REMARK       I    between atoms: C2_7  and  N_46 
REMARK       I    between atoms: O1_8  and  C4_39 
REMARK       I    between atoms: C2_12  and  N_23 
REMARK       I    between atoms: O2S_13  and  S1_25 
REMARK       I    between atoms: C1_14  and  O1_65 
REMARK       I    between atoms: O3_15  and  C3_69 
REMARK       I    between atoms: C5_16  and  C6_31 
REMARK       I    between atoms: C5_17  and  C6_68 
REMARK       I    between atoms: C5_18  and  C6_71 
REMARK       I    between atoms: O3S_19  and  S1_25 
REMARK       I    between atoms: C6_20  and  C5_28 
REMARK       I    between atoms: C6_20  and  O6_74 
REMARK       I    between atoms: C4_21  and  O1_35 
REMARK       I    between atoms: S2_22  and  O6_74 
REMARK       I    between atoms: N_23  and  S1_25 
REMARK       I    between atoms: O1S_24  and  S1_25 
REMARK       I    between atoms: C4_27  and  O1_63 
REMARK       I    between atoms: O1_29  and  C4_49 
REMARK       I    between atoms: O1_29  and  C1_73 
REMARK       I    between atoms: O2_30  and  C2_78 
REMARK       I    between atoms: O3_33  and  C3_42 
REMARK       I    between atoms: O1_35  and  C1_77 
REMARK       I    between atoms: O3S_37  and  S1_50 
REMARK       I    between atoms: C2_38  and  O2_45 
REMARK       I    between atoms: C6_40  and  C5_51 
REMARK       I    between atoms: C3_41  and  O3_67 
REMARK       I    between atoms: N_46  and  S1_50 
REMARK       I    between atoms: O6_47  and  C6_71 
REMARK       I    between atoms: O6_47  and  S2_72 
REMARK       I    between atoms: S1_50  and  O1S_61 
REMARK       I    between atoms: S1_50  and  O2S_54 
REMARK       I    between atoms: O3_56  and  C3_75 
REMARK       I    between atoms: C1_58  and  O1_63 
ROOT
ATOM      1  O3  SGN d 502       1.783  18.279 -17.700  0.00  0.00    -0.391 OA
ATOM      2  C1  SGN d 502       0.211  15.517 -19.728  0.00  0.00     0.150 C 
ATOM      3  O6S SGN d 502       2.850  17.762 -25.131  0.00  0.00    -0.572 OA
ATOM      4  C2  SGN d 502       1.087  16.157 -18.616  0.00  0.00     0.081 C 
ATOM      5  O1  SGN d 502      -1.160  15.772 -19.504  0.00  0.00    -0.348 OA
ATOM      6  O5  SGN d 502       0.604  16.007 -21.018  0.00  0.00    -0.349 OA
ATOM      7  C6  SGN d 502       1.012  17.744 -22.638  0.00  0.00     0.067 C 
ATOM      8  S2  SGN d 502       3.149  16.908 -24.019  0.00  0.00     0.251 S 
ATOM      9  C5  SGN d 502       0.602  17.449 -21.182  0.00  0.00     0.091 C 
ATOM     10  O3S SGN d 502       1.163  13.273 -17.364  0.00  0.00    -0.296 OA
ATOM     11  N   SGN d 502       0.630  15.652 -17.313  0.00  0.00    -0.210 NA
ATOM     12  C3  SGN d 502       0.979  17.691 -18.704  0.00  0.00     0.083 C 
ATOM     13  C4  SGN d 502       1.498  18.125 -20.094  0.00  0.00     0.095 C 
ATOM     14  S1  SGN d 502       1.457  14.440 -16.581  0.00  0.00     0.156 S 
ATOM     15  O2S SGN d 502       0.926  14.353 -15.251  0.00  0.00    -0.296 OA
ATOM     16  O4S SGN d 502       4.543  16.881 -23.696  0.00  0.00    -0.572 OA
ATOM     17  O1S SGN d 502       2.853  14.756 -16.606  0.00  0.00    -0.296 OA
ATOM     18  O5S SGN d 502       2.587  15.596 -24.171  0.00  0.00    -0.572 OA
ATOM     19  O6  SGN d 502       2.402  17.518 -22.787  0.00  0.00    -0.254 OA
ATOM     20  H   SGN d 502       1.459  18.009 -16.827  0.00  0.00     0.210 HD
ATOM     21  H   SGN d 502       0.363  14.458 -19.699  0.00  0.00     0.131 H 
ATOM     22  H   SGN d 502       2.117  15.894 -18.739  0.00  0.00     0.076 H 
ATOM     23  H   SGN d 502       0.789  18.764 -22.873  0.00  0.00     0.080 H 
ATOM     24  H   SGN d 502       0.471  17.101 -23.300  0.00  0.00     0.080 H 
ATOM     25  H   SGN d 502      -0.366  17.876 -21.026  0.00  0.00     0.090 H 
ATOM     26  H   SGN d 502       1.540  13.376 -18.252  0.00  0.00     0.231 HD
ATOM     27  H   SGN d 502      -0.327  15.323 -17.441  0.00  0.00     0.140 HD
ATOM     28  H   SGN d 502      -0.035  18.002 -18.567  0.00  0.00     0.089 H 
ATOM     29  H   SGN d 502       2.497  17.837 -20.348  0.00  0.00     0.091 H 
ATOM     30  H   SGN d 502      -0.019  14.138 -15.294  0.00  0.00     0.231 HD
ATOM     31  H   SGN d 502       3.158  14.802 -17.526  0.00  0.00     0.231 HD
ATOM     32  O62 IDS d 503       4.175  20.968 -16.218  0.00  0.00    -0.646 OA
ATOM     33  O2  IDS d 503       2.814  22.195 -21.960  0.00  0.00    -0.244 OA
ATOM     34  O5  IDS d 503       3.544  20.396 -19.614  0.00  0.00    -0.340 OA
ATOM     35  C5  IDS d 503       3.271  21.135 -18.414  0.00  0.00     0.152 C 
ATOM     36  C4  IDS d 503       3.057  22.622 -18.779  0.00  0.00     0.103 C 
ATOM     37  O61 IDS d 503       5.504  20.565 -17.757  0.00  0.00    -0.646 OA
ATOM     38  O1  IDS d 503       1.397  19.546 -20.029  0.00  0.00    -0.348 OA
ATOM     39  C6  IDS d 503       4.385  20.873 -17.405  0.00  0.00     0.206 C 
ATOM     40  O1S IDS d 503       1.513  23.140 -23.741  0.00  0.00    -0.572 OA
ATOM     41  O3S IDS d 503       2.236  20.868 -23.882  0.00  0.00    -0.572 OA
ATOM     42  C3  IDS d 503       1.889  22.741 -19.797  0.00  0.00     0.094 C 
ATOM     43  O2S IDS d 503       3.827  22.629 -24.069  0.00  0.00    -0.572 OA
ATOM     44  S   IDS d 503       2.576  22.208 -23.506  0.00  0.00     0.252 S 
ATOM     45  O3  IDS d 503       0.673  22.565 -19.095  0.00  0.00    -0.390 OA
ATOM     46  C1  IDS d 503       2.469  20.291 -20.540  0.00  0.00     0.161 C 
ATOM     47  C2  IDS d 503       1.957  21.699 -20.950  0.00  0.00     0.134 C 
ATOM     48  H   IDS d 503       2.367  20.816 -17.939  0.00  0.00     0.104 H 
ATOM     49  H   IDS d 503       2.857  23.117 -17.852  0.00  0.00     0.092 H 
ATOM     50  H   IDS d 503       1.961  23.707 -20.252  0.00  0.00     0.091 H 
ATOM     51  H   IDS d 503       0.652  21.679 -18.701  0.00  0.00     0.210 HD
ATOM     52  H   IDS d 503       2.856  19.780 -21.397  0.00  0.00     0.133 H 
ATOM     53  H   IDS d 503       0.946  21.569 -21.278  0.00  0.00     0.097 H 
ATOM     54  C4  IDS d 505      12.766  24.801 -18.761  0.00  0.00    -0.005 C 
ATOM     55  C5  IDS d 505      11.612  25.558 -19.498  0.00  0.00     0.127 C 
ATOM     56  O2  IDS d 505      10.420  22.722 -16.654  0.00  0.00    -0.388 OA
ATOM     57  O62 IDS d 505      11.793  27.953 -19.531  0.00  0.00    -0.646 OA
ATOM     58  C1  IDS d 505       9.853  24.605 -18.056  0.00  0.00     0.159 C 
ATOM     59  O5  IDS d 505      10.506  25.769 -18.590  0.00  0.00    -0.343 OA
ATOM     60  O1  IDS d 505       8.858  24.130 -18.921  0.00  0.00    -0.348 OA
ATOM     61  O61 IDS d 505      12.695  26.946 -21.103  0.00  0.00    -0.646 OA
ATOM     62  C6  IDS d 505      12.057  26.901 -20.077  0.00  0.00     0.203 C 
ATOM     63  C3  IDS d 505      12.255  23.993 -17.540  0.00  0.00     0.068 C 
ATOM     64  C2  IDS d 505      10.845  23.440 -17.797  0.00  0.00     0.107 C 
ATOM     65  H   IDS d 505      13.230  24.127 -19.451  0.00  0.00     0.041 H 
ATOM     66  H   IDS d 505      13.461  25.532 -18.403  0.00  0.00     0.041 H 
ATOM     67  H   IDS d 505      11.312  24.941 -20.319  0.00  0.00     0.100 H 
ATOM     68  H   IDS d 505       9.530  22.369 -16.807  0.00  0.00     0.210 HD
ATOM     69  H   IDS d 505       9.421  24.920 -17.129  0.00  0.00     0.133 H 
ATOM     70  H   IDS d 505      12.210  24.637 -16.686  0.00  0.00     0.087 H 
ATOM     71  H   IDS d 505      10.867  22.801 -18.655  0.00  0.00     0.094 H 
ATOM     72  O4S SGN d 504       7.356  26.957 -14.262  0.00  0.00    -0.572 OA
ATOM     73  C2  SGN d 504       5.489  25.247 -19.948  0.00  0.00     0.081 C 
ATOM     74  O2S SGN d 504       4.193  27.011 -22.910  0.00  0.00    -0.296 OA
ATOM     75  C5  SGN d 504       6.540  23.782 -17.664  0.00  0.00     0.091 C 
ATOM     76  O3S SGN d 504       2.475  26.022 -21.585  0.00  0.00    -0.296 OA
ATOM     77  N   SGN d 504       4.786  25.303 -21.243  0.00  0.00    -0.210 NA
ATOM     78  O1S SGN d 504       3.962  27.589 -20.602  0.00  0.00    -0.296 OA
ATOM     79  S1  SGN d 504       3.801  26.573 -21.601  0.00  0.00     0.156 S 
ATOM     80  C4  SGN d 504       7.505  24.517 -18.655  0.00  0.00     0.095 C 
ATOM     81  O1  SGN d 504       4.193  23.242 -19.389  0.00  0.00    -0.348 OA
ATOM     82  O6S SGN d 504       8.348  24.866 -13.659  0.00  0.00    -0.572 OA
ATOM     83  O6  SGN d 504       7.143  25.056 -15.723  0.00  0.00    -0.254 OA
ATOM     84  O5S SGN d 504       5.973  25.104 -13.653  0.00  0.00    -0.572 OA
ATOM     85  O3  SGN d 504       7.677  25.171 -20.979  0.00  0.00    -0.391 OA
ATOM     86  O5  SGN d 504       5.228  24.408 -17.658  0.00  0.00    -0.349 OA
ATOM     87  C6  SGN d 504       7.019  23.733 -16.205  0.00  0.00     0.067 C 
ATOM     88  S2  SGN d 504       7.216  25.531 -14.236  0.00  0.00     0.251 S 
ATOM     89  C3  SGN d 504       6.839  24.503 -20.054  0.00  0.00     0.083 C 
ATOM     90  C1  SGN d 504       4.574  24.519 -18.925  0.00  0.00     0.150 C 
ATOM     91  H   SGN d 504       5.699  26.248 -19.633  0.00  0.00     0.076 H 
ATOM     92  H   SGN d 504       4.065  26.288 -23.545  0.00  0.00     0.231 HD
ATOM     93  H   SGN d 504       6.510  22.778 -18.034  0.00  0.00     0.090 H 
ATOM     94  H   SGN d 504       2.400  25.340 -22.270  0.00  0.00     0.231 HD
ATOM     95  H   SGN d 504       4.211  24.462 -21.300  0.00  0.00     0.140 HD
ATOM     96  H   SGN d 504       3.383  28.340 -20.809  0.00  0.00     0.231 HD
ATOM     97  H   SGN d 504       7.627  25.425 -18.103  0.00  0.00     0.091 H 
ATOM     98  H   SGN d 504       7.261  25.163 -21.856  0.00  0.00     0.210 HD
ATOM     99  H   SGN d 504       7.968  23.241 -16.154  0.00  0.00     0.080 H 
ATOM    100  H   SGN d 504       6.314  23.193 -15.608  0.00  0.00     0.080 H 
ATOM    101  H   SGN d 504       6.684  23.498 -20.386  0.00  0.00     0.089 H 
ATOM    102  H   SGN d 504       3.688  25.106 -18.810  0.00  0.00     0.131 H 
ATOM    103  C1  IDS d 501      -4.525  13.327 -20.898  0.00  0.00     0.156 C 
ATOM    104  O3  IDS d 501      -1.990  14.377 -22.481  0.00  0.00    -0.390 OA
ATOM    105  C2  IDS d 501      -3.107  12.727 -21.110  0.00  0.00     0.110 C 
ATOM    106  C4  IDS d 501      -2.126  14.926 -20.142  0.00  0.00     0.103 C 
ATOM    107  C6  IDS d 501      -3.884  16.558 -19.147  0.00  0.00     0.206 C 
ATOM    108  C3  IDS d 501      -1.976  13.790 -21.195  0.00  0.00     0.092 C 
ATOM    109  O5  IDS d 501      -4.484  14.338 -19.893  0.00  0.00    -0.340 OA
ATOM    110  O2  IDS d 501      -2.831  11.864 -20.022  0.00  0.00    -0.388 OA
ATOM    111  C5  IDS d 501      -3.592  15.438 -20.144  0.00  0.00     0.152 C 
ATOM    112  O62 IDS d 501      -3.902  17.713 -19.505  0.00  0.00    -0.646 OA
ATOM    113  O61 IDS d 501      -4.102  16.325 -17.978  0.00  0.00    -0.646 OA
ATOM    114  O1  IDS d 501      -4.999  13.817 -22.124  0.00  0.00    -0.368 OA
ATOM    115  H   IDS d 501      -5.202  12.572 -20.555  0.00  0.00     0.133 H 
ATOM    116  H   IDS d 501      -1.897  13.685 -23.154  0.00  0.00     0.210 HD
ATOM    117  H   IDS d 501      -3.119  12.218 -22.050  0.00  0.00     0.094 H 
ATOM    118  H   IDS d 501      -1.591  14.340 -19.425  0.00  0.00     0.092 H 
ATOM    119  H   IDS d 501      -1.055  13.280 -21.000  0.00  0.00     0.091 H 
ATOM    120  H   IDS d 501      -2.832  12.373 -19.197  0.00  0.00     0.210 HD
ATOM    121  H   IDS d 501      -3.747  15.862 -21.115  0.00  0.00     0.104 H 
ATOM    122  H   IDS d 501      -4.397  14.504 -22.452  0.00  0.00     0.212 HD
ATOM    123  O3  IDS d 535      13.146  22.921 -17.309  0.00  0.00    -0.393 OA
ATOM    124  H   IDS d 535      14.037  23.270 -17.148  0.00  0.00     0.210 HD
ENDROOT
TORSDOF 37
ENDMDL
MODEL 37
REMARK VINA RESULT:      -5.8      3.028     13.405
REMARK  0 active torsions:
REMARK  status: ('A' for Active; 'I' for Inactive)
REMARK       I    between atoms: O3_1  and  C3_48 
REMARK       I    between atoms: C1_2  and  O1_8 
REMARK       I    between atoms: O2_5  and  C2_76 
REMARK       I    between atoms: O2_5  and  S_66 
REMARK       I    between atoms: C2_7  and  N_46 
REMARK       I    between atoms: O1_8  and  C4_39 
REMARK       I    between atoms: C2_12  and  N_23 
REMARK       I    between atoms: O2S_13  and  S1_25 
REMARK       I    between atoms: C1_14  and  O1_65 
REMARK       I    between atoms: O3_15  and  C3_69 
REMARK       I    between atoms: C5_16  and  C6_31 
REMARK       I    between atoms: C5_17  and  C6_68 
REMARK       I    between atoms: C5_18  and  C6_71 
REMARK       I    between atoms: O3S_19  and  S1_25 
REMARK       I    between atoms: C6_20  and  C5_28 
REMARK       I    between atoms: C6_20  and  O6_74 
REMARK       I    between atoms: C4_21  and  O1_35 
REMARK       I    between atoms: S2_22  and  O6_74 
REMARK       I    between atoms: N_23  and  S1_25 
REMARK       I    between atoms: O1S_24  and  S1_25 
REMARK       I    between atoms: C4_27  and  O1_63 
REMARK       I    between atoms: O1_29  and  C4_49 
REMARK       I    between atoms: O1_29  and  C1_73 
REMARK       I    between atoms: O2_30  and  C2_78 
REMARK       I    between atoms: O3_33  and  C3_42 
REMARK       I    between atoms: O1_35  and  C1_77 
REMARK       I    between atoms: O3S_37  and  S1_50 
REMARK       I    between atoms: C2_38  and  O2_45 
REMARK       I    between atoms: C6_40  and  C5_51 
REMARK       I    between atoms: C3_41  and  O3_67 
REMARK       I    between atoms: N_46  and  S1_50 
REMARK       I    between atoms: O6_47  and  C6_71 
REMARK       I    between atoms: O6_47  and  S2_72 
REMARK       I    between atoms: S1_50  and  O1S_61 
REMARK       I    between atoms: S1_50  and  O2S_54 
REMARK       I    between atoms: O3_56  and  C3_75 
REMARK       I    between atoms: C1_58  and  O1_63 
ROOT
ATOM      1  O3  SGN d 502       9.317  23.235 -16.361  0.00  0.00    -0.391 OA
ATOM      2  C1  SGN d 502      12.421  24.740 -17.881  0.00  0.00     0.150 C 
ATOM      3  O6S SGN d 502      13.200  19.656 -21.722  0.00  0.00    -0.572 OA
ATOM      4  C2  SGN d 502      10.924  24.650 -17.477  0.00  0.00     0.081 C 
ATOM      5  O1  SGN d 502      13.251  24.843 -16.742  0.00  0.00    -0.348 OA
ATOM      6  O5  SGN d 502      12.797  23.600 -18.668  0.00  0.00    -0.349 OA
ATOM      7  C6  SGN d 502      13.055  21.236 -19.062  0.00  0.00     0.067 C 
ATOM      8  S2  SGN d 502      12.504  20.909 -21.662  0.00  0.00     0.251 S 
ATOM      9  C5  SGN d 502      12.543  22.300 -18.072  0.00  0.00     0.091 C 
ATOM     10  O3S SGN d 502      10.811  27.716 -18.164  0.00  0.00    -0.296 OA
ATOM     11  N   SGN d 502      10.593  25.818 -16.648  0.00  0.00    -0.210 NA
ATOM     12  C3  SGN d 502      10.681  23.328 -16.723  0.00  0.00     0.083 C 
ATOM     13  C4  SGN d 502      11.037  22.164 -17.677  0.00  0.00     0.095 C 
ATOM     14  S1  SGN d 502       9.823  27.097 -17.327  0.00  0.00     0.156 S 
ATOM     15  O2S SGN d 502       9.427  27.938 -16.234  0.00  0.00    -0.296 OA
ATOM     16  O4S SGN d 502      11.267  20.894 -22.381  0.00  0.00    -0.572 OA
ATOM     17  O1S SGN d 502       8.712  26.612 -18.089  0.00  0.00    -0.296 OA
ATOM     18  O5S SGN d 502      13.343  22.018 -22.020  0.00  0.00    -0.572 OA
ATOM     19  O6  SGN d 502      12.159  21.145 -20.154  0.00  0.00    -0.254 OA
ATOM     20  H   SGN d 502       9.091  23.964 -15.762  0.00  0.00     0.210 HD
ATOM     21  H   SGN d 502      12.551  25.624 -18.470  0.00  0.00     0.131 H 
ATOM     22  H   SGN d 502      10.292  24.655 -18.340  0.00  0.00     0.076 H 
ATOM     23  H   SGN d 502      13.115  20.289 -18.569  0.00  0.00     0.080 H 
ATOM     24  H   SGN d 502      14.025  21.514 -19.416  0.00  0.00     0.080 H 
ATOM     25  H   SGN d 502      13.069  22.165 -17.151  0.00  0.00     0.090 H 
ATOM     26  H   SGN d 502      11.048  27.113 -18.886  0.00  0.00     0.231 HD
ATOM     27  H   SGN d 502      11.470  26.169 -16.266  0.00  0.00     0.140 HD
ATOM     28  H   SGN d 502      11.282  23.287 -15.839  0.00  0.00     0.089 H 
ATOM     29  H   SGN d 502      10.514  22.129 -18.610  0.00  0.00     0.091 H 
ATOM     30  H   SGN d 502      10.216  28.236 -15.754  0.00  0.00     0.231 HD
ATOM     31  H   SGN d 502       9.036  26.051 -18.811  0.00  0.00     0.231 HD
ATOM     32  O62 IDS d 503       5.949  21.388 -15.729  0.00  0.00    -0.646 OA
ATOM     33  O2  IDS d 503      10.189  17.575 -17.683  0.00  0.00    -0.244 OA
ATOM     34  O5  IDS d 503       8.647  20.201 -17.619  0.00  0.00    -0.340 OA
ATOM     35  C5  IDS d 503       7.934  20.241 -16.375  0.00  0.00     0.152 C 
ATOM     36  C4  IDS d 503       7.952  18.831 -15.741  0.00  0.00     0.103 C 
ATOM     37  O61 IDS d 503       5.995  20.734 -17.696  0.00  0.00    -0.646 OA
ATOM     38  O1  IDS d 503      10.722  21.017 -16.891  0.00  0.00    -0.348 OA
ATOM     39  C6  IDS d 503       6.543  20.821 -16.617  0.00  0.00     0.206 C 
ATOM     40  O1S IDS d 503      12.024  16.047 -17.453  0.00  0.00    -0.572 OA
ATOM     41  O3S IDS d 503      12.129  17.780 -19.093  0.00  0.00    -0.572 OA
ATOM     42  C3  IDS d 503       9.423  18.374 -15.538  0.00  0.00     0.094 C 
ATOM     43  O2S IDS d 503      10.614  15.967 -19.384  0.00  0.00    -0.572 OA
ATOM     44  S   IDS d 503      11.312  16.797 -18.444  0.00  0.00     0.252 S 
ATOM     45  O3  IDS d 503       9.948  19.066 -14.420  0.00  0.00    -0.390 OA
ATOM     46  C1  IDS d 503      10.047  19.966 -17.530  0.00  0.00     0.161 C 
ATOM     47  C2  IDS d 503      10.336  18.644 -16.768  0.00  0.00     0.134 C 
ATOM     48  H   IDS d 503       8.400  20.890 -15.663  0.00  0.00     0.104 H 
ATOM     49  H   IDS d 503       7.411  18.925 -14.822  0.00  0.00     0.092 H 
ATOM     50  H   IDS d 503       9.409  17.315 -15.391  0.00  0.00     0.091 H 
ATOM     51  H   IDS d 503       9.941  20.020 -14.597  0.00  0.00     0.210 HD
ATOM     52  H   IDS d 503      10.408  19.895 -18.534  0.00  0.00     0.133 H 
ATOM     53  H   IDS d 503      11.327  18.731 -16.375  0.00  0.00     0.097 H 
ATOM     54  C4  IDS d 505       0.116  15.576 -20.940  0.00  0.00    -0.005 C 
ATOM     55  C5  IDS d 505       1.247  14.726 -20.272  0.00  0.00     0.127 C 
ATOM     56  O2  IDS d 505       1.098  18.766 -19.170  0.00  0.00    -0.388 OA
ATOM     57  O62 IDS d 505       0.541  12.666 -19.259  0.00  0.00    -0.646 OA
ATOM     58  C1  IDS d 505       1.918  16.536 -18.737  0.00  0.00     0.159 C 
ATOM     59  O5  IDS d 505       1.468  15.183 -18.917  0.00  0.00    -0.343 OA
ATOM     60  O1  IDS d 505       3.312  16.633 -18.839  0.00  0.00    -0.348 OA
ATOM     61  O61 IDS d 505       1.076  12.565 -21.260  0.00  0.00    -0.646 OA
ATOM     62  C6  IDS d 505       0.937  13.230 -20.259  0.00  0.00     0.203 C 
ATOM     63  C3  IDS d 505      -0.050  16.966 -20.271  0.00  0.00     0.068 C 
ATOM     64  C2  IDS d 505       1.303  17.505 -19.780  0.00  0.00     0.107 C 
ATOM     65  H   IDS d 505       0.357  15.718 -21.973  0.00  0.00     0.041 H 
ATOM     66  H   IDS d 505      -0.805  15.044 -20.823  0.00  0.00     0.041 H 
ATOM     67  H   IDS d 505       2.128  14.864 -20.863  0.00  0.00     0.100 H 
ATOM     68  H   IDS d 505       1.946  19.115 -18.857  0.00  0.00     0.210 HD
ATOM     69  H   IDS d 505       1.596  16.816 -17.755  0.00  0.00     0.133 H 
ATOM     70  H   IDS d 505      -0.698  16.873 -19.424  0.00  0.00     0.087 H 
ATOM     71  H   IDS d 505       1.970  17.595 -20.613  0.00  0.00     0.094 H 
ATOM     72  O4S SGN d 504       0.886  16.893 -13.740  0.00  0.00    -0.572 OA
ATOM     73  C2  SGN d 504       6.195  15.656 -16.744  0.00  0.00     0.081 C 
ATOM     74  O2S SGN d 504       8.548  12.824 -16.827  0.00  0.00    -0.296 OA
ATOM     75  C5  SGN d 504       4.367  17.920 -16.764  0.00  0.00     0.091 C 
ATOM     76  O3S SGN d 504       9.270  14.598 -15.405  0.00  0.00    -0.296 OA
ATOM     77  N   SGN d 504       7.503  15.041 -17.036  0.00  0.00    -0.210 NA
ATOM     78  O1S SGN d 504       7.164  13.570 -15.026  0.00  0.00    -0.296 OA
ATOM     79  S1  SGN d 504       8.148  13.930 -16.005  0.00  0.00     0.156 S 
ATOM     80  C4  SGN d 504       4.070  16.645 -17.624  0.00  0.00     0.095 C 
ATOM     81  O1  SGN d 504       7.320  17.825 -16.539  0.00  0.00    -0.348 OA
ATOM     82  O6S SGN d 504       0.287  18.820 -15.024  0.00  0.00    -0.572 OA
ATOM     83  O6  SGN d 504       2.410  17.767 -15.385  0.00  0.00    -0.254 OA
ATOM     84  O5S SGN d 504       2.007  18.972 -13.376  0.00  0.00    -0.572 OA
ATOM     85  O3  SGN d 504       5.204  14.863 -18.805  0.00  0.00    -0.391 OA
ATOM     86  O5  SGN d 504       5.194  17.589 -15.615  0.00  0.00    -0.349 OA
ATOM     87  C6  SGN d 504       3.125  18.648 -16.227  0.00  0.00     0.067 C 
ATOM     88  S2  SGN d 504       1.327  18.127 -14.319  0.00  0.00     0.251 S 
ATOM     89  C3  SGN d 504       5.430  16.029 -18.034  0.00  0.00     0.083 C 
ATOM     90  C1  SGN d 504       6.434  16.935 -15.895  0.00  0.00     0.150 C 
ATOM     91  H   SGN d 504       5.598  14.946 -16.212  0.00  0.00     0.076 H 
ATOM     92  H   SGN d 504       9.212  13.122 -17.469  0.00  0.00     0.231 HD
ATOM     93  H   SGN d 504       4.864  18.577 -17.447  0.00  0.00     0.090 H 
ATOM     94  H   SGN d 504       9.914  14.827 -16.093  0.00  0.00     0.231 HD
ATOM     95  H   SGN d 504       8.177  15.804 -17.103  0.00  0.00     0.140 HD
ATOM     96  H   SGN d 504       7.540  12.915 -14.416  0.00  0.00     0.231 HD
ATOM     97  H   SGN d 504       3.415  16.149 -16.938  0.00  0.00     0.091 H 
ATOM     98  H   SGN d 504       6.055  14.475 -19.062  0.00  0.00     0.210 HD
ATOM     99  H   SGN d 504       2.503  18.949 -17.044  0.00  0.00     0.080 H 
ATOM    100  H   SGN d 504       3.422  19.516 -15.677  0.00  0.00     0.080 H 
ATOM    101  H   SGN d 504       5.998  16.725 -18.614  0.00  0.00     0.089 H 
ATOM    102  H   SGN d 504       6.884  16.631 -14.973  0.00  0.00     0.131 H 
ATOM    103  C1  IDS d 501      17.233  26.674 -16.578  0.00  0.00     0.156 C 
ATOM    104  O3  IDS d 501      16.043  24.595 -18.650  0.00  0.00    -0.390 OA
ATOM    105  C2  IDS d 501      16.447  26.860 -17.905  0.00  0.00     0.110 C 
ATOM    106  C4  IDS d 501      14.575  25.367 -16.906  0.00  0.00     0.103 C 
ATOM    107  C6  IDS d 501      14.882  24.768 -14.397  0.00  0.00     0.206 C 
ATOM    108  C3  IDS d 501      15.389  25.754 -18.175  0.00  0.00     0.092 C 
ATOM    109  O5  IDS d 501      16.338  26.338 -15.520  0.00  0.00    -0.340 OA
ATOM    110  O2  IDS d 501      15.786  28.111 -17.850  0.00  0.00    -0.388 OA
ATOM    111  C5  IDS d 501      15.550  25.150 -15.717  0.00  0.00     0.152 C 
ATOM    112  O62 IDS d 501      14.830  23.613 -14.045  0.00  0.00    -0.646 OA
ATOM    113  O61 IDS d 501      14.386  25.603 -13.673  0.00  0.00    -0.646 OA
ATOM    114  O1  IDS d 501      18.220  25.695 -16.768  0.00  0.00    -0.368 OA
ATOM    115  H   IDS d 501      17.718  27.587 -16.300  0.00  0.00     0.133 H 
ATOM    116  H   IDS d 501      16.556  24.815 -19.443  0.00  0.00     0.210 HD
ATOM    117  H   IDS d 501      17.158  26.803 -18.702  0.00  0.00     0.094 H 
ATOM    118  H   IDS d 501      13.879  26.154 -17.105  0.00  0.00     0.092 H 
ATOM    119  H   IDS d 501      14.703  26.149 -18.896  0.00  0.00     0.091 H 
ATOM    120  H   IDS d 501      15.155  28.111 -17.113  0.00  0.00     0.210 HD
ATOM    121  H   IDS d 501      16.157  24.312 -15.991  0.00  0.00     0.104 H 
ATOM    122  H   IDS d 501      17.800  24.857 -17.021  0.00  0.00     0.212 HD
ATOM    123  O3  IDS d 535      -0.595  17.857 -21.222  0.00  0.00    -0.393 OA
ATOM    124  H   IDS d 535      -1.449  17.515 -21.532  0.00  0.00     0.210 HD
ENDROOT
TORSDOF 37
ENDMDL
MODEL 38
REMARK VINA RESULT:      -5.7      5.572     11.868
REMARK  0 active torsions:
REMARK  status: ('A' for Active; 'I' for Inactive)
REMARK       I    between atoms: O3_1  and  C3_48 
REMARK       I    between atoms: C1_2  and  O1_8 
REMARK       I    between atoms: O2_5  and  C2_76 
REMARK       I    between atoms: O2_5  and  S_66 
REMARK       I    between atoms: C2_7  and  N_46 
REMARK       I    between atoms: O1_8  and  C4_39 
REMARK       I    between atoms: C2_12  and  N_23 
REMARK       I    between atoms: O2S_13  and  S1_25 
REMARK       I    between atoms: C1_14  and  O1_65 
REMARK       I    between atoms: O3_15  and  C3_69 
REMARK       I    between atoms: C5_16  and  C6_31 
REMARK       I    between atoms: C5_17  and  C6_68 
REMARK       I    between atoms: C5_18  and  C6_71 
REMARK       I    between atoms: O3S_19  and  S1_25 
REMARK       I    between atoms: C6_20  and  C5_28 
REMARK       I    between atoms: C6_20  and  O6_74 
REMARK       I    between atoms: C4_21  and  O1_35 
REMARK       I    between atoms: S2_22  and  O6_74 
REMARK       I    between atoms: N_23  and  S1_25 
REMARK       I    between atoms: O1S_24  and  S1_25 
REMARK       I    between atoms: C4_27  and  O1_63 
REMARK       I    between atoms: O1_29  and  C4_49 
REMARK       I    between atoms: O1_29  and  C1_73 
REMARK       I    between atoms: O2_30  and  C2_78 
REMARK       I    between atoms: O3_33  and  C3_42 
REMARK       I    between atoms: O1_35  and  C1_77 
REMARK       I    between atoms: O3S_37  and  S1_50 
REMARK       I    between atoms: C2_38  and  O2_45 
REMARK       I    between atoms: C6_40  and  C5_51 
REMARK       I    between atoms: C3_41  and  O3_67 
REMARK       I    between atoms: N_46  and  S1_50 
REMARK       I    between atoms: O6_47  and  C6_71 
REMARK       I    between atoms: O6_47  and  S2_72 
REMARK       I    between atoms: S1_50  and  O1S_61 
REMARK       I    between atoms: S1_50  and  O2S_54 
REMARK       I    between atoms: O3_56  and  C3_75 
REMARK       I    between atoms: C1_58  and  O1_63 
ROOT
ATOM      1  O3  SGN d 502       2.772  16.782 -21.047  0.00  0.00    -0.391 OA
ATOM      2  C1  SGN d 502       3.196  15.947 -17.395  0.00  0.00     0.150 C 
ATOM      3  O6S SGN d 502       2.870  22.148 -15.772  0.00  0.00    -0.572 OA
ATOM      4  C2  SGN d 502       2.544  15.917 -18.805  0.00  0.00     0.081 C 
ATOM      5  O1  SGN d 502       4.468  15.332 -17.410  0.00  0.00    -0.348 OA
ATOM      6  O5  SGN d 502       3.303  17.297 -16.921  0.00  0.00    -0.349 OA
ATOM      7  C6  SGN d 502       4.033  19.589 -17.072  0.00  0.00     0.067 C 
ATOM      8  S2  SGN d 502       2.023  21.021 -16.032  0.00  0.00     0.251 S 
ATOM      9  C5  SGN d 502       4.004  18.226 -17.790  0.00  0.00     0.091 C 
ATOM     10  O3S SGN d 502       0.922  13.448 -17.728  0.00  0.00    -0.296 OA
ATOM     11  N   SGN d 502       2.484  14.521 -19.263  0.00  0.00    -0.210 NA
ATOM     12  C3  SGN d 502       3.368  16.797 -19.764  0.00  0.00     0.083 C 
ATOM     13  C4  SGN d 502       3.356  18.242 -19.212  0.00  0.00     0.095 C 
ATOM     14  S1  SGN d 502       1.077  13.689 -19.135  0.00  0.00     0.156 S 
ATOM     15  O2S SGN d 502       1.271  12.478 -19.879  0.00  0.00    -0.296 OA
ATOM     16  O4S SGN d 502       0.745  21.393 -16.557  0.00  0.00    -0.572 OA
ATOM     17  O1S SGN d 502       0.016  14.499 -19.653  0.00  0.00    -0.296 OA
ATOM     18  O5S SGN d 502       1.926  20.138 -14.903  0.00  0.00    -0.572 OA
ATOM     19  O6  SGN d 502       2.747  20.177 -17.133  0.00  0.00    -0.254 OA
ATOM     20  H   SGN d 502       2.779  15.877 -21.396  0.00  0.00     0.210 HD
ATOM     21  H   SGN d 502       2.567  15.395 -16.729  0.00  0.00     0.131 H 
ATOM     22  H   SGN d 502       1.549  16.307 -18.776  0.00  0.00     0.076 H 
ATOM     23  H   SGN d 502       4.742  20.231 -17.552  0.00  0.00     0.080 H 
ATOM     24  H   SGN d 502       4.316  19.450 -16.050  0.00  0.00     0.080 H 
ATOM     25  H   SGN d 502       5.017  17.932 -17.967  0.00  0.00     0.090 H 
ATOM     26  H   SGN d 502       0.794  14.291 -17.267  0.00  0.00     0.231 HD
ATOM     27  H   SGN d 502       3.184  14.004 -18.730  0.00  0.00     0.140 HD
ATOM     28  H   SGN d 502       4.370  16.431 -19.839  0.00  0.00     0.089 H 
ATOM     29  H   SGN d 502       2.397  18.695 -19.068  0.00  0.00     0.091 H 
ATOM     30  H   SGN d 502       1.999  11.971 -19.486  0.00  0.00     0.231 HD
ATOM     31  H   SGN d 502      -0.070  15.301 -19.114  0.00  0.00     0.231 HD
ATOM     32  O62 IDS d 503       1.695  18.318 -24.457  0.00  0.00    -0.646 OA
ATOM     33  O2  IDS d 503       4.426  22.422 -20.989  0.00  0.00    -0.244 OA
ATOM     34  O5  IDS d 503       2.555  20.088 -21.562  0.00  0.00    -0.340 OA
ATOM     35  C5  IDS d 503       2.932  19.548 -22.836  0.00  0.00     0.152 C 
ATOM     36  C4  IDS d 503       3.873  20.549 -23.546  0.00  0.00     0.103 C 
ATOM     37  O61 IDS d 503       0.615  19.749 -23.416  0.00  0.00    -0.646 OA
ATOM     38  O1  IDS d 503       4.094  18.954 -20.202  0.00  0.00    -0.348 OA
ATOM     39  C6  IDS d 503       1.671  19.186 -23.615  0.00  0.00     0.206 C 
ATOM     40  O1S IDS d 503       6.299  23.627 -20.096  0.00  0.00    -0.572 OA
ATOM     41  O3S IDS d 503       4.637  22.761 -18.615  0.00  0.00    -0.572 OA
ATOM     42  C3  IDS d 503       5.115  20.814 -22.652  0.00  0.00     0.094 C 
ATOM     43  O2S IDS d 503       4.107  24.585 -20.050  0.00  0.00    -0.572 OA
ATOM     44  S   IDS d 503       4.902  23.404 -19.868  0.00  0.00     0.252 S 
ATOM     45  O3  IDS d 503       5.970  19.689 -22.742  0.00  0.00    -0.390 OA
ATOM     46  C1  IDS d 503       3.597  20.204 -20.599  0.00  0.00     0.161 C 
ATOM     47  C2  IDS d 503       4.768  21.059 -21.156  0.00  0.00     0.134 C 
ATOM     48  H   IDS d 503       3.487  18.639 -22.742  0.00  0.00     0.104 H 
ATOM     49  H   IDS d 503       4.119  20.093 -24.483  0.00  0.00     0.092 H 
ATOM     50  H   IDS d 503       5.580  21.708 -23.010  0.00  0.00     0.091 H 
ATOM     51  H   IDS d 503       5.508  18.904 -22.408  0.00  0.00     0.210 HD
ATOM     52  H   IDS d 503       3.169  20.683 -19.744  0.00  0.00     0.133 H 
ATOM     53  H   IDS d 503       5.640  20.771 -20.608  0.00  0.00     0.097 H 
ATOM     54  C4  IDS d 505      -3.547  26.038 -27.267  0.00  0.00    -0.005 C 
ATOM     55  C5  IDS d 505      -2.067  26.472 -27.006  0.00  0.00     0.127 C 
ATOM     56  O2  IDS d 505      -2.837  22.360 -26.779  0.00  0.00    -0.388 OA
ATOM     57  O62 IDS d 505      -1.103  27.927 -28.656  0.00  0.00    -0.646 OA
ATOM     58  C1  IDS d 505      -1.229  24.153 -26.957  0.00  0.00     0.159 C 
ATOM     59  O5  IDS d 505      -1.163  25.470 -27.528  0.00  0.00    -0.343 OA
ATOM     60  O1  IDS d 505      -0.439  24.051 -25.804  0.00  0.00    -0.348 OA
ATOM     61  O61 IDS d 505      -2.088  28.853 -27.084  0.00  0.00    -0.646 OA
ATOM     62  C6  IDS d 505      -1.729  27.830 -27.621  0.00  0.00     0.203 C 
ATOM     63  C3  IDS d 505      -3.688  24.504 -27.449  0.00  0.00     0.068 C 
ATOM     64  C2  IDS d 505      -2.676  23.751 -26.571  0.00  0.00     0.107 C 
ATOM     65  H   IDS d 505      -4.147  26.342 -26.435  0.00  0.00     0.041 H 
ATOM     66  H   IDS d 505      -3.871  26.506 -28.173  0.00  0.00     0.041 H 
ATOM     67  H   IDS d 505      -1.954  26.565 -25.946  0.00  0.00     0.100 H 
ATOM     68  H   IDS d 505      -2.202  21.876 -26.229  0.00  0.00     0.210 HD
ATOM     69  H   IDS d 505      -0.865  23.494 -27.717  0.00  0.00     0.133 H 
ATOM     70  H   IDS d 505      -3.494  24.251 -28.471  0.00  0.00     0.087 H 
ATOM     71  H   IDS d 505      -2.848  23.998 -25.543  0.00  0.00     0.094 H 
ATOM     72  O4S SGN d 504       1.389  21.735 -30.625  0.00  0.00    -0.572 OA
ATOM     73  C2  SGN d 504       3.182  23.918 -25.079  0.00  0.00     0.081 C 
ATOM     74  O2S SGN d 504       5.633  26.412 -23.924  0.00  0.00    -0.296 OA
ATOM     75  C5  SGN d 504       1.198  21.957 -25.910  0.00  0.00     0.091 C 
ATOM     76  O3S SGN d 504       6.439  24.172 -23.778  0.00  0.00    -0.296 OA
ATOM     77  N   SGN d 504       4.039  24.544 -24.055  0.00  0.00    -0.210 NA
ATOM     78  O1S SGN d 504       5.711  25.025 -25.870  0.00  0.00    -0.296 OA
ATOM     79  S1  SGN d 504       5.547  25.078 -24.447  0.00  0.00     0.156 S 
ATOM     80  C4  SGN d 504       0.871  23.489 -25.942  0.00  0.00     0.095 C 
ATOM     81  O1  SGN d 504       3.278  21.825 -23.805  0.00  0.00    -0.348 OA
ATOM     82  O6S SGN d 504      -0.549  20.569 -29.847  0.00  0.00    -0.572 OA
ATOM     83  O6  SGN d 504       0.937  21.587 -28.265  0.00  0.00    -0.254 OA
ATOM     84  O5S SGN d 504       1.623  19.655 -29.470  0.00  0.00    -0.572 OA
ATOM     85  O3  SGN d 504       1.422  25.557 -24.811  0.00  0.00    -0.391 OA
ATOM     86  O5  SGN d 504       2.628  21.730 -26.040  0.00  0.00    -0.349 OA
ATOM     87  C6  SGN d 504       0.511  21.122 -27.001  0.00  0.00     0.067 C 
ATOM     88  S2  SGN d 504       0.842  20.849 -29.640  0.00  0.00     0.251 S 
ATOM     89  C3  SGN d 504       1.681  24.165 -24.808  0.00  0.00     0.083 C 
ATOM     90  C1  SGN d 504       3.463  22.390 -25.085  0.00  0.00     0.150 C 
ATOM     91  H   SGN d 504       3.412  24.355 -26.028  0.00  0.00     0.076 H 
ATOM     92  H   SGN d 504       5.516  26.391 -22.961  0.00  0.00     0.231 HD
ATOM     93  H   SGN d 504       0.820  21.636 -24.962  0.00  0.00     0.090 H 
ATOM     94  H   SGN d 504       6.303  24.233 -22.821  0.00  0.00     0.231 HD
ATOM     95  H   SGN d 504       4.156  23.856 -23.311  0.00  0.00     0.140 HD
ATOM     96  H   SGN d 504       6.598  25.340 -26.105  0.00  0.00     0.231 HD
ATOM     97  H   SGN d 504       1.094  23.670 -26.973  0.00  0.00     0.091 H 
ATOM     98  H   SGN d 504       1.929  25.982 -24.101  0.00  0.00     0.210 HD
ATOM     99  H   SGN d 504      -0.550  21.226 -26.919  0.00  0.00     0.080 H 
ATOM    100  H   SGN d 504       0.770  20.090 -26.886  0.00  0.00     0.080 H 
ATOM    101  H   SGN d 504       1.404  23.761 -23.857  0.00  0.00     0.089 H 
ATOM    102  H   SGN d 504       4.487  22.251 -25.362  0.00  0.00     0.131 H 
ATOM    103  C1  IDS d 501       6.488  13.444 -14.005  0.00  0.00     0.156 C 
ATOM    104  O3  IDS d 501       5.046  16.257 -14.200  0.00  0.00    -0.390 OA
ATOM    105  C2  IDS d 501       5.014  13.876 -13.774  0.00  0.00     0.110 C 
ATOM    106  C4  IDS d 501       5.021  14.874 -16.169  0.00  0.00     0.103 C 
ATOM    107  C6  IDS d 501       7.139  14.328 -17.571  0.00  0.00     0.206 C 
ATOM    108  C3  IDS d 501       4.541  15.034 -14.697  0.00  0.00     0.092 C 
ATOM    109  O5  IDS d 501       6.753  13.331 -15.402  0.00  0.00    -0.340 OA
ATOM    110  O2  IDS d 501       4.186  12.751 -14.005  0.00  0.00    -0.388 OA
ATOM    111  C5  IDS d 501       6.533  14.520 -16.181  0.00  0.00     0.152 C 
ATOM    112  O62 IDS d 501       7.753  15.222 -18.104  0.00  0.00    -0.646 OA
ATOM    113  O61 IDS d 501       7.020  13.285 -18.175  0.00  0.00    -0.646 OA
ATOM    114  O1  IDS d 501       7.337  14.369 -13.377  0.00  0.00    -0.368 OA
ATOM    115  H   IDS d 501       6.666  12.480 -13.574  0.00  0.00     0.133 H 
ATOM    116  H   IDS d 501       4.757  16.377 -13.282  0.00  0.00     0.210 HD
ATOM    117  H   IDS d 501       4.947  14.240 -12.770  0.00  0.00     0.094 H 
ATOM    118  H   IDS d 501       4.161  14.278 -16.391  0.00  0.00     0.092 H 
ATOM    119  H   IDS d 501       3.471  15.014 -14.697  0.00  0.00     0.091 H 
ATOM    120  H   IDS d 501       4.284  12.462 -14.926  0.00  0.00     0.210 HD
ATOM    121  H   IDS d 501       7.031  15.369 -15.759  0.00  0.00     0.104 H 
ATOM    122  H   IDS d 501       7.190  15.250 -13.755  0.00  0.00     0.212 HD
ATOM    123  O3  IDS d 535      -5.000  24.129 -27.083  0.00  0.00    -0.393 OA
ATOM    124  H   IDS d 535      -5.638  24.605 -27.637  0.00  0.00     0.210 HD
ENDROOT
TORSDOF 37
ENDMDL
MODEL 39
REMARK VINA RESULT:      -5.7      4.173     12.420
REMARK  0 active torsions:
REMARK  status: ('A' for Active; 'I' for Inactive)
REMARK       I    between atoms: O3_1  and  C3_48 
REMARK       I    between atoms: C1_2  and  O1_8 
REMARK       I    between atoms: O2_5  and  C2_76 
REMARK       I    between atoms: O2_5  and  S_66 
REMARK       I    between atoms: C2_7  and  N_46 
REMARK       I    between atoms: O1_8  and  C4_39 
REMARK       I    between atoms: C2_12  and  N_23 
REMARK       I    between atoms: O2S_13  and  S1_25 
REMARK       I    between atoms: C1_14  and  O1_65 
REMARK       I    between atoms: O3_15  and  C3_69 
REMARK       I    between atoms: C5_16  and  C6_31 
REMARK       I    between atoms: C5_17  and  C6_68 
REMARK       I    between atoms: C5_18  and  C6_71 
REMARK       I    between atoms: O3S_19  and  S1_25 
REMARK       I    between atoms: C6_20  and  C5_28 
REMARK       I    between atoms: C6_20  and  O6_74 
REMARK       I    between atoms: C4_21  and  O1_35 
REMARK       I    between atoms: S2_22  and  O6_74 
REMARK       I    between atoms: N_23  and  S1_25 
REMARK       I    between atoms: O1S_24  and  S1_25 
REMARK       I    between atoms: C4_27  and  O1_63 
REMARK       I    between atoms: O1_29  and  C4_49 
REMARK       I    between atoms: O1_29  and  C1_73 
REMARK       I    between atoms: O2_30  and  C2_78 
REMARK       I    between atoms: O3_33  and  C3_42 
REMARK       I    between atoms: O1_35  and  C1_77 
REMARK       I    between atoms: O3S_37  and  S1_50 
REMARK       I    between atoms: C2_38  and  O2_45 
REMARK       I    between atoms: C6_40  and  C5_51 
REMARK       I    between atoms: C3_41  and  O3_67 
REMARK       I    between atoms: N_46  and  S1_50 
REMARK       I    between atoms: O6_47  and  C6_71 
REMARK       I    between atoms: O6_47  and  S2_72 
REMARK       I    between atoms: S1_50  and  O1S_61 
REMARK       I    between atoms: S1_50  and  O2S_54 
REMARK       I    between atoms: O3_56  and  C3_75 
REMARK       I    between atoms: C1_58  and  O1_63 
ROOT
ATOM      1  O3  SGN d 502      11.791  19.343 -20.125  0.00  0.00    -0.391 OA
ATOM      2  C1  SGN d 502      13.830  17.359 -22.599  0.00  0.00     0.150 C 
ATOM      3  O6S SGN d 502       9.255  12.875 -23.017  0.00  0.00    -0.572 OA
ATOM      4  C2  SGN d 502      13.068  18.587 -22.029  0.00  0.00     0.081 C 
ATOM      5  O1  SGN d 502      14.975  17.067 -21.824  0.00  0.00    -0.348 OA
ATOM      6  O5  SGN d 502      12.965  16.215 -22.656  0.00  0.00    -0.349 OA
ATOM      7  C6  SGN d 502      11.479  14.578 -21.695  0.00  0.00     0.067 C 
ATOM      8  S2  SGN d 502       9.627  14.141 -23.579  0.00  0.00     0.251 S 
ATOM      9  C5  SGN d 502      12.318  15.839 -21.411  0.00  0.00     0.091 C 
ATOM     10  O3S SGN d 502      14.523  20.221 -24.288  0.00  0.00    -0.296 OA
ATOM     11  N   SGN d 502      13.999  19.722 -21.959  0.00  0.00    -0.210 NA
ATOM     12  C3  SGN d 502      12.495  18.231 -20.644  0.00  0.00     0.083 C 
ATOM     13  C4  SGN d 502      11.518  17.046 -20.824  0.00  0.00     0.095 C 
ATOM     14  S1  SGN d 502      13.967  20.867 -23.132  0.00  0.00     0.156 S 
ATOM     15  O2S SGN d 502      14.793  21.938 -22.655  0.00  0.00    -0.296 OA
ATOM     16  O4S SGN d 502       8.500  14.912 -24.006  0.00  0.00    -0.572 OA
ATOM     17  O1S SGN d 502      12.608  21.263 -23.350  0.00  0.00    -0.296 OA
ATOM     18  O5S SGN d 502      10.633  14.014 -24.595  0.00  0.00    -0.572 OA
ATOM     19  O6  SGN d 502      10.324  14.941 -22.429  0.00  0.00    -0.254 OA
ATOM     20  H   SGN d 502      12.402  20.088 -20.011  0.00  0.00     0.210 HD
ATOM     21  H   SGN d 502      14.150  17.600 -23.590  0.00  0.00     0.131 H 
ATOM     22  H   SGN d 502      12.249  18.858 -22.662  0.00  0.00     0.076 H 
ATOM     23  H   SGN d 502      11.187  14.127 -20.770  0.00  0.00     0.080 H 
ATOM     24  H   SGN d 502      12.060  13.881 -22.261  0.00  0.00     0.080 H 
ATOM     25  H   SGN d 502      13.023  15.593 -20.645  0.00  0.00     0.090 H 
ATOM     26  H   SGN d 502      13.933  19.506 -24.574  0.00  0.00     0.231 HD
ATOM     27  H   SGN d 502      14.942  19.333 -21.950  0.00  0.00     0.140 HD
ATOM     28  H   SGN d 502      13.284  17.970 -19.970  0.00  0.00     0.089 H 
ATOM     29  H   SGN d 502      10.705  17.190 -21.504  0.00  0.00     0.091 H 
ATOM     30  H   SGN d 502      15.698  21.615 -22.525  0.00  0.00     0.231 HD
ATOM     31  H   SGN d 502      12.097  20.503 -23.670  0.00  0.00     0.231 HD
ATOM     32  O62 IDS d 503       8.933  21.107 -18.157  0.00  0.00    -0.646 OA
ATOM     33  O2  IDS d 503       8.198  15.125 -18.166  0.00  0.00    -0.244 OA
ATOM     34  O5  IDS d 503       8.893  17.828 -19.384  0.00  0.00    -0.340 OA
ATOM     35  C5  IDS d 503       9.115  18.737 -18.296  0.00  0.00     0.152 C 
ATOM     36  C4  IDS d 503       8.587  18.096 -16.992  0.00  0.00     0.103 C 
ATOM     37  O61 IDS d 503       7.566  20.185 -19.413  0.00  0.00    -0.646 OA
ATOM     38  O1  IDS d 503      11.024  16.854 -19.499  0.00  0.00    -0.348 OA
ATOM     39  C6  IDS d 503       8.499  20.088 -18.644  0.00  0.00     0.206 C 
ATOM     40  O1S IDS d 503       8.500  12.887 -17.354  0.00  0.00    -0.572 OA
ATOM     41  O3S IDS d 503       8.790  13.349 -19.679  0.00  0.00    -0.572 OA
ATOM     42  C3  IDS d 503       9.306  16.740 -16.754  0.00  0.00     0.094 C 
ATOM     43  O2S IDS d 503       6.614  13.438 -18.719  0.00  0.00    -0.572 OA
ATOM     44  S   IDS d 503       8.022  13.606 -18.497  0.00  0.00     0.252 S 
ATOM     45  O3  IDS d 503      10.615  17.011 -16.287  0.00  0.00    -0.390 OA
ATOM     46  C1  IDS d 503       9.649  16.623 -19.354  0.00  0.00     0.161 C 
ATOM     47  C2  IDS d 503       9.403  15.853 -18.028  0.00  0.00     0.134 C 
ATOM     48  H   IDS d 503      10.155  18.925 -18.131  0.00  0.00     0.104 H 
ATOM     49  H   IDS d 503       8.780  18.814 -16.222  0.00  0.00     0.092 H 
ATOM     50  H   IDS d 503       8.725  16.192 -16.042  0.00  0.00     0.091 H 
ATOM     51  H   IDS d 503      11.103  17.508 -16.963  0.00  0.00     0.210 HD
ATOM     52  H   IDS d 503       9.317  16.035 -20.184  0.00  0.00     0.133 H 
ATOM     53  H   IDS d 503      10.260  15.228 -17.878  0.00  0.00     0.097 H 
ATOM     54  C4  IDS d 505      -0.806  21.032 -18.470  0.00  0.00    -0.005 C 
ATOM     55  C5  IDS d 505      -0.298  19.843 -17.589  0.00  0.00     0.127 C 
ATOM     56  O2  IDS d 505       2.635  22.525 -18.916  0.00  0.00    -0.388 OA
ATOM     57  O62 IDS d 505      -1.472  19.503 -15.521  0.00  0.00    -0.646 OA
ATOM     58  C1  IDS d 505       1.993  20.741 -17.421  0.00  0.00     0.159 C 
ATOM     59  O5  IDS d 505       0.803  20.284 -16.758  0.00  0.00    -0.343 OA
ATOM     60  O1  IDS d 505       2.850  19.677 -17.732  0.00  0.00    -0.348 OA
ATOM     61  O61 IDS d 505      -2.222  18.500 -17.174  0.00  0.00    -0.646 OA
ATOM     62  C6  IDS d 505      -1.393  19.247 -16.705  0.00  0.00     0.203 C 
ATOM     63  C3  IDS d 505       0.280  22.121 -18.674  0.00  0.00     0.068 C 
ATOM     64  C2  IDS d 505       1.681  21.494 -18.740  0.00  0.00     0.107 C 
ATOM     65  H   IDS d 505      -1.097  20.651 -19.427  0.00  0.00     0.041 H 
ATOM     66  H   IDS d 505      -1.632  21.485 -17.963  0.00  0.00     0.041 H 
ATOM     67  H   IDS d 505       0.023  19.075 -18.261  0.00  0.00     0.100 H 
ATOM     68  H   IDS d 505       3.523  22.139 -18.959  0.00  0.00     0.210 HD
ATOM     69  H   IDS d 505       2.465  21.409 -16.730  0.00  0.00     0.133 H 
ATOM     70  H   IDS d 505       0.258  22.799 -17.846  0.00  0.00     0.087 H 
ATOM     71  H   IDS d 505       1.720  20.803 -19.557  0.00  0.00     0.094 H 
ATOM     72  O4S SGN d 504       4.114  23.065 -13.388  0.00  0.00    -0.572 OA
ATOM     73  C2  SGN d 504       5.070  17.419 -15.827  0.00  0.00     0.081 C 
ATOM     74  O2S SGN d 504       4.733  13.960 -14.611  0.00  0.00    -0.296 OA
ATOM     75  C5  SGN d 504       5.330  20.121 -16.877  0.00  0.00     0.091 C 
ATOM     76  O3S SGN d 504       6.975  14.768 -14.522  0.00  0.00    -0.296 OA
ATOM     77  N   SGN d 504       5.344  15.972 -15.887  0.00  0.00    -0.210 NA
ATOM     78  O1S SGN d 504       5.258  15.938 -13.375  0.00  0.00    -0.296 OA
ATOM     79  S1  SGN d 504       5.581  15.113 -14.502  0.00  0.00     0.156 S 
ATOM     80  C4  SGN d 504       3.934  19.410 -16.836  0.00  0.00     0.095 C 
ATOM     81  O1  SGN d 504       7.183  17.814 -17.008  0.00  0.00    -0.348 OA
ATOM     82  O6S SGN d 504       4.275  24.282 -15.441  0.00  0.00    -0.572 OA
ATOM     83  O6  SGN d 504       4.742  21.931 -15.416  0.00  0.00    -0.254 OA
ATOM     84  O5S SGN d 504       6.251  23.454 -14.387  0.00  0.00    -0.572 OA
ATOM     85  O3  SGN d 504       2.939  17.207 -16.954  0.00  0.00    -0.391 OA
ATOM     86  O5  SGN d 504       6.213  19.590 -15.852  0.00  0.00    -0.349 OA
ATOM     87  C6  SGN d 504       5.289  21.645 -16.687  0.00  0.00     0.067 C 
ATOM     88  S2  SGN d 504       4.843  23.263 -14.606  0.00  0.00     0.251 S 
ATOM     89  C3  SGN d 504       4.179  17.889 -16.999  0.00  0.00     0.083 C 
ATOM     90  C1  SGN d 504       6.427  18.176 -15.873  0.00  0.00     0.150 C 
ATOM     91  H   SGN d 504       4.543  17.628 -14.920  0.00  0.00     0.076 H 
ATOM     92  H   SGN d 504       4.994  13.439 -15.387  0.00  0.00     0.231 HD
ATOM     93  H   SGN d 504       5.687  19.922 -17.866  0.00  0.00     0.090 H 
ATOM     94  H   SGN d 504       7.159  14.211 -15.294  0.00  0.00     0.231 HD
ATOM     95  H   SGN d 504       6.185  15.856 -16.452  0.00  0.00     0.140 HD
ATOM     96  H   SGN d 504       5.397  15.435 -12.557  0.00  0.00     0.231 HD
ATOM     97  H   SGN d 504       3.580  19.824 -15.914  0.00  0.00     0.091 H 
ATOM     98  H   SGN d 504       3.090  16.254 -17.055  0.00  0.00     0.210 HD
ATOM     99  H   SGN d 504       4.680  22.087 -17.448  0.00  0.00     0.080 H 
ATOM    100  H   SGN d 504       6.279  22.046 -16.756  0.00  0.00     0.080 H 
ATOM    101  H   SGN d 504       4.655  17.683 -17.934  0.00  0.00     0.089 H 
ATOM    102  H   SGN d 504       6.982  17.895 -15.003  0.00  0.00     0.131 H 
ATOM    103  C1  IDS d 501      18.601  15.021 -23.206  0.00  0.00     0.156 C 
ATOM    104  O3  IDS d 501      15.557  14.237 -23.600  0.00  0.00    -0.390 OA
ATOM    105  C2  IDS d 501      17.563  15.393 -24.301  0.00  0.00     0.110 C 
ATOM    106  C4  IDS d 501      16.018  16.281 -22.416  0.00  0.00     0.103 C 
ATOM    107  C6  IDS d 501      17.110  16.364 -20.060  0.00  0.00     0.206 C 
ATOM    108  C3  IDS d 501      16.107  15.528 -23.775  0.00  0.00     0.092 C 
ATOM    109  O5  IDS d 501      18.386  15.812 -22.039  0.00  0.00    -0.340 OA
ATOM    110  O2  IDS d 501      17.952  16.630 -24.870  0.00  0.00    -0.388 OA
ATOM    111  C5  IDS d 501      17.082  15.708 -21.440  0.00  0.00     0.152 C 
ATOM    112  O62 IDS d 501      16.552  15.846 -19.121  0.00  0.00    -0.646 OA
ATOM    113  O61 IDS d 501      17.685  17.413 -19.869  0.00  0.00    -0.646 OA
ATOM    114  O1  IDS d 501      18.508  13.647 -22.940  0.00  0.00    -0.368 OA
ATOM    115  H   IDS d 501      19.594  15.229 -23.547  0.00  0.00     0.133 H 
ATOM    116  H   IDS d 501      15.602  13.750 -24.438  0.00  0.00     0.210 HD
ATOM    117  H   IDS d 501      17.557  14.593 -25.013  0.00  0.00     0.094 H 
ATOM    118  H   IDS d 501      15.973  17.217 -22.931  0.00  0.00     0.092 H 
ATOM    119  H   IDS d 501      15.566  16.097 -24.502  0.00  0.00     0.091 H 
ATOM    120  H   IDS d 501      17.941  17.318 -24.187  0.00  0.00     0.210 HD
ATOM    121  H   IDS d 501      16.801  14.688 -21.275  0.00  0.00     0.104 H 
ATOM    122  H   IDS d 501      17.613  13.438 -22.628  0.00  0.00     0.212 HD
ATOM    123  O3  IDS d 535       0.010  22.799 -19.883  0.00  0.00    -0.393 OA
ATOM    124  H   IDS d 535      -0.875  23.195 -19.841  0.00  0.00     0.210 HD
ENDROOT
TORSDOF 37
ENDMDL
MODEL 40
REMARK VINA RESULT:      -5.7      4.065     12.315
REMARK  0 active torsions:
REMARK  status: ('A' for Active; 'I' for Inactive)
REMARK       I    between atoms: O3_1  and  C3_48 
REMARK       I    between atoms: C1_2  and  O1_8 
REMARK       I    between atoms: O2_5  and  C2_76 
REMARK       I    between atoms: O2_5  and  S_66 
REMARK       I    between atoms: C2_7  and  N_46 
REMARK       I    between atoms: O1_8  and  C4_39 
REMARK       I    between atoms: C2_12  and  N_23 
REMARK       I    between atoms: O2S_13  and  S1_25 
REMARK       I    between atoms: C1_14  and  O1_65 
REMARK       I    between atoms: O3_15  and  C3_69 
REMARK       I    between atoms: C5_16  and  C6_31 
REMARK       I    between atoms: C5_17  and  C6_68 
REMARK       I    between atoms: C5_18  and  C6_71 
REMARK       I    between atoms: O3S_19  and  S1_25 
REMARK       I    between atoms: C6_20  and  C5_28 
REMARK       I    between atoms: C6_20  and  O6_74 
REMARK       I    between atoms: C4_21  and  O1_35 
REMARK       I    between atoms: S2_22  and  O6_74 
REMARK       I    between atoms: N_23  and  S1_25 
REMARK       I    between atoms: O1S_24  and  S1_25 
REMARK       I    between atoms: C4_27  and  O1_63 
REMARK       I    between atoms: O1_29  and  C4_49 
REMARK       I    between atoms: O1_29  and  C1_73 
REMARK       I    between atoms: O2_30  and  C2_78 
REMARK       I    between atoms: O3_33  and  C3_42 
REMARK       I    between atoms: O1_35  and  C1_77 
REMARK       I    between atoms: O3S_37  and  S1_50 
REMARK       I    between atoms: C2_38  and  O2_45 
REMARK       I    between atoms: C6_40  and  C5_51 
REMARK       I    between atoms: C3_41  and  O3_67 
REMARK       I    between atoms: N_46  and  S1_50 
REMARK       I    between atoms: O6_47  and  C6_71 
REMARK       I    between atoms: O6_47  and  S2_72 
REMARK       I    between atoms: S1_50  and  O1S_61 
REMARK       I    between atoms: S1_50  and  O2S_54 
REMARK       I    between atoms: O3_56  and  C3_75 
REMARK       I    between atoms: C1_58  and  O1_63 
ROOT
ATOM      1  O3  SGN d 502       8.550  17.716 -23.534  0.00  0.00    -0.391 OA
ATOM      2  C1  SGN d 502      11.211  15.056 -23.279  0.00  0.00     0.150 C 
ATOM      3  O6S SGN d 502       8.907  13.064 -17.629  0.00  0.00    -0.572 OA
ATOM      4  C2  SGN d 502      10.012  15.828 -23.896  0.00  0.00     0.081 C 
ATOM      5  O1  SGN d 502      12.379  15.851 -23.276  0.00  0.00    -0.348 OA
ATOM      6  O5  SGN d 502      10.898  14.628 -21.946  0.00  0.00    -0.349 OA
ATOM      7  C6  SGN d 502      10.233  14.993 -19.658  0.00  0.00     0.067 C 
ATOM      8  S2  SGN d 502       8.716  12.875 -19.037  0.00  0.00     0.251 S 
ATOM      9  C5  SGN d 502      10.475  15.666 -21.023  0.00  0.00     0.091 C 
ATOM     10  O3S SGN d 502      10.640  14.210 -26.517  0.00  0.00    -0.296 OA
ATOM     11  N   SGN d 502      10.388  16.275 -25.245  0.00  0.00    -0.210 NA
ATOM     12  C3  SGN d 502       9.648  17.015 -22.982  0.00  0.00     0.083 C 
ATOM     13  C4  SGN d 502       9.250  16.446 -21.601  0.00  0.00     0.095 C 
ATOM     14  S1  SGN d 502       9.875  15.424 -26.549  0.00  0.00     0.156 S 
ATOM     15  O2S SGN d 502      10.185  16.236 -27.691  0.00  0.00    -0.296 OA
ATOM     16  O4S SGN d 502       7.368  12.535 -19.375  0.00  0.00    -0.572 OA
ATOM     17  O1S SGN d 502       8.473  15.170 -26.409  0.00  0.00    -0.296 OA
ATOM     18  O5S SGN d 502       9.677  11.971 -19.603  0.00  0.00    -0.572 OA
ATOM     19  O6  SGN d 502       9.026  14.254 -19.709  0.00  0.00    -0.254 OA
ATOM     20  H   SGN d 502       8.798  18.074 -24.401  0.00  0.00     0.210 HD
ATOM     21  H   SGN d 502      11.395  14.195 -23.886  0.00  0.00     0.131 H 
ATOM     22  H   SGN d 502       9.150  15.200 -23.974  0.00  0.00     0.076 H 
ATOM     23  H   SGN d 502      10.161  15.741 -18.898  0.00  0.00     0.080 H 
ATOM     24  H   SGN d 502      11.047  14.336 -19.434  0.00  0.00     0.080 H 
ATOM     25  H   SGN d 502      11.223  16.417 -20.885  0.00  0.00     0.090 H 
ATOM     26  H   SGN d 502      10.399  13.696 -25.732  0.00  0.00     0.231 HD
ATOM     27  H   SGN d 502      11.407  16.286 -25.281  0.00  0.00     0.140 HD
ATOM     28  H   SGN d 502      10.479  17.683 -22.890  0.00  0.00     0.089 H 
ATOM     29  H   SGN d 502       8.446  15.740 -21.583  0.00  0.00     0.091 H 
ATOM     30  H   SGN d 502      11.144  16.376 -27.737  0.00  0.00     0.231 HD
ATOM     31  H   SGN d 502       8.321  14.619 -25.625  0.00  0.00     0.231 HD
ATOM     32  O62 IDS d 503       5.232  19.746 -23.402  0.00  0.00    -0.646 OA
ATOM     33  O2  IDS d 503       7.046  18.182 -17.871  0.00  0.00    -0.244 OA
ATOM     34  O5  IDS d 503       6.548  17.750 -20.844  0.00  0.00    -0.340 OA
ATOM     35  C5  IDS d 503       6.380  19.046 -21.437  0.00  0.00     0.152 C 
ATOM     36  C4  IDS d 503       6.175  20.088 -20.313  0.00  0.00     0.103 C 
ATOM     37  O61 IDS d 503       4.362  18.165 -22.382  0.00  0.00    -0.646 OA
ATOM     38  O1  IDS d 503       8.890  17.622 -20.878  0.00  0.00    -0.348 OA
ATOM     39  C6  IDS d 503       5.256  18.979 -22.466  0.00  0.00     0.206 C 
ATOM     40  O1S IDS d 503       8.256  18.442 -15.815  0.00  0.00    -0.572 OA
ATOM     41  O3S IDS d 503       8.312  16.348 -16.961  0.00  0.00    -0.572 OA
ATOM     42  C3  IDS d 503       7.394  20.057 -19.351  0.00  0.00     0.094 C 
ATOM     43  O2S IDS d 503       6.302  17.065 -15.906  0.00  0.00    -0.572 OA
ATOM     44  S   IDS d 503       7.514  17.469 -16.559  0.00  0.00     0.252 S 
ATOM     45  O3  IDS d 503       8.475  20.712 -19.989  0.00  0.00    -0.390 OA
ATOM     46  C1  IDS d 503       7.736  17.560 -20.084  0.00  0.00     0.161 C 
ATOM     47  C2  IDS d 503       7.842  18.622 -18.955  0.00  0.00     0.134 C 
ATOM     48  H   IDS d 503       7.249  19.361 -21.974  0.00  0.00     0.104 H 
ATOM     49  H   IDS d 503       6.058  21.027 -20.813  0.00  0.00     0.092 H 
ATOM     50  H   IDS d 503       7.098  20.547 -18.447  0.00  0.00     0.091 H 
ATOM     51  H   IDS d 503       8.708  20.235 -20.801  0.00  0.00     0.210 HD
ATOM     52  H   IDS d 503       7.672  16.580 -19.660  0.00  0.00     0.133 H 
ATOM     53  H   IDS d 503       8.881  18.702 -18.712  0.00  0.00     0.097 H 
ATOM     54  C4  IDS d 505      -3.599  18.402 -19.508  0.00  0.00    -0.005 C 
ATOM     55  C5  IDS d 505      -2.637  19.010 -18.435  0.00  0.00     0.127 C 
ATOM     56  O2  IDS d 505      -1.092  18.703 -22.317  0.00  0.00    -0.388 OA
ATOM     57  O62 IDS d 505      -3.549  20.794 -17.110  0.00  0.00    -0.646 OA
ATOM     58  C1  IDS d 505      -0.924  19.635 -20.096  0.00  0.00     0.159 C 
ATOM     59  O5  IDS d 505      -1.813  20.035 -19.040  0.00  0.00    -0.343 OA
ATOM     60  O1  IDS d 505       0.295  19.162 -19.592  0.00  0.00    -0.348 OA
ATOM     61  O61 IDS d 505      -3.827  18.875 -16.375  0.00  0.00    -0.646 OA
ATOM     62  C6  IDS d 505      -3.380  19.598 -17.236  0.00  0.00     0.203 C 
ATOM     63  C3  IDS d 505      -3.065  18.588 -20.952  0.00  0.00     0.068 C 
ATOM     64  C2  IDS d 505      -1.530  18.517 -20.984  0.00  0.00     0.107 C 
ATOM     65  H   IDS d 505      -3.713  17.355 -19.315  0.00  0.00     0.041 H 
ATOM     66  H   IDS d 505      -4.536  18.915 -19.437  0.00  0.00     0.041 H 
ATOM     67  H   IDS d 505      -2.031  18.207 -18.072  0.00  0.00     0.100 H 
ATOM     68  H   IDS d 505      -0.124  18.659 -22.348  0.00  0.00     0.210 HD
ATOM     69  H   IDS d 505      -0.767  20.515 -20.685  0.00  0.00     0.133 H 
ATOM     70  H   IDS d 505      -3.361  19.551 -21.315  0.00  0.00     0.087 H 
ATOM     71  H   IDS d 505      -1.214  17.564 -20.615  0.00  0.00     0.094 H 
ATOM     72  O4S SGN d 504       0.069  24.317 -21.900  0.00  0.00    -0.572 OA
ATOM     73  C2  SGN d 504       3.265  20.672 -17.996  0.00  0.00     0.081 C 
ATOM     74  O2S SGN d 504       4.404  20.953 -14.505  0.00  0.00    -0.296 OA
ATOM     75  C5  SGN d 504       2.372  20.356 -20.747  0.00  0.00     0.091 C 
ATOM     76  O3S SGN d 504       6.109  21.475 -16.089  0.00  0.00    -0.296 OA
ATOM     77  N   SGN d 504       4.114  20.286 -16.854  0.00  0.00    -0.210 NA
ATOM     78  O1S SGN d 504       4.069  22.688 -16.115  0.00  0.00    -0.296 OA
ATOM     79  S1  SGN d 504       4.697  21.432 -15.825  0.00  0.00     0.156 S 
ATOM     80  C4  SGN d 504       1.398  20.074 -19.553  0.00  0.00     0.095 C 
ATOM     81  O1  SGN d 504       5.015  19.855 -19.507  0.00  0.00    -0.348 OA
ATOM     82  O6S SGN d 504      -0.304  22.657 -23.581  0.00  0.00    -0.572 OA
ATOM     83  O6  SGN d 504       1.097  22.149 -21.703  0.00  0.00    -0.254 OA
ATOM     84  O5S SGN d 504       1.844  23.675 -23.367  0.00  0.00    -0.572 OA
ATOM     85  O3  SGN d 504       1.407  19.311 -17.256  0.00  0.00    -0.391 OA
ATOM     86  O5  SGN d 504       3.404  21.305 -20.362  0.00  0.00    -0.349 OA
ATOM     87  C6  SGN d 504       1.704  20.912 -22.014  0.00  0.00     0.067 C 
ATOM     88  S2  SGN d 504       0.641  23.269 -22.693  0.00  0.00     0.251 S 
ATOM     89  C3  SGN d 504       2.251  19.566 -18.363  0.00  0.00     0.083 C 
ATOM     90  C1  SGN d 504       4.185  20.958 -19.215  0.00  0.00     0.150 C 
ATOM     91  H   SGN d 504       2.706  21.542 -17.723  0.00  0.00     0.076 H 
ATOM     92  H   SGN d 504       4.852  20.104 -14.362  0.00  0.00     0.231 HD
ATOM     93  H   SGN d 504       2.773  19.392 -20.982  0.00  0.00     0.090 H 
ATOM     94  H   SGN d 504       6.501  20.613 -15.883  0.00  0.00     0.231 HD
ATOM     95  H   SGN d 504       4.924  19.802 -17.242  0.00  0.00     0.140 HD
ATOM     96  H   SGN d 504       4.409  23.367 -15.511  0.00  0.00     0.231 HD
ATOM     97  H   SGN d 504       0.911  21.026 -19.526  0.00  0.00     0.091 H 
ATOM     98  H   SGN d 504       1.939  18.993 -16.510  0.00  0.00     0.210 HD
ATOM     99  H   SGN d 504       0.961  20.224 -22.361  0.00  0.00     0.080 H 
ATOM    100  H   SGN d 504       2.437  21.049 -22.782  0.00  0.00     0.080 H 
ATOM    101  H   SGN d 504       2.763  18.665 -18.626  0.00  0.00     0.089 H 
ATOM    102  H   SGN d 504       4.813  21.786 -18.959  0.00  0.00     0.131 H 
ATOM    103  C1  IDS d 501      16.517  14.395 -23.312  0.00  0.00     0.156 C 
ATOM    104  O3  IDS d 501      14.070  13.502 -21.509  0.00  0.00    -0.390 OA
ATOM    105  C2  IDS d 501      15.411  13.323 -23.515  0.00  0.00     0.110 C 
ATOM    106  C4  IDS d 501      13.650  15.197 -23.165  0.00  0.00     0.103 C 
ATOM    107  C6  IDS d 501      14.626  17.601 -23.044  0.00  0.00     0.206 C 
ATOM    108  C3  IDS d 501      14.034  13.711 -22.907  0.00  0.00     0.092 C 
ATOM    109  O5  IDS d 501      16.002  15.693 -23.606  0.00  0.00    -0.340 OA
ATOM    110  O2  IDS d 501      15.247  13.122 -24.907  0.00  0.00    -0.388 OA
ATOM    111  C5  IDS d 501      14.863  16.107 -22.829  0.00  0.00     0.152 C 
ATOM    112  O62 IDS d 501      14.340  18.319 -22.115  0.00  0.00    -0.646 OA
ATOM    113  O61 IDS d 501      14.715  18.105 -24.142  0.00  0.00    -0.646 OA
ATOM    114  O1  IDS d 501      17.005  14.303 -22.000  0.00  0.00    -0.368 OA
ATOM    115  H   IDS d 501      17.332  14.223 -23.985  0.00  0.00     0.133 H 
ATOM    116  H   IDS d 501      14.308  12.580 -21.326  0.00  0.00     0.210 HD
ATOM    117  H   IDS d 501      15.733  12.440 -23.004  0.00  0.00     0.094 H 
ATOM    118  H   IDS d 501      13.217  14.927 -24.106  0.00  0.00     0.092 H 
ATOM    119  H   IDS d 501      13.300  13.095 -23.383  0.00  0.00     0.091 H 
ATOM    120  H   IDS d 501      14.956  13.949 -25.321  0.00  0.00     0.210 HD
ATOM    121  H   IDS d 501      15.032  15.985 -21.779  0.00  0.00     0.104 H 
ATOM    122  H   IDS d 501      16.280  14.457 -21.374  0.00  0.00     0.212 HD
ATOM    123  O3  IDS d 535      -3.601  17.563 -21.763  0.00  0.00    -0.393 OA
ATOM    124  H   IDS d 535      -4.570  17.608 -21.742  0.00  0.00     0.210 HD
ENDROOT
TORSDOF 37
ENDMDL
MODEL 41
REMARK VINA RESULT:      -5.7      4.516     13.733
REMARK  0 active torsions:
REMARK  status: ('A' for Active; 'I' for Inactive)
REMARK       I    between atoms: O3_1  and  C3_48 
REMARK       I    between atoms: C1_2  and  O1_8 
REMARK       I    between atoms: O2_5  and  C2_76 
REMARK       I    between atoms: O2_5  and  S_66 
REMARK       I    between atoms: C2_7  and  N_46 
REMARK       I    between atoms: O1_8  and  C4_39 
REMARK       I    between atoms: C2_12  and  N_23 
REMARK       I    between atoms: O2S_13  and  S1_25 
REMARK       I    between atoms: C1_14  and  O1_65 
REMARK       I    between atoms: O3_15  and  C3_69 
REMARK       I    between atoms: C5_16  and  C6_31 
REMARK       I    between atoms: C5_17  and  C6_68 
REMARK       I    between atoms: C5_18  and  C6_71 
REMARK       I    between atoms: O3S_19  and  S1_25 
REMARK       I    between atoms: C6_20  and  C5_28 
REMARK       I    between atoms: C6_20  and  O6_74 
REMARK       I    between atoms: C4_21  and  O1_35 
REMARK       I    between atoms: S2_22  and  O6_74 
REMARK       I    between atoms: N_23  and  S1_25 
REMARK       I    between atoms: O1S_24  and  S1_25 
REMARK       I    between atoms: C4_27  and  O1_63 
REMARK       I    between atoms: O1_29  and  C4_49 
REMARK       I    between atoms: O1_29  and  C1_73 
REMARK       I    between atoms: O2_30  and  C2_78 
REMARK       I    between atoms: O3_33  and  C3_42 
REMARK       I    between atoms: O1_35  and  C1_77 
REMARK       I    between atoms: O3S_37  and  S1_50 
REMARK       I    between atoms: C2_38  and  O2_45 
REMARK       I    between atoms: C6_40  and  C5_51 
REMARK       I    between atoms: C3_41  and  O3_67 
REMARK       I    between atoms: N_46  and  S1_50 
REMARK       I    between atoms: O6_47  and  C6_71 
REMARK       I    between atoms: O6_47  and  S2_72 
REMARK       I    between atoms: S1_50  and  O1S_61 
REMARK       I    between atoms: S1_50  and  O2S_54 
REMARK       I    between atoms: O3_56  and  C3_75 
REMARK       I    between atoms: C1_58  and  O1_63 
ROOT
ATOM      1  O3  SGN d 502      10.682  16.472 -24.892  0.00  0.00    -0.391 OA
ATOM      2  C1  SGN d 502      13.652  14.794 -23.285  0.00  0.00     0.150 C 
ATOM      3  O6S SGN d 502      10.188  13.270 -18.100  0.00  0.00    -0.572 OA
ATOM      4  C2  SGN d 502      12.569  15.060 -24.366  0.00  0.00     0.081 C 
ATOM      5  O1  SGN d 502      14.549  15.882 -23.186  0.00  0.00    -0.348 OA
ATOM      6  O5  SGN d 502      13.038  14.540 -22.013  0.00  0.00    -0.349 OA
ATOM      7  C6  SGN d 502      11.618  15.102 -20.147  0.00  0.00     0.067 C 
ATOM      8  S2  SGN d 502      10.500  12.782 -19.412  0.00  0.00     0.251 S 
ATOM      9  C5  SGN d 502      12.122  15.559 -21.530  0.00  0.00     0.091 C 
ATOM     10  O3S SGN d 502      14.342  13.250 -26.228  0.00  0.00    -0.296 OA
ATOM     11  N   SGN d 502      13.242  15.346 -25.641  0.00  0.00    -0.210 NA
ATOM     12  C3  SGN d 502      11.678  16.233 -23.915  0.00  0.00     0.083 C 
ATOM     13  C4  SGN d 502      11.001  15.831 -22.584  0.00  0.00     0.095 C 
ATOM     14  S1  SGN d 502      13.374  14.162 -26.768  0.00  0.00     0.156 S 
ATOM     15  O2S SGN d 502      13.838  14.810 -27.961  0.00  0.00    -0.296 OA
ATOM     16  O4S SGN d 502       9.441  12.010 -19.986  0.00  0.00    -0.572 OA
ATOM     17  O1S SGN d 502      12.094  13.541 -26.932  0.00  0.00    -0.296 OA
ATOM     18  O5S SGN d 502      11.768  12.110 -19.459  0.00  0.00    -0.572 OA
ATOM     19  O6  SGN d 502      10.689  14.047 -20.314  0.00  0.00    -0.254 OA
ATOM     20  H   SGN d 502      11.105  16.725 -25.728  0.00  0.00     0.210 HD
ATOM     21  H   SGN d 502      14.207  13.929 -23.579  0.00  0.00     0.131 H 
ATOM     22  H   SGN d 502      11.941  14.204 -24.498  0.00  0.00     0.076 H 
ATOM     23  H   SGN d 502      11.143  15.921 -19.650  0.00  0.00     0.080 H 
ATOM     24  H   SGN d 502      12.445  14.762 -19.559  0.00  0.00     0.080 H 
ATOM     25  H   SGN d 502      12.599  16.508 -21.403  0.00  0.00     0.090 H 
ATOM     26  H   SGN d 502      13.986  12.838 -25.426  0.00  0.00     0.231 HD
ATOM     27  H   SGN d 502      14.190  15.647 -25.416  0.00  0.00     0.140 HD
ATOM     28  H   SGN d 502      12.263  17.119 -23.788  0.00  0.00     0.089 H 
ATOM     29  H   SGN d 502      10.413  14.938 -22.592  0.00  0.00     0.091 H 
ATOM     30  H   SGN d 502      14.705  15.212 -27.793  0.00  0.00     0.231 HD
ATOM     31  H   SGN d 502      11.830  13.120 -26.099  0.00  0.00     0.231 HD
ATOM     32  O62 IDS d 503       7.127  17.438 -26.146  0.00  0.00    -0.646 OA
ATOM     33  O2  IDS d 503       7.399  17.493 -20.125  0.00  0.00    -0.244 OA
ATOM     34  O5  IDS d 503       7.978  16.406 -22.910  0.00  0.00    -0.340 OA
ATOM     35  C5  IDS d 503       7.720  17.468 -23.840  0.00  0.00     0.152 C 
ATOM     36  C4  IDS d 503       6.941  18.590 -23.115  0.00  0.00     0.103 C 
ATOM     37  O61 IDS d 503       6.357  15.883 -25.012  0.00  0.00    -0.646 OA
ATOM     38  O1  IDS d 503      10.176  16.962 -22.307  0.00  0.00    -0.348 OA
ATOM     39  C6  IDS d 503       7.025  16.893 -25.071  0.00  0.00     0.206 C 
ATOM     40  O1S IDS d 503       7.804  18.459 -17.967  0.00  0.00    -0.572 OA
ATOM     41  O3S IDS d 503       8.689  16.301 -18.479  0.00  0.00    -0.572 OA
ATOM     42  C3  IDS d 503       7.766  19.090 -21.898  0.00  0.00     0.094 C 
ATOM     43  O2S IDS d 503       6.342  16.580 -18.198  0.00  0.00    -0.572 OA
ATOM     44  S   IDS d 503       7.575  17.195 -18.599  0.00  0.00     0.252 S 
ATOM     45  O3  IDS d 503       8.818  19.904 -22.383  0.00  0.00    -0.390 OA
ATOM     46  C1  IDS d 503       8.875  16.710 -21.848  0.00  0.00     0.161 C 
ATOM     47  C2  IDS d 503       8.376  17.942 -21.044  0.00  0.00     0.134 C 
ATOM     48  H   IDS d 503       8.620  17.921 -24.199  0.00  0.00     0.104 H 
ATOM     49  H   IDS d 503       6.780  19.348 -23.853  0.00  0.00     0.092 H 
ATOM     50  H   IDS d 503       7.097  19.626 -21.258  0.00  0.00     0.091 H 
ATOM     51  H   IDS d 503       9.396  19.378 -22.957  0.00  0.00     0.210 HD
ATOM     52  H   IDS d 503       8.902  15.848 -21.217  0.00  0.00     0.133 H 
ATOM     53  H   IDS d 503       9.239  18.364 -20.571  0.00  0.00     0.097 H 
ATOM     54  C4  IDS d 505      -1.942  14.305 -24.443  0.00  0.00    -0.005 C 
ATOM     55  C5  IDS d 505      -1.532  15.350 -23.353  0.00  0.00     0.127 C 
ATOM     56  O2  IDS d 505       1.190  14.812 -26.492  0.00  0.00    -0.388 OA
ATOM     57  O62 IDS d 505      -3.193  17.000 -22.815  0.00  0.00    -0.646 OA
ATOM     58  C1  IDS d 505       0.432  16.136 -24.621  0.00  0.00     0.159 C 
ATOM     59  O5  IDS d 505      -0.812  16.444 -23.969  0.00  0.00    -0.343 OA
ATOM     60  O1  IDS d 505       1.502  16.138 -23.716  0.00  0.00    -0.348 OA
ATOM     61  O61 IDS d 505      -3.250  15.248 -21.706  0.00  0.00    -0.646 OA
ATOM     62  C6  IDS d 505      -2.729  15.902 -22.579  0.00  0.00     0.203 C 
ATOM     63  C3  IDS d 505      -1.034  14.376 -25.698  0.00  0.00     0.068 C 
ATOM     64  C2  IDS d 505       0.406  14.750 -25.315  0.00  0.00     0.107 C 
ATOM     65  H   IDS d 505      -1.872  13.324 -24.022  0.00  0.00     0.041 H 
ATOM     66  H   IDS d 505      -2.943  14.528 -24.749  0.00  0.00     0.041 H 
ATOM     67  H   IDS d 505      -0.908  14.837 -22.651  0.00  0.00     0.100 H 
ATOM     68  H   IDS d 505       2.102  15.048 -26.261  0.00  0.00     0.210 HD
ATOM     69  H   IDS d 505       0.565  16.903 -25.356  0.00  0.00     0.133 H 
ATOM     70  H   IDS d 505      -1.409  15.129 -26.361  0.00  0.00     0.087 H 
ATOM     71  H   IDS d 505       0.795  14.013 -24.644  0.00  0.00     0.094 H 
ATOM     72  O4S SGN d 504       0.866  20.500 -27.254  0.00  0.00    -0.572 OA
ATOM     73  C2  SGN d 504       3.394  18.709 -21.856  0.00  0.00     0.081 C 
ATOM     74  O2S SGN d 504       3.275  19.933 -18.385  0.00  0.00    -0.296 OA
ATOM     75  C5  SGN d 504       3.513  17.657 -24.567  0.00  0.00     0.091 C 
ATOM     76  O3S SGN d 504       5.230  20.634 -19.556  0.00  0.00    -0.296 OA
ATOM     77  N   SGN d 504       3.902  18.799 -20.475  0.00  0.00    -0.210 NA
ATOM     78  O1S SGN d 504       3.086  21.176 -20.418  0.00  0.00    -0.296 OA
ATOM     79  S1  SGN d 504       3.855  20.231 -19.663  0.00  0.00     0.156 S 
ATOM     80  C4  SGN d 504       2.302  17.323 -23.631  0.00  0.00     0.095 C 
ATOM     81  O1  SGN d 504       5.669  18.179 -22.603  0.00  0.00    -0.348 OA
ATOM     82  O6S SGN d 504       1.427  18.529 -28.487  0.00  0.00    -0.572 OA
ATOM     83  O6  SGN d 504       2.238  18.798 -26.247  0.00  0.00    -0.254 OA
ATOM     84  O5S SGN d 504       3.110  20.150 -27.998  0.00  0.00    -0.572 OA
ATOM     85  O3  SGN d 504       1.753  17.022 -21.294  0.00  0.00    -0.391 OA
ATOM     86  O5  SGN d 504       4.129  18.918 -24.187  0.00  0.00    -0.349 OA
ATOM     87  C6  SGN d 504       3.174  17.756 -26.062  0.00  0.00     0.067 C 
ATOM     88  S2  SGN d 504       1.880  19.540 -27.575  0.00  0.00     0.251 S 
ATOM     89  C3  SGN d 504       2.824  17.309 -22.173  0.00  0.00     0.083 C 
ATOM     90  C1  SGN d 504       4.563  19.026 -22.829  0.00  0.00     0.150 C 
ATOM     91  H   SGN d 504       2.597  19.413 -21.970  0.00  0.00     0.076 H 
ATOM     92  H   SGN d 504       3.833  19.292 -17.917  0.00  0.00     0.231 HD
ATOM     93  H   SGN d 504       4.174  16.825 -24.433  0.00  0.00     0.090 H 
ATOM     94  H   SGN d 504       5.721  19.976 -19.041  0.00  0.00     0.231 HD
ATOM     95  H   SGN d 504       4.880  18.510 -20.503  0.00  0.00     0.140 HD
ATOM     96  H   SGN d 504       3.056  22.021 -19.943  0.00  0.00     0.231 HD
ATOM     97  H   SGN d 504       1.630  18.081 -23.977  0.00  0.00     0.091 H 
ATOM     98  H   SGN d 504       2.079  17.013 -20.380  0.00  0.00     0.210 HD
ATOM     99  H   SGN d 504       2.754  16.831 -26.398  0.00  0.00     0.080 H 
ATOM    100  H   SGN d 504       4.062  17.960 -26.623  0.00  0.00     0.080 H 
ATOM    101  H   SGN d 504       3.582  16.563 -22.054  0.00  0.00     0.089 H 
ATOM    102  H   SGN d 504       4.875  20.032 -22.642  0.00  0.00     0.131 H 
ATOM    103  C1  IDS d 501      18.700  15.712 -21.781  0.00  0.00     0.156 C 
ATOM    104  O3  IDS d 501      16.076  14.485 -20.500  0.00  0.00    -0.390 OA
ATOM    105  C2  IDS d 501      17.987  14.346 -21.977  0.00  0.00     0.110 C 
ATOM    106  C4  IDS d 501      15.832  15.657 -22.588  0.00  0.00     0.103 C 
ATOM    107  C6  IDS d 501      16.153  18.222 -22.844  0.00  0.00     0.206 C 
ATOM    108  C3  IDS d 501      16.438  14.419 -21.865  0.00  0.00     0.092 C 
ATOM    109  O5  IDS d 501      18.027  16.728 -22.521  0.00  0.00    -0.340 OA
ATOM    110  O2  IDS d 501      18.322  13.859 -23.263  0.00  0.00    -0.388 OA
ATOM    111  C5  IDS d 501      16.639  16.925 -22.198  0.00  0.00     0.152 C 
ATOM    112  O62 IDS d 501      15.433  18.980 -22.238  0.00  0.00    -0.646 OA
ATOM    113  O61 IDS d 501      16.469  18.523 -23.974  0.00  0.00    -0.646 OA
ATOM    114  O1  IDS d 501      18.755  16.004 -20.409  0.00  0.00    -0.368 OA
ATOM    115  H   IDS d 501      19.703  15.666 -22.153  0.00  0.00     0.133 H 
ATOM    116  H   IDS d 501      16.444  13.721 -20.030  0.00  0.00     0.210 HD
ATOM    117  H   IDS d 501      18.320  13.702 -21.190  0.00  0.00     0.094 H 
ATOM    118  H   IDS d 501      15.791  15.108 -23.505  0.00  0.00     0.092 H 
ATOM    119  H   IDS d 501      16.051  13.540 -22.338  0.00  0.00     0.091 H 
ATOM    120  H   IDS d 501      17.999  14.476 -23.938  0.00  0.00     0.210 HD
ATOM    121  H   IDS d 501      16.489  17.049 -21.145  0.00  0.00     0.104 H 
ATOM    122  H   IDS d 501      17.854  16.050 -20.052  0.00  0.00     0.212 HD
ATOM    123  O3  IDS d 535      -1.042  13.111 -26.326  0.00  0.00    -0.393 OA
ATOM    124  H   IDS d 535      -1.951  12.875 -26.568  0.00  0.00     0.210 HD
ENDROOT
TORSDOF 37
ENDMDL
MODEL 42
REMARK VINA RESULT:      -5.7      5.450      9.525
REMARK  0 active torsions:
REMARK  status: ('A' for Active; 'I' for Inactive)
REMARK       I    between atoms: O3_1  and  C3_48 
REMARK       I    between atoms: C1_2  and  O1_8 
REMARK       I    between atoms: O2_5  and  C2_76 
REMARK       I    between atoms: O2_5  and  S_66 
REMARK       I    between atoms: C2_7  and  N_46 
REMARK       I    between atoms: O1_8  and  C4_39 
REMARK       I    between atoms: C2_12  and  N_23 
REMARK       I    between atoms: O2S_13  and  S1_25 
REMARK       I    between atoms: C1_14  and  O1_65 
REMARK       I    between atoms: O3_15  and  C3_69 
REMARK       I    between atoms: C5_16  and  C6_31 
REMARK       I    between atoms: C5_17  and  C6_68 
REMARK       I    between atoms: C5_18  and  C6_71 
REMARK       I    between atoms: O3S_19  and  S1_25 
REMARK       I    between atoms: C6_20  and  C5_28 
REMARK       I    between atoms: C6_20  and  O6_74 
REMARK       I    between atoms: C4_21  and  O1_35 
REMARK       I    between atoms: S2_22  and  O6_74 
REMARK       I    between atoms: N_23  and  S1_25 
REMARK       I    between atoms: O1S_24  and  S1_25 
REMARK       I    between atoms: C4_27  and  O1_63 
REMARK       I    between atoms: O1_29  and  C4_49 
REMARK       I    between atoms: O1_29  and  C1_73 
REMARK       I    between atoms: O2_30  and  C2_78 
REMARK       I    between atoms: O3_33  and  C3_42 
REMARK       I    between atoms: O1_35  and  C1_77 
REMARK       I    between atoms: O3S_37  and  S1_50 
REMARK       I    between atoms: C2_38  and  O2_45 
REMARK       I    between atoms: C6_40  and  C5_51 
REMARK       I    between atoms: C3_41  and  O3_67 
REMARK       I    between atoms: N_46  and  S1_50 
REMARK       I    between atoms: O6_47  and  C6_71 
REMARK       I    between atoms: O6_47  and  S2_72 
REMARK       I    between atoms: S1_50  and  O1S_61 
REMARK       I    between atoms: S1_50  and  O2S_54 
REMARK       I    between atoms: O3_56  and  C3_75 
REMARK       I    between atoms: C1_58  and  O1_63 
ROOT
ATOM      1  O3  SGN d 502       5.095  17.743 -22.362  0.00  0.00    -0.391 OA
ATOM      2  C1  SGN d 502       1.708  16.985 -23.836  0.00  0.00     0.150 C 
ATOM      3  O6S SGN d 502       4.383  14.203 -28.964  0.00  0.00    -0.572 OA
ATOM      4  C2  SGN d 502       2.851  16.958 -22.784  0.00  0.00     0.081 C 
ATOM      5  O1  SGN d 502       1.187  18.290 -23.986  0.00  0.00    -0.348 OA
ATOM      6  O5  SGN d 502       2.177  16.490 -25.098  0.00  0.00    -0.349 OA
ATOM      7  C6  SGN d 502       3.645  16.489 -27.009  0.00  0.00     0.067 C 
ATOM      8  S2  SGN d 502       3.974  13.903 -27.623  0.00  0.00     0.251 S 
ATOM      9  C5  SGN d 502       3.347  17.149 -25.649  0.00  0.00     0.091 C 
ATOM     10  O3S SGN d 502       0.661  15.882 -20.800  0.00  0.00    -0.296 OA
ATOM     11  N   SGN d 502       2.336  17.502 -21.519  0.00  0.00    -0.210 NA
ATOM     12  C3  SGN d 502       4.046  17.773 -23.312  0.00  0.00     0.083 C 
ATOM     13  C4  SGN d 502       4.528  17.115 -24.626  0.00  0.00     0.095 C 
ATOM     14  S1  SGN d 502       1.878  16.476 -20.325  0.00  0.00     0.156 S 
ATOM     15  O2S SGN d 502       1.670  17.296 -19.166  0.00  0.00    -0.296 OA
ATOM     16  O4S SGN d 502       4.759  12.871 -27.019  0.00  0.00    -0.572 OA
ATOM     17  O1S SGN d 502       2.908  15.499 -20.140  0.00  0.00    -0.296 OA
ATOM     18  O5S SGN d 502       2.562  13.659 -27.523  0.00  0.00    -0.572 OA
ATOM     19  O6  SGN d 502       4.210  15.209 -26.793  0.00  0.00    -0.254 OA
ATOM     20  H   SGN d 502       4.795  18.156 -21.537  0.00  0.00     0.210 HD
ATOM     21  H   SGN d 502       0.922  16.350 -23.485  0.00  0.00     0.131 H 
ATOM     22  H   SGN d 502       3.188  15.958 -22.610  0.00  0.00     0.076 H 
ATOM     23  H   SGN d 502       4.335  17.095 -27.558  0.00  0.00     0.080 H 
ATOM     24  H   SGN d 502       2.738  16.392 -27.567  0.00  0.00     0.080 H 
ATOM     25  H   SGN d 502       3.182  18.191 -25.825  0.00  0.00     0.090 H 
ATOM     26  H   SGN d 502       0.850  15.339 -21.582  0.00  0.00     0.231 HD
ATOM     27  H   SGN d 502       1.520  18.070 -21.751  0.00  0.00     0.140 HD
ATOM     28  H   SGN d 502       3.759  18.789 -23.483  0.00  0.00     0.089 H 
ATOM     29  H   SGN d 502       4.812  16.085 -24.573  0.00  0.00     0.091 H 
ATOM     30  H   SGN d 502       0.965  17.937 -19.346  0.00  0.00     0.231 HD
ATOM     31  H   SGN d 502       3.006  14.976 -20.952  0.00  0.00     0.231 HD
ATOM     32  O62 IDS d 503       8.810  17.625 -21.207  0.00  0.00    -0.646 OA
ATOM     33  O2  IDS d 503       8.394  17.454 -27.218  0.00  0.00    -0.244 OA
ATOM     34  O5  IDS d 503       7.589  16.744 -24.368  0.00  0.00    -0.340 OA
ATOM     35  C5  IDS d 503       8.188  17.719 -23.504  0.00  0.00     0.152 C 
ATOM     36  C4  IDS d 503       9.254  18.507 -24.301  0.00  0.00     0.103 C 
ATOM     37  O61 IDS d 503       9.030  15.852 -22.259  0.00  0.00    -0.646 OA
ATOM     38  O1  IDS d 503       5.652  17.920 -24.977  0.00  0.00    -0.348 OA
ATOM     39  C6  IDS d 503       8.708  17.021 -22.251  0.00  0.00     0.206 C 
ATOM     40  O1S IDS d 503       8.244  18.388 -29.423  0.00  0.00    -0.572 OA
ATOM     41  O3S IDS d 503       6.752  16.638 -28.778  0.00  0.00    -0.572 OA
ATOM     42  C3  IDS d 503       8.587  19.175 -25.535  0.00  0.00     0.094 C 
ATOM     43  O2S IDS d 503       9.063  16.163 -29.101  0.00  0.00    -0.572 OA
ATOM     44  S   IDS d 503       8.090  17.148 -28.722  0.00  0.00     0.252 S 
ATOM     45  O3  IDS d 503       7.852  20.298 -25.085  0.00  0.00    -0.390 OA
ATOM     46  C1  IDS d 503       6.799  17.255 -25.435  0.00  0.00     0.161 C 
ATOM     47  C2  IDS d 503       7.629  18.230 -26.315  0.00  0.00     0.134 C 
ATOM     48  H   IDS d 503       7.482  18.446 -23.162  0.00  0.00     0.104 H 
ATOM     49  H   IDS d 503       9.661  19.215 -23.610  0.00  0.00     0.092 H 
ATOM     50  H   IDS d 503       9.370  19.445 -26.213  0.00  0.00     0.091 H 
ATOM     51  H   IDS d 503       7.156  20.006 -24.476  0.00  0.00     0.210 HD
ATOM     52  H   IDS d 503       6.490  16.412 -26.016  0.00  0.00     0.133 H 
ATOM     53  H   IDS d 503       6.925  18.873 -26.801  0.00  0.00     0.097 H 
ATOM     54  C4  IDS d 505      16.420  11.760 -22.835  0.00  0.00    -0.005 C 
ATOM     55  C5  IDS d 505      16.320  12.823 -23.978  0.00  0.00     0.127 C 
ATOM     56  O2  IDS d 505      13.657  13.314 -20.781  0.00  0.00    -0.388 OA
ATOM     57  O62 IDS d 505      18.392  13.849 -24.629  0.00  0.00    -0.646 OA
ATOM     58  C1  IDS d 505      14.731  14.242 -22.734  0.00  0.00     0.159 C 
ATOM     59  O5  IDS d 505      15.990  14.116 -23.417  0.00  0.00    -0.343 OA
ATOM     60  O1  IDS d 505      13.688  14.528 -23.624  0.00  0.00    -0.348 OA
ATOM     61  O61 IDS d 505      17.875  12.112 -25.637  0.00  0.00    -0.646 OA
ATOM     62  C6  IDS d 505      17.606  12.939 -24.796  0.00  0.00     0.203 C 
ATOM     63  C3  IDS d 505      15.615  12.172 -21.574  0.00  0.00     0.068 C 
ATOM     64  C2  IDS d 505      14.349  12.953 -21.961  0.00  0.00     0.107 C 
ATOM     65  H   IDS d 505      16.039  10.828 -23.197  0.00  0.00     0.041 H 
ATOM     66  H   IDS d 505      17.449  11.678 -22.553  0.00  0.00     0.041 H 
ATOM     67  H   IDS d 505      15.549  12.494 -24.641  0.00  0.00     0.100 H 
ATOM     68  H   IDS d 505      12.855  13.807 -21.015  0.00  0.00     0.210 HD
ATOM     69  H   IDS d 505      14.862  15.049 -22.042  0.00  0.00     0.133 H 
ATOM     70  H   IDS d 505      16.222  12.805 -20.961  0.00  0.00     0.087 H 
ATOM     71  H   IDS d 505      13.733  12.339 -22.585  0.00  0.00     0.094 H 
ATOM     72  O4S SGN d 504      15.738  18.654 -20.351  0.00  0.00    -0.572 OA
ATOM     73  C2  SGN d 504      12.627  17.460 -25.607  0.00  0.00     0.081 C 
ATOM     74  O2S SGN d 504      13.017  18.409 -29.144  0.00  0.00    -0.296 OA
ATOM     75  C5  SGN d 504      12.268  16.635 -22.839  0.00  0.00     0.091 C 
ATOM     76  O3S SGN d 504      11.407  19.738 -27.992  0.00  0.00    -0.296 OA
ATOM     77  N   SGN d 504      12.131  17.632 -26.985  0.00  0.00    -0.210 NA
ATOM     78  O1S SGN d 504      13.638  19.634 -27.187  0.00  0.00    -0.296 OA
ATOM     79  S1  SGN d 504      12.594  18.936 -27.878  0.00  0.00     0.156 S 
ATOM     80  C4  SGN d 504      13.290  15.896 -23.768  0.00  0.00     0.095 C 
ATOM     81  O1  SGN d 504      10.322  17.697 -24.804  0.00  0.00    -0.348 OA
ATOM     82  O6S SGN d 504      14.633  17.019 -19.000  0.00  0.00    -0.572 OA
ATOM     83  O6  SGN d 504      13.880  17.411 -21.242  0.00  0.00    -0.254 OA
ATOM     84  O5S SGN d 504      13.518  19.053 -19.561  0.00  0.00    -0.572 OA
ATOM     85  O3  SGN d 504      13.651  15.322 -26.091  0.00  0.00    -0.391 OA
ATOM     86  O5  SGN d 504      12.060  18.004 -23.283  0.00  0.00    -0.349 OA
ATOM     87  C6  SGN d 504      12.664  16.701 -21.356  0.00  0.00     0.067 C 
ATOM     88  S2  SGN d 504      14.488  18.072 -19.963  0.00  0.00     0.251 S 
ATOM     89  C3  SGN d 504      12.746  15.970 -25.216  0.00  0.00     0.083 C 
ATOM     90  C1  SGN d 504      11.641  18.172 -24.640  0.00  0.00     0.150 C 
ATOM     91  H   SGN d 504      13.605  17.887 -25.542  0.00  0.00     0.076 H 
ATOM     92  H   SGN d 504      12.275  17.948 -29.567  0.00  0.00     0.231 HD
ATOM     93  H   SGN d 504      11.380  16.043 -22.917  0.00  0.00     0.090 H 
ATOM     94  H   SGN d 504      10.723  19.238 -28.462  0.00  0.00     0.231 HD
ATOM     95  H   SGN d 504      11.113  17.661 -26.928  0.00  0.00     0.140 HD
ATOM     96  H   SGN d 504      13.913  20.403 -27.710  0.00  0.00     0.231 HD
ATOM     97  H   SGN d 504      14.173  16.426 -23.474  0.00  0.00     0.091 H 
ATOM     98  H   SGN d 504      13.312  15.367 -26.999  0.00  0.00     0.210 HD
ATOM     99  H   SGN d 504      12.788  15.710 -20.973  0.00  0.00     0.080 H 
ATOM    100  H   SGN d 504      11.899  17.198 -20.797  0.00  0.00     0.080 H 
ATOM    101  H   SGN d 504      11.793  15.490 -25.284  0.00  0.00     0.089 H 
ATOM    102  H   SGN d 504      11.649  19.214 -24.880  0.00  0.00     0.131 H 
ATOM    103  C1  IDS d 501      -2.854  19.341 -25.330  0.00  0.00     0.156 C 
ATOM    104  O3  IDS d 501      -0.773  17.299 -26.569  0.00  0.00    -0.390 OA
ATOM    105  C2  IDS d 501      -2.590  17.833 -25.064  0.00  0.00     0.110 C 
ATOM    106  C4  IDS d 501      -0.120  18.443 -24.555  0.00  0.00     0.103 C 
ATOM    107  C6  IDS d 501       0.372  20.991 -24.442  0.00  0.00     0.206 C 
ATOM    108  C3  IDS d 501      -1.099  17.417 -25.198  0.00  0.00     0.092 C 
ATOM    109  O5  IDS d 501      -1.879  20.135 -24.657  0.00  0.00    -0.340 OA
ATOM    110  O2  IDS d 501      -3.022  17.539 -23.748  0.00  0.00    -0.388 OA
ATOM    111  C5  IDS d 501      -0.508  19.877 -25.008  0.00  0.00     0.152 C 
ATOM    112  O62 IDS d 501       1.272  21.458 -25.100  0.00  0.00    -0.646 OA
ATOM    113  O61 IDS d 501       0.197  21.432 -23.328  0.00  0.00    -0.646 OA
ATOM    114  O1  IDS d 501      -2.856  19.564 -26.715  0.00  0.00    -0.368 OA
ATOM    115  H   IDS d 501      -3.811  19.626 -24.944  0.00  0.00     0.133 H 
ATOM    116  H   IDS d 501      -1.372  16.663 -26.990  0.00  0.00     0.210 HD
ATOM    117  H   IDS d 501      -3.128  17.284 -25.809  0.00  0.00     0.094 H 
ATOM    118  H   IDS d 501      -0.224  17.956 -23.608  0.00  0.00     0.092 H 
ATOM    119  H   IDS d 501      -0.987  16.488 -24.680  0.00  0.00     0.091 H 
ATOM    120  H   IDS d 501      -2.505  18.060 -23.114  0.00  0.00     0.210 HD
ATOM    121  H   IDS d 501      -0.358  19.894 -26.067  0.00  0.00     0.104 H 
ATOM    122  H   IDS d 501      -1.995  19.312 -27.085  0.00  0.00     0.212 HD
ATOM    123  O3  IDS d 535      15.250  11.000 -20.875  0.00  0.00    -0.393 OA
ATOM    124  H   IDS d 535      16.049  10.507 -20.631  0.00  0.00     0.210 HD
ENDROOT
TORSDOF 37
ENDMDL
MODEL 43
REMARK VINA RESULT:      -5.6      6.042      9.004
REMARK  0 active torsions:
REMARK  status: ('A' for Active; 'I' for Inactive)
REMARK       I    between atoms: O3_1  and  C3_48 
REMARK       I    between atoms: C1_2  and  O1_8 
REMARK       I    between atoms: O2_5  and  C2_76 
REMARK       I    between atoms: O2_5  and  S_66 
REMARK       I    between atoms: C2_7  and  N_46 
REMARK       I    between atoms: O1_8  and  C4_39 
REMARK       I    between atoms: C2_12  and  N_23 
REMARK       I    between atoms: O2S_13  and  S1_25 
REMARK       I    between atoms: C1_14  and  O1_65 
REMARK       I    between atoms: O3_15  and  C3_69 
REMARK       I    between atoms: C5_16  and  C6_31 
REMARK       I    between atoms: C5_17  and  C6_68 
REMARK       I    between atoms: C5_18  and  C6_71 
REMARK       I    between atoms: O3S_19  and  S1_25 
REMARK       I    between atoms: C6_20  and  C5_28 
REMARK       I    between atoms: C6_20  and  O6_74 
REMARK       I    between atoms: C4_21  and  O1_35 
REMARK       I    between atoms: S2_22  and  O6_74 
REMARK       I    between atoms: N_23  and  S1_25 
REMARK       I    between atoms: O1S_24  and  S1_25 
REMARK       I    between atoms: C4_27  and  O1_63 
REMARK       I    between atoms: O1_29  and  C4_49 
REMARK       I    between atoms: O1_29  and  C1_73 
REMARK       I    between atoms: O2_30  and  C2_78 
REMARK       I    between atoms: O3_33  and  C3_42 
REMARK       I    between atoms: O1_35  and  C1_77 
REMARK       I    between atoms: O3S_37  and  S1_50 
REMARK       I    between atoms: C2_38  and  O2_45 
REMARK       I    between atoms: C6_40  and  C5_51 
REMARK       I    between atoms: C3_41  and  O3_67 
REMARK       I    between atoms: N_46  and  S1_50 
REMARK       I    between atoms: O6_47  and  C6_71 
REMARK       I    between atoms: O6_47  and  S2_72 
REMARK       I    between atoms: S1_50  and  O1S_61 
REMARK       I    between atoms: S1_50  and  O2S_54 
REMARK       I    between atoms: O3_56  and  C3_75 
REMARK       I    between atoms: C1_58  and  O1_63 
ROOT
ATOM      1  O3  SGN d 502       7.490  21.949 -22.669  0.00  0.00    -0.391 OA
ATOM      2  C1  SGN d 502       6.626  24.949 -20.555  0.00  0.00     0.150 C 
ATOM      3  O6S SGN d 502       9.702  22.471 -15.495  0.00  0.00    -0.572 OA
ATOM      4  C2  SGN d 502       7.232  24.168 -21.752  0.00  0.00     0.081 C 
ATOM      5  O1  SGN d 502       5.214  24.885 -20.569  0.00  0.00    -0.348 OA
ATOM      6  O5  SGN d 502       7.133  24.437 -19.314  0.00  0.00    -0.349 OA
ATOM      7  C6  SGN d 502       7.536  22.695 -17.698  0.00  0.00     0.067 C 
ATOM      8  S2  SGN d 502       9.947  23.251 -16.673  0.00  0.00     0.251 S 
ATOM      9  C5  SGN d 502       6.960  23.013 -19.091  0.00  0.00     0.091 C 
ATOM     10  O3S SGN d 502       7.515  26.985 -23.122  0.00  0.00    -0.296 OA
ATOM     11  N   SGN d 502       6.661  24.704 -22.997  0.00  0.00    -0.210 NA
ATOM     12  C3  SGN d 502       6.930  22.667 -21.585  0.00  0.00     0.083 C 
ATOM     13  C4  SGN d 502       7.585  22.194 -20.267  0.00  0.00     0.095 C 
ATOM     14  S1  SGN d 502       7.529  25.771 -23.889  0.00  0.00     0.156 S 
ATOM     15  O2S SGN d 502       6.824  25.903 -25.132  0.00  0.00    -0.296 OA
ATOM     16  O4S SGN d 502      11.268  23.074 -17.193  0.00  0.00    -0.572 OA
ATOM     17  O1S SGN d 502       8.857  25.262 -24.052  0.00  0.00    -0.296 OA
ATOM     18  O5S SGN d 502       9.597  24.632 -16.498  0.00  0.00    -0.572 OA
ATOM     19  O6  SGN d 502       8.950  22.725 -17.759  0.00  0.00    -0.254 OA
ATOM     20  H   SGN d 502       7.080  22.244 -23.497  0.00  0.00     0.210 HD
ATOM     21  H   SGN d 502       6.914  25.975 -20.649  0.00  0.00     0.131 H 
ATOM     22  H   SGN d 502       8.295  24.286 -21.789  0.00  0.00     0.076 H 
ATOM     23  H   SGN d 502       7.213  21.722 -17.390  0.00  0.00     0.080 H 
ATOM     24  H   SGN d 502       7.191  23.422 -16.993  0.00  0.00     0.080 H 
ATOM     25  H   SGN d 502       5.930  22.724 -19.089  0.00  0.00     0.090 H 
ATOM     26  H   SGN d 502       8.001  26.849 -22.294  0.00  0.00     0.231 HD
ATOM     27  H   SGN d 502       5.788  25.167 -22.747  0.00  0.00     0.140 HD
ATOM     28  H   SGN d 502       5.874  22.499 -21.563  0.00  0.00     0.089 H 
ATOM     29  H   SGN d 502       8.640  22.344 -20.171  0.00  0.00     0.091 H 
ATOM     30  H   SGN d 502       5.934  26.250 -24.964  0.00  0.00     0.231 HD
ATOM     31  H   SGN d 502       9.284  25.193 -23.183  0.00  0.00     0.231 HD
ATOM     32  O62 IDS d 503       9.248  18.918 -24.363  0.00  0.00    -0.646 OA
ATOM     33  O2  IDS d 503       8.594  18.020 -18.439  0.00  0.00    -0.244 OA
ATOM     34  O5  IDS d 503       9.208  19.647 -20.939  0.00  0.00    -0.340 OA
ATOM     35  C5  IDS d 503       8.663  18.929 -22.055  0.00  0.00     0.152 C 
ATOM     36  C4  IDS d 503       8.304  17.495 -21.601  0.00  0.00     0.103 C 
ATOM     37  O61 IDS d 503      10.832  19.164 -23.048  0.00  0.00    -0.646 OA
ATOM     38  O1  IDS d 503       7.282  20.800 -20.257  0.00  0.00    -0.348 OA
ATOM     39  C6  IDS d 503       9.642  19.008 -23.223  0.00  0.00     0.206 C 
ATOM     40  O1S IDS d 503       7.454  17.308 -16.452  0.00  0.00    -0.572 OA
ATOM     41  O3S IDS d 503       8.492  19.457 -16.511  0.00  0.00    -0.572 OA
ATOM     42  C3  IDS d 503       7.295  17.564 -20.422  0.00  0.00     0.094 C 
ATOM     43  O2S IDS d 503       9.839  17.494 -16.481  0.00  0.00    -0.572 OA
ATOM     44  S   IDS d 503       8.587  18.074 -16.876  0.00  0.00     0.252 S 
ATOM     45  O3  IDS d 503       6.023  17.894 -20.950  0.00  0.00    -0.390 OA
ATOM     46  C1  IDS d 503       8.307  19.923 -19.873  0.00  0.00     0.161 C 
ATOM     47  C2  IDS d 503       7.673  18.611 -19.336  0.00  0.00     0.134 C 
ATOM     48  H   IDS d 503       7.751  19.362 -22.409  0.00  0.00     0.104 H 
ATOM     49  H   IDS d 503       7.904  17.013 -22.468  0.00  0.00     0.092 H 
ATOM     50  H   IDS d 503       7.301  16.608 -19.942  0.00  0.00     0.091 H 
ATOM     51  H   IDS d 503       6.066  18.765 -21.374  0.00  0.00     0.210 HD
ATOM     52  H   IDS d 503       8.881  20.393 -19.103  0.00  0.00     0.133 H 
ATOM     53  H   IDS d 503       6.749  18.889 -18.872  0.00  0.00     0.097 H 
ATOM     54  C4  IDS d 505      17.517  13.969 -22.916  0.00  0.00    -0.005 C 
ATOM     55  C5  IDS d 505      16.392  13.398 -21.990  0.00  0.00     0.127 C 
ATOM     56  O2  IDS d 505      15.190  16.311 -24.752  0.00  0.00    -0.388 OA
ATOM     57  O62 IDS d 505      16.246  11.003 -21.884  0.00  0.00    -0.646 OA
ATOM     58  C1  IDS d 505      14.585  14.558 -23.205  0.00  0.00     0.159 C 
ATOM     59  O5  IDS d 505      15.145  13.326 -22.722  0.00  0.00    -0.343 OA
ATOM     60  O1  IDS d 505      13.803  15.187 -22.228  0.00  0.00    -0.348 OA
ATOM     61  O61 IDS d 505      17.500  11.906 -20.500  0.00  0.00    -0.646 OA
ATOM     62  C6  IDS d 505      16.729  12.019 -21.426  0.00  0.00     0.203 C 
ATOM     63  C3  IDS d 505      16.946  14.814 -24.085  0.00  0.00     0.068 C 
ATOM     64  C2  IDS d 505      15.677  15.565 -23.652  0.00  0.00     0.107 C 
ATOM     65  H   IDS d 505      18.165  14.585 -22.329  0.00  0.00     0.041 H 
ATOM     66  H   IDS d 505      18.044  13.140 -23.339  0.00  0.00     0.041 H 
ATOM     67  H   IDS d 505      16.302  14.069 -21.162  0.00  0.00     0.100 H 
ATOM     68  H   IDS d 505      14.389  16.789 -24.488  0.00  0.00     0.210 HD
ATOM     69  H   IDS d 505      13.982  14.287 -24.047  0.00  0.00     0.133 H 
ATOM     70  H   IDS d 505      16.688  14.164 -24.895  0.00  0.00     0.087 H 
ATOM     71  H   IDS d 505      15.913  16.214 -22.834  0.00  0.00     0.094 H 
ATOM     72  O4S SGN d 504      11.259  12.500 -26.500  0.00  0.00    -0.572 OA
ATOM     73  C2  SGN d 504      10.502  14.579 -20.683  0.00  0.00     0.081 C 
ATOM     74  O2S SGN d 504       9.429  13.080 -17.494  0.00  0.00    -0.296 OA
ATOM     75  C5  SGN d 504      11.394  15.831 -23.153  0.00  0.00     0.091 C 
ATOM     76  O3S SGN d 504       7.685  14.272 -18.600  0.00  0.00    -0.296 OA
ATOM     77  N   SGN d 504       9.996  14.651 -19.299  0.00  0.00    -0.210 NA
ATOM     78  O1S SGN d 504       8.783  12.490 -19.719  0.00  0.00    -0.296 OA
ATOM     79  S1  SGN d 504       8.912  13.540 -18.752  0.00  0.00     0.156 S 
ATOM     80  C4  SGN d 504      12.385  14.990 -22.280  0.00  0.00     0.095 C 
ATOM     81  O1  SGN d 504       9.423  16.734 -21.134  0.00  0.00    -0.348 OA
ATOM     82  O6S SGN d 504      12.427  14.416 -27.326  0.00  0.00    -0.572 OA
ATOM     83  O6  SGN d 504      11.525  14.444 -25.106  0.00  0.00    -0.254 OA
ATOM     84  O5S SGN d 504      10.067  14.516 -26.983  0.00  0.00    -0.572 OA
ATOM     85  O3  SGN d 504      12.807  14.368 -19.979  0.00  0.00    -0.391 OA
ATOM     86  O5  SGN d 504      10.022  15.396 -22.945  0.00  0.00    -0.349 OA
ATOM     87  C6  SGN d 504      11.655  15.780 -24.667  0.00  0.00     0.067 C 
ATOM     88  S2  SGN d 504      11.312  13.931 -26.566  0.00  0.00     0.251 S 
ATOM     89  C3  SGN d 504      11.941  15.127 -20.802  0.00  0.00     0.083 C 
ATOM     90  C1  SGN d 504       9.554  15.407 -21.594  0.00  0.00     0.150 C 
ATOM     91  H   SGN d 504      10.524  13.552 -20.982  0.00  0.00     0.076 H 
ATOM     92  H   SGN d 504       9.495  13.827 -16.879  0.00  0.00     0.231 HD
ATOM     93  H   SGN d 504      11.557  16.837 -22.825  0.00  0.00     0.090 H 
ATOM     94  H   SGN d 504       7.806  14.973 -17.941  0.00  0.00     0.231 HD
ATOM     95  H   SGN d 504       9.557  15.566 -19.196  0.00  0.00     0.140 HD
ATOM     96  H   SGN d 504       8.144  11.833 -19.400  0.00  0.00     0.231 HD
ATOM     97  H   SGN d 504      12.300  14.061 -22.806  0.00  0.00     0.091 H 
ATOM     98  H   SGN d 504      12.531  14.453 -19.053  0.00  0.00     0.210 HD
ATOM     99  H   SGN d 504      12.644  16.132 -24.873  0.00  0.00     0.080 H 
ATOM    100  H   SGN d 504      10.949  16.402 -25.178  0.00  0.00     0.080 H 
ATOM    101  H   SGN d 504      11.976  16.151 -20.494  0.00  0.00     0.089 H 
ATOM    102  H   SGN d 504       8.588  14.948 -21.557  0.00  0.00     0.131 H 
ATOM    103  C1  IDS d 501       2.458  27.810 -18.812  0.00  0.00     0.156 C 
ATOM    104  O3  IDS d 501       5.031  26.447 -17.565  0.00  0.00    -0.390 OA
ATOM    105  C2  IDS d 501       3.959  28.208 -18.831  0.00  0.00     0.110 C 
ATOM    106  C4  IDS d 501       4.478  25.873 -19.835  0.00  0.00     0.103 C 
ATOM    107  C6  IDS d 501       2.386  24.483 -20.499  0.00  0.00     0.206 C 
ATOM    108  C3  IDS d 501       4.935  26.999 -18.863  0.00  0.00     0.092 C 
ATOM    109  O5  IDS d 501       2.211  26.782 -19.769  0.00  0.00    -0.340 OA
ATOM    110  O2  IDS d 501       4.187  29.000 -19.982  0.00  0.00    -0.388 OA
ATOM    111  C5  IDS d 501       2.972  25.572 -19.602  0.00  0.00     0.152 C 
ATOM    112  O62 IDS d 501       2.264  23.351 -20.094  0.00  0.00    -0.646 OA
ATOM    113  O61 IDS d 501       2.032  24.719 -21.634  0.00  0.00    -0.646 OA
ATOM    114  O1  IDS d 501       2.107  27.418 -17.511  0.00  0.00    -0.368 OA
ATOM    115  H   IDS d 501       1.847  28.645 -19.085  0.00  0.00     0.133 H 
ATOM    116  H   IDS d 501       5.316  27.134 -16.942  0.00  0.00     0.210 HD
ATOM    117  H   IDS d 501       4.156  28.734 -17.920  0.00  0.00     0.094 H 
ATOM    118  H   IDS d 501       4.976  26.362 -20.645  0.00  0.00     0.092 H 
ATOM    119  H   IDS d 501       5.877  27.369 -19.210  0.00  0.00     0.091 H 
ATOM    120  H   IDS d 501       3.995  28.479 -20.777  0.00  0.00     0.210 HD
ATOM    121  H   IDS d 501       2.905  25.195 -18.602  0.00  0.00     0.104 H 
ATOM    122  H   IDS d 501       2.651  26.660 -17.244  0.00  0.00     0.212 HD
ATOM    123  O3  IDS d 535      17.931  15.744 -24.485  0.00  0.00    -0.393 OA
ATOM    124  H   IDS d 535      18.731  15.270 -24.758  0.00  0.00     0.210 HD
ENDROOT
TORSDOF 37
ENDMDL
MODEL 44
REMARK VINA RESULT:      -5.6      4.519      8.437
REMARK  0 active torsions:
REMARK  status: ('A' for Active; 'I' for Inactive)
REMARK       I    between atoms: O3_1  and  C3_48 
REMARK       I    between atoms: C1_2  and  O1_8 
REMARK       I    between atoms: O2_5  and  C2_76 
REMARK       I    between atoms: O2_5  and  S_66 
REMARK       I    between atoms: C2_7  and  N_46 
REMARK       I    between atoms: O1_8  and  C4_39 
REMARK       I    between atoms: C2_12  and  N_23 
REMARK       I    between atoms: O2S_13  and  S1_25 
REMARK       I    between atoms: C1_14  and  O1_65 
REMARK       I    between atoms: O3_15  and  C3_69 
REMARK       I    between atoms: C5_16  and  C6_31 
REMARK       I    between atoms: C5_17  and  C6_68 
REMARK       I    between atoms: C5_18  and  C6_71 
REMARK       I    between atoms: O3S_19  and  S1_25 
REMARK       I    between atoms: C6_20  and  C5_28 
REMARK       I    between atoms: C6_20  and  O6_74 
REMARK       I    between atoms: C4_21  and  O1_35 
REMARK       I    between atoms: S2_22  and  O6_74 
REMARK       I    between atoms: N_23  and  S1_25 
REMARK       I    between atoms: O1S_24  and  S1_25 
REMARK       I    between atoms: C4_27  and  O1_63 
REMARK       I    between atoms: O1_29  and  C4_49 
REMARK       I    between atoms: O1_29  and  C1_73 
REMARK       I    between atoms: O2_30  and  C2_78 
REMARK       I    between atoms: O3_33  and  C3_42 
REMARK       I    between atoms: O1_35  and  C1_77 
REMARK       I    between atoms: O3S_37  and  S1_50 
REMARK       I    between atoms: C2_38  and  O2_45 
REMARK       I    between atoms: C6_40  and  C5_51 
REMARK       I    between atoms: C3_41  and  O3_67 
REMARK       I    between atoms: N_46  and  S1_50 
REMARK       I    between atoms: O6_47  and  C6_71 
REMARK       I    between atoms: O6_47  and  S2_72 
REMARK       I    between atoms: S1_50  and  O1S_61 
REMARK       I    between atoms: S1_50  and  O2S_54 
REMARK       I    between atoms: O3_56  and  C3_75 
REMARK       I    between atoms: C1_58  and  O1_63 
ROOT
ATOM      1  O3  SGN d 502       1.764  17.444 -19.512  0.00  0.00    -0.391 OA
ATOM      2  C1  SGN d 502       0.221  14.729 -21.624  0.00  0.00     0.150 C 
ATOM      3  O6S SGN d 502       2.646  17.295 -26.984  0.00  0.00    -0.572 OA
ATOM      4  C2  SGN d 502       1.107  15.345 -20.506  0.00  0.00     0.081 C 
ATOM      5  O1  SGN d 502      -1.152  14.932 -21.354  0.00  0.00    -0.348 OA
ATOM      6  O5  SGN d 502       0.563  15.288 -22.900  0.00  0.00    -0.349 OA
ATOM      7  C6  SGN d 502       0.877  17.108 -24.448  0.00  0.00     0.067 C 
ATOM      8  S2  SGN d 502       3.000  16.402 -25.920  0.00  0.00     0.251 S 
ATOM      9  C5  SGN d 502       0.515  16.736 -22.998  0.00  0.00     0.091 C 
ATOM     10  O3S SGN d 502       1.301  12.411 -19.391  0.00  0.00    -0.296 OA
ATOM     11  N   SGN d 502       0.700  14.768 -19.217  0.00  0.00    -0.210 NA
ATOM     12  C3  SGN d 502       0.950  16.877 -20.522  0.00  0.00     0.083 C 
ATOM     13  C4  SGN d 502       1.419  17.389 -21.903  0.00  0.00     0.095 C 
ATOM     14  S1  SGN d 502       1.582  13.550 -18.563  0.00  0.00     0.156 S 
ATOM     15  O2S SGN d 502       1.089  13.388 -17.225  0.00  0.00    -0.296 OA
ATOM     16  O4S SGN d 502       4.402  16.403 -25.635  0.00  0.00    -0.572 OA
ATOM     17  O1S SGN d 502       2.966  13.910 -18.608  0.00  0.00    -0.296 OA
ATOM     18  O5S SGN d 502       2.473  15.081 -26.118  0.00  0.00    -0.572 OA
ATOM     19  O6  SGN d 502       2.268  16.933 -24.643  0.00  0.00    -0.254 OA
ATOM     20  H   SGN d 502       1.471  17.125 -18.644  0.00  0.00     0.210 HD
ATOM     21  H   SGN d 502       0.404  13.675 -21.647  0.00  0.00     0.131 H 
ATOM     22  H   SGN d 502       2.140  15.119 -20.668  0.00  0.00     0.076 H 
ATOM     23  H   SGN d 502       0.617  18.130 -24.631  0.00  0.00     0.080 H 
ATOM     24  H   SGN d 502       0.338  16.479 -25.125  0.00  0.00     0.080 H 
ATOM     25  H   SGN d 502      -0.461  17.125 -22.798  0.00  0.00     0.090 H 
ATOM     26  H   SGN d 502       1.651  12.566 -20.282  0.00  0.00     0.231 HD
ATOM     27  H   SGN d 502      -0.250  14.416 -19.335  0.00  0.00     0.140 HD
ATOM     28  H   SGN d 502      -0.069  17.150 -20.344  0.00  0.00     0.089 H 
ATOM     29  H   SGN d 502       2.419  17.143 -22.195  0.00  0.00     0.091 H 
ATOM     30  H   SGN d 502       0.150  13.145 -17.253  0.00  0.00     0.231 HD
ATOM     31  H   SGN d 502       3.245  14.007 -19.533  0.00  0.00     0.231 HD
ATOM     32  O62 IDS d 503       4.114  20.136 -17.970  0.00  0.00    -0.646 OA
ATOM     33  O2  IDS d 503       2.564  21.578 -23.613  0.00  0.00    -0.244 OA
ATOM     34  O5  IDS d 503       3.409  19.698 -21.371  0.00  0.00    -0.340 OA
ATOM     35  C5  IDS d 503       3.147  20.373 -20.133  0.00  0.00     0.152 C 
ATOM     36  C4  IDS d 503       2.878  21.868 -20.424  0.00  0.00     0.103 C 
ATOM     37  O61 IDS d 503       5.413  19.843 -19.559  0.00  0.00    -0.646 OA
ATOM     38  O1  IDS d 503       1.278  18.802 -21.770  0.00  0.00    -0.348 OA
ATOM     39  C6  IDS d 503       4.295  20.101 -19.166  0.00  0.00     0.206 C 
ATOM     40  O1S IDS d 503       1.188  22.561 -25.315  0.00  0.00    -0.572 OA
ATOM     41  O3S IDS d 503       1.974  20.321 -25.579  0.00  0.00    -0.572 OA
ATOM     42  C3  IDS d 503       1.681  21.997 -21.405  0.00  0.00     0.094 C 
ATOM     43  O2S IDS d 503       3.506  22.137 -25.725  0.00  0.00    -0.572 OA
ATOM     44  S   IDS d 503       2.284  21.653 -25.151  0.00  0.00     0.252 S 
ATOM     45  O3  IDS d 503       0.490  21.752 -20.681  0.00  0.00    -0.390 OA
ATOM     46  C1  IDS d 503       2.314  19.602 -22.274  0.00  0.00     0.161 C 
ATOM     47  C2  IDS d 503       1.749  21.010 -22.605  0.00  0.00     0.134 C 
ATOM     48  H   IDS d 503       2.266  20.006 -19.650  0.00  0.00     0.104 H 
ATOM     49  H   IDS d 503       2.689  22.315 -19.470  0.00  0.00     0.092 H 
ATOM     50  H   IDS d 503       1.712  22.984 -21.817  0.00  0.00     0.091 H 
ATOM     51  H   IDS d 503       0.506  20.849 -20.327  0.00  0.00     0.210 HD
ATOM     52  H   IDS d 503       2.692  19.142 -23.163  0.00  0.00     0.133 H 
ATOM     53  H   IDS d 503       0.734  20.864 -22.914  0.00  0.00     0.097 H 
ATOM     54  C4  IDS d 505      12.516  24.342 -20.553  0.00  0.00    -0.005 C 
ATOM     55  C5  IDS d 505      11.321  25.096 -21.225  0.00  0.00     0.127 C 
ATOM     56  O2  IDS d 505      10.290  22.100 -18.484  0.00  0.00    -0.388 OA
ATOM     57  O62 IDS d 505      11.430  27.494 -21.152  0.00  0.00    -0.646 OA
ATOM     58  C1  IDS d 505       9.630  24.025 -19.783  0.00  0.00     0.159 C 
ATOM     59  O5  IDS d 505      10.234  25.231 -20.280  0.00  0.00    -0.343 OA
ATOM     60  O1  IDS d 505       8.627  23.560 -20.643  0.00  0.00    -0.348 OA
ATOM     61  O61 IDS d 505      12.319  26.588 -22.792  0.00  0.00    -0.646 OA
ATOM     62  C6  IDS d 505      11.710  26.477 -21.752  0.00  0.00     0.203 C 
ATOM     63  C3  IDS d 505      12.062  23.465 -19.357  0.00  0.00     0.068 C 
ATOM     64  C2  IDS d 505      10.662  22.881 -19.604  0.00  0.00     0.107 C 
ATOM     65  H   IDS d 505      12.982  23.715 -21.284  0.00  0.00     0.041 H 
ATOM     66  H   IDS d 505      13.198  25.077 -20.179  0.00  0.00     0.041 H 
ATOM     67  H   IDS d 505      11.017  24.508 -22.065  0.00  0.00     0.100 H 
ATOM     68  H   IDS d 505       9.407  21.727 -18.630  0.00  0.00     0.210 HD
ATOM     69  H   IDS d 505       9.214  24.285 -18.832  0.00  0.00     0.133 H 
ATOM     70  H   IDS d 505      12.021  24.068 -18.474  0.00  0.00     0.087 H 
ATOM     71  H   IDS d 505      10.681  22.282 -20.490  0.00  0.00     0.094 H 
ATOM     72  O4S SGN d 504       7.167  26.126 -15.824  0.00  0.00    -0.572 OA
ATOM     73  C2  SGN d 504       5.200  24.617 -21.533  0.00  0.00     0.081 C 
ATOM     74  O2S SGN d 504       3.773  26.472 -24.377  0.00  0.00    -0.296 OA
ATOM     75  C5  SGN d 504       6.354  23.084 -19.345  0.00  0.00     0.091 C 
ATOM     76  O3S SGN d 504       2.121  25.372 -23.055  0.00  0.00    -0.296 OA
ATOM     77  N   SGN d 504       4.461  24.709 -22.805  0.00  0.00    -0.210 NA
ATOM     78  O1S SGN d 504       3.587  26.938 -22.039  0.00  0.00    -0.296 OA
ATOM     79  S1  SGN d 504       3.430  25.964 -23.079  0.00  0.00     0.156 S 
ATOM     80  C4  SGN d 504       7.270  23.892 -20.327  0.00  0.00     0.095 C 
ATOM     81  O1  SGN d 504       3.980  22.550 -21.034  0.00  0.00    -0.348 OA
ATOM     82  O6S SGN d 504       8.237  24.042 -15.343  0.00  0.00    -0.572 OA
ATOM     83  O6  SGN d 504       6.972  24.287 -17.364  0.00  0.00    -0.254 OA
ATOM     84  O5S SGN d 504       5.857  24.206 -15.265  0.00  0.00    -0.572 OA
ATOM     85  O3  SGN d 504       7.361  24.655 -22.621  0.00  0.00    -0.391 OA
ATOM     86  O5  SGN d 504       5.025  23.668 -19.278  0.00  0.00    -0.349 OA
ATOM     87  C6  SGN d 504       6.874  22.984 -17.903  0.00  0.00     0.067 C 
ATOM     88  S2  SGN d 504       7.070  24.697 -15.859  0.00  0.00     0.251 S 
ATOM     89  C3  SGN d 504       6.568  23.921 -21.707  0.00  0.00     0.083 C 
ATOM     90  C1  SGN d 504       4.335  23.816 -20.521  0.00  0.00     0.150 C 
ATOM     91  H   SGN d 504       5.388  25.608 -21.177  0.00  0.00     0.076 H 
ATOM     92  H   SGN d 504       3.650  25.775 -25.040  0.00  0.00     0.231 HD
ATOM     93  H   SGN d 504       6.345  22.097 -19.761  0.00  0.00     0.090 H 
ATOM     94  H   SGN d 504       2.049  24.719 -23.769  0.00  0.00     0.231 HD
ATOM     95  H   SGN d 504       3.910  23.854 -22.886  0.00  0.00     0.140 HD
ATOM     96  H   SGN d 504       2.981  27.679 -22.197  0.00  0.00     0.231 HD
ATOM     97  H   SGN d 504       7.381  24.778 -19.736  0.00  0.00     0.091 H 
ATOM     98  H   SGN d 504       6.922  24.674 -23.487  0.00  0.00     0.210 HD
ATOM     99  H   SGN d 504       7.838  22.520 -17.899  0.00  0.00     0.080 H 
ATOM    100  H   SGN d 504       6.201  22.396 -17.314  0.00  0.00     0.080 H 
ATOM    101  H   SGN d 504       6.434  22.927 -22.081  0.00  0.00     0.089 H 
ATOM    102  H   SGN d 504       3.435  24.370 -20.356  0.00  0.00     0.131 H 
ATOM    103  C1  IDS d 501      -4.478  12.449 -22.772  0.00  0.00     0.156 C 
ATOM    104  O3  IDS d 501      -2.019  13.647 -24.370  0.00  0.00    -0.390 OA
ATOM    105  C2  IDS d 501      -3.050  11.903 -23.047  0.00  0.00     0.110 C 
ATOM    106  C4  IDS d 501      -2.109  14.085 -22.005  0.00  0.00     0.103 C 
ATOM    107  C6  IDS d 501      -3.887  15.617 -20.892  0.00  0.00     0.206 C 
ATOM    108  C3  IDS d 501      -1.953  13.003 -23.113  0.00  0.00     0.092 C 
ATOM    109  O5  IDS d 501      -4.441  13.414 -21.723  0.00  0.00    -0.340 OA
ATOM    110  O2  IDS d 501      -2.719  11.001 -22.008  0.00  0.00    -0.388 OA
ATOM    111  C5  IDS d 501      -3.589  14.552 -21.947  0.00  0.00     0.152 C 
ATOM    112  O62 IDS d 501      -3.949  16.785 -21.196  0.00  0.00    -0.646 OA
ATOM    113  O61 IDS d 501      -4.066  15.324 -19.730  0.00  0.00    -0.646 OA
ATOM    114  O1  IDS d 501      -4.999  12.979 -23.963  0.00  0.00    -0.368 OA
ATOM    115  H   IDS d 501      -5.123  11.659 -22.448  0.00  0.00     0.133 H 
ATOM    116  H   IDS d 501      -1.924  12.989 -25.076  0.00  0.00     0.210 HD
ATOM    117  H   IDS d 501      -3.071  11.436 -24.010  0.00  0.00     0.094 H 
ATOM    118  H   IDS d 501      -1.537  13.484 -21.330  0.00  0.00     0.092 H 
ATOM    119  H   IDS d 501      -1.013  12.514 -22.964  0.00  0.00     0.091 H 
ATOM    120  H   IDS d 501      -2.712  11.472 -21.160  0.00  0.00     0.210 HD
ATOM    121  H   IDS d 501      -3.782  15.014 -22.892  0.00  0.00     0.104 H 
ATOM    122  H   IDS d 501      -4.427  13.698 -24.274  0.00  0.00     0.212 HD
ATOM    123  O3  IDS d 535      12.990  22.412 -19.199  0.00  0.00    -0.393 OA
ATOM    124  H   IDS d 535      13.874  22.780 -19.044  0.00  0.00     0.210 HD
ENDROOT
TORSDOF 37
ENDMDL
MODEL 45
REMARK VINA RESULT:      -5.6      5.901      9.221
REMARK  0 active torsions:
REMARK  status: ('A' for Active; 'I' for Inactive)
REMARK       I    between atoms: O3_1  and  C3_48 
REMARK       I    between atoms: C1_2  and  O1_8 
REMARK       I    between atoms: O2_5  and  C2_76 
REMARK       I    between atoms: O2_5  and  S_66 
REMARK       I    between atoms: C2_7  and  N_46 
REMARK       I    between atoms: O1_8  and  C4_39 
REMARK       I    between atoms: C2_12  and  N_23 
REMARK       I    between atoms: O2S_13  and  S1_25 
REMARK       I    between atoms: C1_14  and  O1_65 
REMARK       I    between atoms: O3_15  and  C3_69 
REMARK       I    between atoms: C5_16  and  C6_31 
REMARK       I    between atoms: C5_17  and  C6_68 
REMARK       I    between atoms: C5_18  and  C6_71 
REMARK       I    between atoms: O3S_19  and  S1_25 
REMARK       I    between atoms: C6_20  and  C5_28 
REMARK       I    between atoms: C6_20  and  O6_74 
REMARK       I    between atoms: C4_21  and  O1_35 
REMARK       I    between atoms: S2_22  and  O6_74 
REMARK       I    between atoms: N_23  and  S1_25 
REMARK       I    between atoms: O1S_24  and  S1_25 
REMARK       I    between atoms: C4_27  and  O1_63 
REMARK       I    between atoms: O1_29  and  C4_49 
REMARK       I    between atoms: O1_29  and  C1_73 
REMARK       I    between atoms: O2_30  and  C2_78 
REMARK       I    between atoms: O3_33  and  C3_42 
REMARK       I    between atoms: O1_35  and  C1_77 
REMARK       I    between atoms: O3S_37  and  S1_50 
REMARK       I    between atoms: C2_38  and  O2_45 
REMARK       I    between atoms: C6_40  and  C5_51 
REMARK       I    between atoms: C3_41  and  O3_67 
REMARK       I    between atoms: N_46  and  S1_50 
REMARK       I    between atoms: O6_47  and  C6_71 
REMARK       I    between atoms: O6_47  and  S2_72 
REMARK       I    between atoms: S1_50  and  O1S_61 
REMARK       I    between atoms: S1_50  and  O2S_54 
REMARK       I    between atoms: O3_56  and  C3_75 
REMARK       I    between atoms: C1_58  and  O1_63 
ROOT
ATOM      1  O3  SGN d 502       5.501  21.408 -18.276  0.00  0.00    -0.391 OA
ATOM      2  C1  SGN d 502       4.931  25.093 -17.719  0.00  0.00     0.150 C 
ATOM      3  O6S SGN d 502      11.228  26.128 -17.029  0.00  0.00    -0.572 OA
ATOM      4  C2  SGN d 502       4.878  23.733 -18.467  0.00  0.00     0.081 C 
ATOM      5  O1  SGN d 502       4.133  25.064 -16.553  0.00  0.00    -0.348 OA
ATOM      6  O5  SGN d 502       6.286  25.428 -17.384  0.00  0.00    -0.349 OA
ATOM      7  C6  SGN d 502       8.420  25.015 -16.344  0.00  0.00     0.067 C 
ATOM      8  S2  SGN d 502      10.223  26.027 -18.046  0.00  0.00     0.251 S 
ATOM      9  C5  SGN d 502       7.020  24.435 -16.620  0.00  0.00     0.091 C 
ATOM     10  O3S SGN d 502       2.783  25.133 -20.348  0.00  0.00    -0.296 OA
ATOM     11  N   SGN d 502       3.472  23.415 -18.760  0.00  0.00    -0.210 NA
ATOM     12  C3  SGN d 502       5.538  22.648 -17.595  0.00  0.00     0.083 C 
ATOM     13  C4  SGN d 502       7.010  23.058 -17.359  0.00  0.00     0.095 C 
ATOM     14  S1  SGN d 502       2.876  23.703 -20.260  0.00  0.00     0.156 S 
ATOM     15  O2S SGN d 502       1.590  23.069 -20.296  0.00  0.00    -0.296 OA
ATOM     16  O4S SGN d 502      10.736  25.543 -19.291  0.00  0.00    -0.572 OA
ATOM     17  O1S SGN d 502       3.788  23.171 -21.227  0.00  0.00    -0.296 OA
ATOM     18  O5S SGN d 502       9.466  27.239 -18.189  0.00  0.00    -0.572 OA
ATOM     19  O6  SGN d 502       9.187  24.972 -17.533  0.00  0.00    -0.254 OA
ATOM     20  H   SGN d 502       4.579  21.148 -18.424  0.00  0.00     0.210 HD
ATOM     21  H   SGN d 502       4.540  25.844 -18.372  0.00  0.00     0.131 H 
ATOM     22  H   SGN d 502       5.415  23.781 -19.391  0.00  0.00     0.076 H 
ATOM     23  H   SGN d 502       8.904  24.436 -15.585  0.00  0.00     0.080 H 
ATOM     24  H   SGN d 502       8.329  26.028 -16.012  0.00  0.00     0.080 H 
ATOM     25  H   SGN d 502       6.562  24.229 -15.675  0.00  0.00     0.090 H 
ATOM     26  H   SGN d 502       3.673  25.517 -20.319  0.00  0.00     0.231 HD
ATOM     27  H   SGN d 502       2.904  23.954 -18.107  0.00  0.00     0.140 HD
ATOM     28  H   SGN d 502       5.020  22.551 -16.664  0.00  0.00     0.089 H 
ATOM     29  H   SGN d 502       7.613  23.213 -18.229  0.00  0.00     0.091 H 
ATOM     30  H   SGN d 502       1.014  23.467 -19.624  0.00  0.00     0.231 HD
ATOM     31  H   SGN d 502       4.638  23.635 -21.158  0.00  0.00     0.231 HD
ATOM     32  O62 IDS d 503       6.881  17.933 -19.359  0.00  0.00    -0.646 OA
ATOM     33  O2  IDS d 503      10.812  20.828 -15.824  0.00  0.00    -0.244 OA
ATOM     34  O5  IDS d 503       8.745  20.591 -18.049  0.00  0.00    -0.340 OA
ATOM     35  C5  IDS d 503       8.046  19.355 -17.846  0.00  0.00     0.152 C 
ATOM     36  C4  IDS d 503       8.828  18.499 -16.823  0.00  0.00     0.103 C 
ATOM     37  O61 IDS d 503       8.543  18.892 -20.144  0.00  0.00    -0.646 OA
ATOM     38  O1  IDS d 503       7.514  21.962 -16.597  0.00  0.00    -0.348 OA
ATOM     39  C6  IDS d 503       7.812  18.688 -19.198  0.00  0.00     0.206 C 
ATOM     40  O1S IDS d 503      11.794  21.492 -13.739  0.00  0.00    -0.572 OA
ATOM     41  O3S IDS d 503      11.319  23.142 -15.398  0.00  0.00    -0.572 OA
ATOM     42  C3  IDS d 503       8.980  19.291 -15.495  0.00  0.00     0.094 C 
ATOM     43  O2S IDS d 503      13.071  21.572 -15.760  0.00  0.00    -0.572 OA
ATOM     44  S   IDS d 503      11.804  21.820 -15.133  0.00  0.00     0.252 S 
ATOM     45  O3  IDS d 503       7.736  19.261 -14.820  0.00  0.00    -0.390 OA
ATOM     46  C1  IDS d 503       8.786  21.477 -16.936  0.00  0.00     0.161 C 
ATOM     47  C2  IDS d 503       9.404  20.773 -15.696  0.00  0.00     0.134 C 
ATOM     48  H   IDS d 503       7.075  19.504 -17.422  0.00  0.00     0.104 H 
ATOM     49  H   IDS d 503       8.262  17.598 -16.712  0.00  0.00     0.092 H 
ATOM     50  H   IDS d 503       9.760  18.822 -14.932  0.00  0.00     0.091 H 
ATOM     51  H   IDS d 503       7.061  19.694 -15.365  0.00  0.00     0.210 HD
ATOM     52  H   IDS d 503       9.396  22.305 -17.228  0.00  0.00     0.133 H 
ATOM     53  H   IDS d 503       9.036  21.296 -14.837  0.00  0.00     0.097 H 
ATOM     54  C4  IDS d 505      15.028  14.700 -23.617  0.00  0.00    -0.005 C 
ATOM     55  C5  IDS d 505      15.256  14.832 -22.075  0.00  0.00     0.127 C 
ATOM     56  O2  IDS d 505      11.341  15.497 -23.412  0.00  0.00    -0.388 OA
ATOM     57  O62 IDS d 505      16.400  12.997 -21.030  0.00  0.00    -0.646 OA
ATOM     58  C1  IDS d 505      12.850  15.056 -21.580  0.00  0.00     0.159 C 
ATOM     59  O5  IDS d 505      14.088  14.358 -21.364  0.00  0.00    -0.343 OA
ATOM     60  O1  IDS d 505      12.731  16.166 -20.732  0.00  0.00    -0.348 OA
ATOM     61  O61 IDS d 505      17.597  14.527 -21.757  0.00  0.00    -0.646 OA
ATOM     62  C6  IDS d 505      16.489  14.071 -21.589  0.00  0.00     0.203 C 
ATOM     63  C3  IDS d 505      13.522  14.675 -23.990  0.00  0.00     0.068 C 
ATOM     64  C2  IDS d 505      12.705  15.562 -23.038  0.00  0.00     0.107 C 
ATOM     65  H   IDS d 505      15.490  15.532 -24.106  0.00  0.00     0.041 H 
ATOM     66  H   IDS d 505      15.459  13.773 -23.933  0.00  0.00     0.041 H 
ATOM     67  H   IDS d 505      15.422  15.870 -21.874  0.00  0.00     0.100 H 
ATOM     68  H   IDS d 505      10.817  16.055 -22.817  0.00  0.00     0.210 HD
ATOM     69  H   IDS d 505      12.080  14.343 -21.369  0.00  0.00     0.133 H 
ATOM     70  H   IDS d 505      13.156  13.672 -23.908  0.00  0.00     0.087 H 
ATOM     71  H   IDS d 505      13.064  16.568 -23.099  0.00  0.00     0.094 H 
ATOM     72  O4S SGN d 504       9.756  11.494 -19.605  0.00  0.00    -0.572 OA
ATOM     73  C2  SGN d 504      12.118  16.691 -17.126  0.00  0.00     0.081 C 
ATOM     74  O2S SGN d 504      14.305  17.458 -14.265  0.00  0.00    -0.296 OA
ATOM     75  C5  SGN d 504      10.413  16.168 -19.427  0.00  0.00     0.091 C 
ATOM     76  O3S SGN d 504      11.991  17.772 -13.783  0.00  0.00    -0.296 OA
ATOM     77  N   SGN d 504      12.694  17.599 -16.118  0.00  0.00    -0.210 NA
ATOM     78  O1S SGN d 504      12.759  15.654 -14.527  0.00  0.00    -0.296 OA
ATOM     79  S1  SGN d 504      12.960  17.072 -14.580  0.00  0.00     0.156 S 
ATOM     80  C4  SGN d 504      11.968  16.008 -19.530  0.00  0.00     0.095 C 
ATOM     81  O1  SGN d 504      10.152  18.154 -17.244  0.00  0.00    -0.348 OA
ATOM     82  O6S SGN d 504       8.968  12.489 -21.631  0.00  0.00    -0.572 OA
ATOM     83  O6  SGN d 504       9.883  13.878 -19.905  0.00  0.00    -0.254 OA
ATOM     84  O5S SGN d 504       7.773  12.828 -19.593  0.00  0.00    -0.572 OA
ATOM     85  O3  SGN d 504      14.019  16.901 -18.608  0.00  0.00    -0.391 OA
ATOM     86  O5  SGN d 504       9.963  15.979 -18.057  0.00  0.00    -0.349 OA
ATOM     87  C6  SGN d 504       9.599  15.204 -20.303  0.00  0.00     0.067 C 
ATOM     88  S2  SGN d 504       9.052  12.589 -20.203  0.00  0.00     0.251 S 
ATOM     89  C3  SGN d 504      12.610  17.023 -18.553  0.00  0.00     0.083 C 
ATOM     90  C1  SGN d 504      10.570  16.817 -17.070  0.00  0.00     0.150 C 
ATOM     91  H   SGN d 504      12.431  15.693 -16.904  0.00  0.00     0.076 H 
ATOM     92  H   SGN d 504      14.385  18.424 -14.315  0.00  0.00     0.231 HD
ATOM     93  H   SGN d 504      10.236  17.163 -19.780  0.00  0.00     0.090 H 
ATOM     94  H   SGN d 504      12.154  18.726 -13.840  0.00  0.00     0.231 HD
ATOM     95  H   SGN d 504      12.063  18.398 -16.049  0.00  0.00     0.140 HD
ATOM     96  H   SGN d 504      12.915  15.339 -13.622  0.00  0.00     0.231 HD
ATOM     97  H   SGN d 504      12.024  14.953 -19.358  0.00  0.00     0.091 H 
ATOM     98  H   SGN d 504      14.423  17.536 -17.996  0.00  0.00     0.210 HD
ATOM     99  H   SGN d 504       9.868  15.337 -21.330  0.00  0.00     0.080 H 
ATOM    100  H   SGN d 504       8.554  15.402 -20.188  0.00  0.00     0.080 H 
ATOM    101  H   SGN d 504      12.337  18.023 -18.817  0.00  0.00     0.089 H 
ATOM    102  H   SGN d 504      10.255  16.496 -16.100  0.00  0.00     0.131 H 
ATOM    103  C1  IDS d 501       2.265  28.514 -14.591  0.00  0.00     0.156 C 
ATOM    104  O3  IDS d 501       5.236  28.132 -15.622  0.00  0.00    -0.390 OA
ATOM    105  C2  IDS d 501       2.933  28.786 -15.967  0.00  0.00     0.110 C 
ATOM    106  C4  IDS d 501       3.707  26.310 -15.985  0.00  0.00     0.103 C 
ATOM    107  C6  IDS d 501       2.729  24.848 -14.074  0.00  0.00     0.206 C 
ATOM    108  C3  IDS d 501       4.064  27.784 -16.332  0.00  0.00     0.092 C 
ATOM    109  O5  IDS d 501       1.993  27.121 -14.445  0.00  0.00    -0.340 OA
ATOM    110  O2  IDS d 501       1.929  28.712 -16.963  0.00  0.00    -0.388 OA
ATOM    111  C5  IDS d 501       3.130  26.245 -14.545  0.00  0.00     0.152 C 
ATOM    112  O62 IDS d 501       3.471  24.197 -13.377  0.00  0.00    -0.646 OA
ATOM    113  O61 IDS d 501       1.667  24.355 -14.385  0.00  0.00    -0.646 OA
ATOM    114  O1  IDS d 501       3.102  29.000 -13.575  0.00  0.00    -0.368 OA
ATOM    115  H   IDS d 501       1.327  29.025 -14.524  0.00  0.00     0.133 H 
ATOM    116  H   IDS d 501       5.477  29.049 -15.824  0.00  0.00     0.210 HD
ATOM    117  H   IDS d 501       3.388  29.753 -15.909  0.00  0.00     0.094 H 
ATOM    118  H   IDS d 501       3.230  26.196 -16.936  0.00  0.00     0.092 H 
ATOM    119  H   IDS d 501       4.205  27.848 -17.391  0.00  0.00     0.091 H 
ATOM    120  H   IDS d 501       1.549  27.820 -16.974  0.00  0.00     0.210 HD
ATOM    121  H   IDS d 501       3.927  26.554 -13.902  0.00  0.00     0.104 H 
ATOM    122  H   IDS d 501       3.960  28.548 -13.619  0.00  0.00     0.212 HD
ATOM    123  O3  IDS d 535      13.383  15.150 -25.313  0.00  0.00    -0.393 OA
ATOM    124  H   IDS d 535      13.899  14.590 -25.914  0.00  0.00     0.210 HD
ENDROOT
TORSDOF 37
ENDMDL
MODEL 46
REMARK VINA RESULT:      -5.6      3.859     13.033
REMARK  0 active torsions:
REMARK  status: ('A' for Active; 'I' for Inactive)
REMARK       I    between atoms: O3_1  and  C3_48 
REMARK       I    between atoms: C1_2  and  O1_8 
REMARK       I    between atoms: O2_5  and  C2_76 
REMARK       I    between atoms: O2_5  and  S_66 
REMARK       I    between atoms: C2_7  and  N_46 
REMARK       I    between atoms: O1_8  and  C4_39 
REMARK       I    between atoms: C2_12  and  N_23 
REMARK       I    between atoms: O2S_13  and  S1_25 
REMARK       I    between atoms: C1_14  and  O1_65 
REMARK       I    between atoms: O3_15  and  C3_69 
REMARK       I    between atoms: C5_16  and  C6_31 
REMARK       I    between atoms: C5_17  and  C6_68 
REMARK       I    between atoms: C5_18  and  C6_71 
REMARK       I    between atoms: O3S_19  and  S1_25 
REMARK       I    between atoms: C6_20  and  C5_28 
REMARK       I    between atoms: C6_20  and  O6_74 
REMARK       I    between atoms: C4_21  and  O1_35 
REMARK       I    between atoms: S2_22  and  O6_74 
REMARK       I    between atoms: N_23  and  S1_25 
REMARK       I    between atoms: O1S_24  and  S1_25 
REMARK       I    between atoms: C4_27  and  O1_63 
REMARK       I    between atoms: O1_29  and  C4_49 
REMARK       I    between atoms: O1_29  and  C1_73 
REMARK       I    between atoms: O2_30  and  C2_78 
REMARK       I    between atoms: O3_33  and  C3_42 
REMARK       I    between atoms: O1_35  and  C1_77 
REMARK       I    between atoms: O3S_37  and  S1_50 
REMARK       I    between atoms: C2_38  and  O2_45 
REMARK       I    between atoms: C6_40  and  C5_51 
REMARK       I    between atoms: C3_41  and  O3_67 
REMARK       I    between atoms: N_46  and  S1_50 
REMARK       I    between atoms: O6_47  and  C6_71 
REMARK       I    between atoms: O6_47  and  S2_72 
REMARK       I    between atoms: S1_50  and  O1S_61 
REMARK       I    between atoms: S1_50  and  O2S_54 
REMARK       I    between atoms: O3_56  and  C3_75 
REMARK       I    between atoms: C1_58  and  O1_63 
ROOT
ATOM      1  O3  SGN d 502       4.451  23.188 -17.563  0.00  0.00    -0.391 OA
ATOM      2  C1  SGN d 502       8.051  24.168 -18.105  0.00  0.00     0.150 C 
ATOM      3  O6S SGN d 502       9.670  18.100 -19.435  0.00  0.00    -0.572 OA
ATOM      4  C2  SGN d 502       6.514  24.180 -18.330  0.00  0.00     0.081 C 
ATOM      5  O1  SGN d 502       8.382  24.677 -16.829  0.00  0.00    -0.348 OA
ATOM      6  O5  SGN d 502       8.570  22.838 -18.258  0.00  0.00    -0.349 OA
ATOM      7  C6  SGN d 502       8.689  20.490 -17.726  0.00  0.00     0.067 C 
ATOM      8  S2  SGN d 502       9.153  19.278 -20.069  0.00  0.00     0.251 S 
ATOM      9  C5  SGN d 502       7.959  21.814 -17.429  0.00  0.00     0.091 C 
ATOM     10  O3S SGN d 502       7.026  26.822 -19.957  0.00  0.00    -0.296 OA
ATOM     11  N   SGN d 502       6.024  25.551 -18.132  0.00  0.00    -0.210 NA
ATOM     12  C3  SGN d 502       5.850  23.189 -17.355  0.00  0.00     0.083 C 
ATOM     13  C4  SGN d 502       6.412  21.780 -17.652  0.00  0.00     0.095 C 
ATOM     14  S1  SGN d 502       5.727  26.499 -19.437  0.00  0.00     0.156 S 
ATOM     15  O2S SGN d 502       5.038  27.652 -18.933  0.00  0.00    -0.296 OA
ATOM     16  O4S SGN d 502       8.297  18.984 -21.177  0.00  0.00    -0.572 OA
ATOM     17  O1S SGN d 502       4.950  25.752 -20.380  0.00  0.00    -0.296 OA
ATOM     18  O5S SGN d 502      10.185  20.221 -20.397  0.00  0.00    -0.572 OA
ATOM     19  O6  SGN d 502       8.281  20.006 -18.992  0.00  0.00    -0.254 OA
ATOM     20  H   SGN d 502       4.096  24.072 -17.377  0.00  0.00     0.210 HD
ATOM     21  H   SGN d 502       8.498  24.800 -18.842  0.00  0.00     0.131 H 
ATOM     22  H   SGN d 502       6.270  23.872 -19.325  0.00  0.00     0.076 H 
ATOM     23  H   SGN d 502       8.446  19.771 -16.973  0.00  0.00     0.080 H 
ATOM     24  H   SGN d 502       9.746  20.657 -17.730  0.00  0.00     0.080 H 
ATOM     25  H   SGN d 502       8.068  22.017 -16.385  0.00  0.00     0.090 H 
ATOM     26  H   SGN d 502       7.452  26.015 -20.285  0.00  0.00     0.231 HD
ATOM     27  H   SGN d 502       6.719  26.036 -17.566  0.00  0.00     0.140 HD
ATOM     28  H   SGN d 502       6.053  23.470 -16.342  0.00  0.00     0.089 H 
ATOM     29  H   SGN d 502       6.290  21.413 -18.650  0.00  0.00     0.091 H 
ATOM     30  H   SGN d 502       5.608  28.118 -18.301  0.00  0.00     0.231 HD
ATOM     31  H   SGN d 502       5.462  24.987 -20.686  0.00  0.00     0.231 HD
ATOM     32  O62 IDS d 503       0.915  21.576 -17.778  0.00  0.00    -0.646 OA
ATOM     33  O2  IDS d 503       5.116  17.444 -16.512  0.00  0.00    -0.244 OA
ATOM     34  O5  IDS d 503       3.979  19.889 -17.928  0.00  0.00    -0.340 OA
ATOM     35  C5  IDS d 503       2.850  20.333 -17.162  0.00  0.00     0.152 C 
ATOM     36  C4  IDS d 503       2.461  19.226 -16.155  0.00  0.00     0.103 C 
ATOM     37  O61 IDS d 503       1.643  20.290 -19.231  0.00  0.00    -0.646 OA
ATOM     38  O1  IDS d 503       5.689  20.962 -16.734  0.00  0.00    -0.348 OA
ATOM     39  C6  IDS d 503       1.737  20.756 -18.116  0.00  0.00     0.206 C 
ATOM     40  O1S IDS d 503       6.533  16.139 -15.082  0.00  0.00    -0.572 OA
ATOM     41  O3S IDS d 503       7.460  17.208 -17.006  0.00  0.00    -0.572 OA
ATOM     42  C3  IDS d 503       3.676  18.907 -15.242  0.00  0.00     0.094 C 
ATOM     43  O2S IDS d 503       5.980  15.363 -17.277  0.00  0.00    -0.572 OA
ATOM     44  S   IDS d 503       6.350  16.484 -16.460  0.00  0.00     0.252 S 
ATOM     45  O3  IDS d 503       3.804  19.954 -14.297  0.00  0.00    -0.390 OA
ATOM     46  C1  IDS d 503       5.199  19.738 -17.212  0.00  0.00     0.161 C 
ATOM     47  C2  IDS d 503       5.018  18.765 -16.015  0.00  0.00     0.134 C 
ATOM     48  H   IDS d 503       3.075  21.199 -16.574  0.00  0.00     0.104 H 
ATOM     49  H   IDS d 503       1.621  19.613 -15.616  0.00  0.00     0.092 H 
ATOM     50  H   IDS d 503       3.487  17.962 -14.778  0.00  0.00     0.091 H 
ATOM     51  H   IDS d 503       3.974  20.789 -14.760  0.00  0.00     0.210 HD
ATOM     52  H   IDS d 503       5.910  19.338 -17.904  0.00  0.00     0.133 H 
ATOM     53  H   IDS d 503       5.784  19.009 -15.308  0.00  0.00     0.097 H 
ATOM     54  C4  IDS d 505      -3.071  14.173 -22.704  0.00  0.00    -0.005 C 
ATOM     55  C5  IDS d 505      -2.391  13.634 -21.402  0.00  0.00     0.127 C 
ATOM     56  O2  IDS d 505      -2.494  17.801 -21.826  0.00  0.00    -0.388 OA
ATOM     57  O62 IDS d 505      -3.664  12.027 -20.151  0.00  0.00    -0.646 OA
ATOM     58  C1  IDS d 505      -2.164  15.878 -20.404  0.00  0.00     0.159 C 
ATOM     59  O5  IDS d 505      -2.660  14.533 -20.300  0.00  0.00    -0.343 OA
ATOM     60  O1  IDS d 505      -0.838  15.973 -19.962  0.00  0.00    -0.348 OA
ATOM     61  O61 IDS d 505      -2.412  11.262 -21.617  0.00  0.00    -0.646 OA
ATOM     62  C6  IDS d 505      -2.850  12.225 -21.030  0.00  0.00     0.203 C 
ATOM     63  C3  IDS d 505      -3.323  15.702 -22.647  0.00  0.00     0.068 C 
ATOM     64  C2  IDS d 505      -2.214  16.414 -21.858  0.00  0.00     0.107 C 
ATOM     65  H   IDS d 505      -2.435  13.959 -23.538  0.00  0.00     0.041 H 
ATOM     66  H   IDS d 505      -4.020  13.688 -22.802  0.00  0.00     0.041 H 
ATOM     67  H   IDS d 505      -1.340  13.586 -21.598  0.00  0.00     0.100 H 
ATOM     68  H   IDS d 505      -1.798  18.260 -21.330  0.00  0.00     0.210 HD
ATOM     69  H   IDS d 505      -2.806  16.468 -19.782  0.00  0.00     0.133 H 
ATOM     70  H   IDS d 505      -4.254  15.887 -22.153  0.00  0.00     0.087 H 
ATOM     71  H   IDS d 505      -1.271  16.232 -22.332  0.00  0.00     0.094 H 
ATOM     72  O4S SGN d 504      -4.999  17.894 -16.654  0.00  0.00    -0.572 OA
ATOM     73  C2  SGN d 504       0.880  15.851 -16.692  0.00  0.00     0.081 C 
ATOM     74  O2S SGN d 504       2.743  13.229 -14.900  0.00  0.00    -0.296 OA
ATOM     75  C5  SGN d 504      -0.528  17.921 -18.177  0.00  0.00     0.091 C 
ATOM     76  O3S SGN d 504       3.056  15.401 -13.967  0.00  0.00    -0.296 OA
ATOM     77  N   SGN d 504       2.119  15.210 -16.217  0.00  0.00    -0.210 NA
ATOM     78  O1S SGN d 504       0.865  14.507 -14.155  0.00  0.00    -0.296 OA
ATOM     79  S1  SGN d 504       2.184  14.538 -14.715  0.00  0.00     0.156 S 
ATOM     80  C4  SGN d 504      -0.613  16.421 -18.620  0.00  0.00     0.095 C 
ATOM     81  O1  SGN d 504       2.077  17.991 -16.767  0.00  0.00    -0.348 OA
ATOM     82  O6S SGN d 504      -4.832  19.248 -18.618  0.00  0.00    -0.572 OA
ATOM     83  O6  SGN d 504      -2.869  18.194 -17.733  0.00  0.00    -0.254 OA
ATOM     84  O5S SGN d 504      -3.878  20.003 -16.564  0.00  0.00    -0.572 OA
ATOM     85  O3  SGN d 504       0.679  14.375 -18.598  0.00  0.00    -0.391 OA
ATOM     86  O5  SGN d 504      -0.253  18.026 -16.753  0.00  0.00    -0.349 OA
ATOM     87  C6  SGN d 504      -1.789  18.754 -18.452  0.00  0.00     0.067 C 
ATOM     88  S2  SGN d 504      -4.232  18.868 -17.372  0.00  0.00     0.251 S 
ATOM     89  C3  SGN d 504       0.721  15.739 -18.225  0.00  0.00     0.083 C 
ATOM     90  C1  SGN d 504       0.916  17.350 -16.283  0.00  0.00     0.150 C 
ATOM     91  H   SGN d 504       0.046  15.351 -16.246  0.00  0.00     0.076 H 
ATOM     92  H   SGN d 504       3.633  13.308 -15.280  0.00  0.00     0.231 HD
ATOM     93  H   SGN d 504       0.266  18.318 -18.775  0.00  0.00     0.090 H 
ATOM     94  H   SGN d 504       3.937  15.399 -14.371  0.00  0.00     0.231 HD
ATOM     95  H   SGN d 504       2.849  15.923 -16.251  0.00  0.00     0.140 HD
ATOM     96  H   SGN d 504       0.899  14.111 -13.270  0.00  0.00     0.231 HD
ATOM     97  H   SGN d 504      -1.534  16.172 -18.135  0.00  0.00     0.091 H 
ATOM     98  H   SGN d 504       1.514  13.946 -18.351  0.00  0.00     0.210 HD
ATOM     99  H   SGN d 504      -2.008  18.740 -19.499  0.00  0.00     0.080 H 
ATOM    100  H   SGN d 504      -1.631  19.766 -18.142  0.00  0.00     0.080 H 
ATOM    101  H   SGN d 504       1.544  16.211 -18.719  0.00  0.00     0.089 H 
ATOM    102  H   SGN d 504       0.936  17.392 -15.214  0.00  0.00     0.131 H 
ATOM    103  C1  IDS d 501      12.172  26.563 -15.680  0.00  0.00     0.156 C 
ATOM    104  O3  IDS d 501      11.646  23.868 -17.260  0.00  0.00    -0.390 OA
ATOM    105  C2  IDS d 501      11.986  26.262 -17.193  0.00  0.00     0.110 C 
ATOM    106  C4  IDS d 501       9.717  25.150 -16.606  0.00  0.00     0.103 C 
ATOM    107  C6  IDS d 501       8.959  25.454 -14.140  0.00  0.00     0.206 C 
ATOM    108  C3  IDS d 501      10.996  25.102 -17.492  0.00  0.00     0.092 C 
ATOM    109  O5  IDS d 501      10.904  26.585 -15.025  0.00  0.00    -0.340 OA
ATOM    110  O2  IDS d 501      11.502  27.438 -17.816  0.00  0.00    -0.388 OA
ATOM    111  C5  IDS d 501      10.125  25.380 -15.125  0.00  0.00     0.152 C 
ATOM    112  O62 IDS d 501       8.644  24.488 -13.485  0.00  0.00    -0.646 OA
ATOM    113  O61 IDS d 501       8.320  26.472 -13.990  0.00  0.00    -0.646 OA
ATOM    114  O1  IDS d 501      13.037  25.606 -15.129  0.00  0.00    -0.368 OA
ATOM    115  H   IDS d 501      12.611  27.530 -15.543  0.00  0.00     0.133 H 
ATOM    116  H   IDS d 501      12.448  23.818 -17.804  0.00  0.00     0.210 HD
ATOM    117  H   IDS d 501      12.939  25.956 -17.571  0.00  0.00     0.094 H 
ATOM    118  H   IDS d 501       9.246  25.801 -17.312  0.00  0.00     0.092 H 
ATOM    119  H   IDS d 501      10.693  25.208 -18.512  0.00  0.00     0.091 H 
ATOM    120  H   IDS d 501      10.640  27.673 -17.439  0.00  0.00     0.210 HD
ATOM    121  H   IDS d 501      10.691  24.516 -14.845  0.00  0.00     0.104 H 
ATOM    122  H   IDS d 501      12.655  24.721 -15.243  0.00  0.00     0.212 HD
ATOM    123  O3  IDS d 535      -3.354  16.199 -23.970  0.00  0.00    -0.393 OA
ATOM    124  H   IDS d 535      -4.054  15.749 -24.468  0.00  0.00     0.210 HD
ENDROOT
TORSDOF 37
ENDMDL
MODEL 47
REMARK VINA RESULT:      -5.6      5.400      8.040
REMARK  0 active torsions:
REMARK  status: ('A' for Active; 'I' for Inactive)
REMARK       I    between atoms: O3_1  and  C3_48 
REMARK       I    between atoms: C1_2  and  O1_8 
REMARK       I    between atoms: O2_5  and  C2_76 
REMARK       I    between atoms: O2_5  and  S_66 
REMARK       I    between atoms: C2_7  and  N_46 
REMARK       I    between atoms: O1_8  and  C4_39 
REMARK       I    between atoms: C2_12  and  N_23 
REMARK       I    between atoms: O2S_13  and  S1_25 
REMARK       I    between atoms: C1_14  and  O1_65 
REMARK       I    between atoms: O3_15  and  C3_69 
REMARK       I    between atoms: C5_16  and  C6_31 
REMARK       I    between atoms: C5_17  and  C6_68 
REMARK       I    between atoms: C5_18  and  C6_71 
REMARK       I    between atoms: O3S_19  and  S1_25 
REMARK       I    between atoms: C6_20  and  C5_28 
REMARK       I    between atoms: C6_20  and  O6_74 
REMARK       I    between atoms: C4_21  and  O1_35 
REMARK       I    between atoms: S2_22  and  O6_74 
REMARK       I    between atoms: N_23  and  S1_25 
REMARK       I    between atoms: O1S_24  and  S1_25 
REMARK       I    between atoms: C4_27  and  O1_63 
REMARK       I    between atoms: O1_29  and  C4_49 
REMARK       I    between atoms: O1_29  and  C1_73 
REMARK       I    between atoms: O2_30  and  C2_78 
REMARK       I    between atoms: O3_33  and  C3_42 
REMARK       I    between atoms: O1_35  and  C1_77 
REMARK       I    between atoms: O3S_37  and  S1_50 
REMARK       I    between atoms: C2_38  and  O2_45 
REMARK       I    between atoms: C6_40  and  C5_51 
REMARK       I    between atoms: C3_41  and  O3_67 
REMARK       I    between atoms: N_46  and  S1_50 
REMARK       I    between atoms: O6_47  and  C6_71 
REMARK       I    between atoms: O6_47  and  S2_72 
REMARK       I    between atoms: S1_50  and  O1S_61 
REMARK       I    between atoms: S1_50  and  O2S_54 
REMARK       I    between atoms: O3_56  and  C3_75 
REMARK       I    between atoms: C1_58  and  O1_63 
ROOT
ATOM      1  O3  SGN d 502       6.429  21.357 -20.261  0.00  0.00    -0.391 OA
ATOM      2  C1  SGN d 502       5.496  23.681 -17.443  0.00  0.00     0.150 C 
ATOM      3  O6S SGN d 502       9.676  20.832 -13.492  0.00  0.00    -0.572 OA
ATOM      4  C2  SGN d 502       6.006  23.271 -18.851  0.00  0.00     0.081 C 
ATOM      5  O1  SGN d 502       4.125  23.374 -17.290  0.00  0.00    -0.348 OA
ATOM      6  O5  SGN d 502       6.266  23.032 -16.422  0.00  0.00    -0.349 OA
ATOM      7  C6  SGN d 502       7.173  21.103 -15.296  0.00  0.00     0.067 C 
ATOM      8  S2  SGN d 502       9.612  21.860 -14.490  0.00  0.00     0.251 S 
ATOM      9  C5  SGN d 502       6.338  21.583 -16.499  0.00  0.00     0.091 C 
ATOM     10  O3S SGN d 502       5.654  26.307 -19.589  0.00  0.00    -0.296 OA
ATOM     11  N   SGN d 502       5.170  23.933 -19.863  0.00  0.00    -0.210 NA
ATOM     12  C3  SGN d 502       5.955  21.737 -18.983  0.00  0.00     0.083 C 
ATOM     13  C4  SGN d 502       6.876  21.135 -17.896  0.00  0.00     0.095 C 
ATOM     14  S1  SGN d 502       5.718  25.291 -20.601  0.00  0.00     0.156 S 
ATOM     15  O2S SGN d 502       4.809  25.540 -21.683  0.00  0.00    -0.296 OA
ATOM     16  O4S SGN d 502      10.843  22.024 -15.201  0.00  0.00    -0.572 OA
ATOM     17  O1S SGN d 502       7.061  25.064 -21.040  0.00  0.00    -0.296 OA
ATOM     18  O5S SGN d 502       9.100  23.096 -13.971  0.00  0.00    -0.572 OA
ATOM     19  O6  SGN d 502       8.539  21.392 -15.529  0.00  0.00    -0.254 OA
ATOM     20  H   SGN d 502       5.852  21.733 -20.944  0.00  0.00     0.210 HD
ATOM     21  H   SGN d 502       5.614  24.740 -17.344  0.00  0.00     0.131 H 
ATOM     22  H   SGN d 502       7.021  23.578 -18.996  0.00  0.00     0.076 H 
ATOM     23  H   SGN d 502       7.048  20.047 -15.172  0.00  0.00     0.080 H 
ATOM     24  H   SGN d 502       6.845  21.605 -14.410  0.00  0.00     0.080 H 
ATOM     25  H   SGN d 502       5.375  21.124 -16.429  0.00  0.00     0.090 H 
ATOM     26  H   SGN d 502       6.282  26.098 -18.880  0.00  0.00     0.231 HD
ATOM     27  H   SGN d 502       4.291  24.177 -19.407  0.00  0.00     0.140 HD
ATOM     28  H   SGN d 502       4.952  21.385 -18.863  0.00  0.00     0.089 H 
ATOM     29  H   SGN d 502       7.900  21.446 -17.905  0.00  0.00     0.091 H 
ATOM     30  H   SGN d 502       3.918  25.685 -21.330  0.00  0.00     0.231 HD
ATOM     31  H   SGN d 502       7.629  24.902 -20.270  0.00  0.00     0.231 HD
ATOM     32  O62 IDS d 503       8.308  19.076 -22.794  0.00  0.00    -0.646 OA
ATOM     33  O2  IDS d 503       8.760  16.926 -17.182  0.00  0.00    -0.244 OA
ATOM     34  O5  IDS d 503       8.719  19.097 -19.317  0.00  0.00    -0.340 OA
ATOM     35  C5  IDS d 503       8.110  18.528 -20.485  0.00  0.00     0.152 C 
ATOM     36  C4  IDS d 503       8.040  16.993 -20.318  0.00  0.00     0.103 C 
ATOM     37  O61 IDS d 503      10.032  19.332 -21.671  0.00  0.00    -0.646 OA
ATOM     38  O1  IDS d 503       6.783  19.736 -18.157  0.00  0.00    -0.348 OA
ATOM     39  C6  IDS d 503       8.864  19.007 -21.722  0.00  0.00     0.206 C 
ATOM     40  O1S IDS d 503       8.072  15.646 -15.273  0.00  0.00    -0.572 OA
ATOM     41  O3S IDS d 503       8.766  17.913 -14.987  0.00  0.00    -0.572 OA
ATOM     42  C3  IDS d 503       7.236  16.649 -19.034  0.00  0.00     0.094 C 
ATOM     43  O2S IDS d 503      10.368  16.250 -15.564  0.00  0.00    -0.572 OA
ATOM     44  S   IDS d 503       8.999  16.668 -15.657  0.00  0.00     0.252 S 
ATOM     45  O3  IDS d 503       5.861  16.849 -19.308  0.00  0.00    -0.390 OA
ATOM     46  C1  IDS d 503       7.972  18.994 -18.111  0.00  0.00     0.161 C 
ATOM     47  C2  IDS d 503       7.630  17.511 -17.800  0.00  0.00     0.134 C 
ATOM     48  H   IDS d 503       7.100  18.856 -20.615  0.00  0.00     0.104 H 
ATOM     49  H   IDS d 503       7.579  16.629 -21.212  0.00  0.00     0.092 H 
ATOM     50  H   IDS d 503       7.457  15.633 -18.782  0.00  0.00     0.091 H 
ATOM     51  H   IDS d 503       5.708  17.781 -19.531  0.00  0.00     0.210 HD
ATOM     52  H   IDS d 503       8.590  19.396 -17.336  0.00  0.00     0.133 H 
ATOM     53  H   IDS d 503       6.764  17.526 -17.172  0.00  0.00     0.097 H 
ATOM     54  C4  IDS d 505      17.328  15.467 -23.547  0.00  0.00    -0.005 C 
ATOM     55  C5  IDS d 505      16.463  14.537 -22.635  0.00  0.00     0.127 C 
ATOM     56  O2  IDS d 505      14.422  17.681 -24.506  0.00  0.00    -0.388 OA
ATOM     57  O62 IDS d 505      16.684  12.180 -23.043  0.00  0.00    -0.646 OA
ATOM     58  C1  IDS d 505      14.335  15.579 -23.322  0.00  0.00     0.159 C 
ATOM     59  O5  IDS d 505      15.137  14.392 -23.198  0.00  0.00    -0.343 OA
ATOM     60  O1  IDS d 505      13.639  15.855 -22.137  0.00  0.00    -0.348 OA
ATOM     61  O61 IDS d 505      18.002  12.998 -21.665  0.00  0.00    -0.646 OA
ATOM     62  C6  IDS d 505      17.083  13.154 -22.437  0.00  0.00     0.203 C 
ATOM     63  C3  IDS d 505      16.460  16.413 -24.417  0.00  0.00     0.068 C 
ATOM     64  C2  IDS d 505      15.183  16.829 -23.670  0.00  0.00     0.107 C 
ATOM     65  H   IDS d 505      17.967  16.060 -22.926  0.00  0.00     0.041 H 
ATOM     66  H   IDS d 505      17.895  14.843 -24.207  0.00  0.00     0.041 H 
ATOM     67  H   IDS d 505      16.413  15.004 -21.674  0.00  0.00     0.100 H 
ATOM     68  H   IDS d 505      13.613  17.949 -24.043  0.00  0.00     0.210 HD
ATOM     69  H   IDS d 505      13.649  15.377 -24.118  0.00  0.00     0.133 H 
ATOM     70  H   IDS d 505      16.170  15.901 -25.311  0.00  0.00     0.087 H 
ATOM     71  H   IDS d 505      15.453  17.335 -22.766  0.00  0.00     0.094 H 
ATOM     72  O4S SGN d 504      10.850  13.661 -26.536  0.00  0.00    -0.572 OA
ATOM     73  C2  SGN d 504      10.755  14.384 -20.356  0.00  0.00     0.081 C 
ATOM     74  O2S SGN d 504      10.441  12.121 -17.468  0.00  0.00    -0.296 OA
ATOM     75  C5  SGN d 504      11.044  16.237 -22.582  0.00  0.00     0.091 C 
ATOM     76  O3S SGN d 504       8.387  13.184 -18.050  0.00  0.00    -0.296 OA
ATOM     77  N   SGN d 504      10.476  14.092 -18.938  0.00  0.00    -0.210 NA
ATOM     78  O1S SGN d 504       9.534  11.878 -19.666  0.00  0.00    -0.296 OA
ATOM     79  S1  SGN d 504       9.666  12.722 -18.515  0.00  0.00     0.156 S 
ATOM     80  C4  SGN d 504      12.275  15.426 -22.050  0.00  0.00     0.095 C 
ATOM     81  O1  SGN d 504       9.318  16.363 -20.177  0.00  0.00    -0.348 OA
ATOM     82  O6S SGN d 504      11.580  15.877 -27.061  0.00  0.00    -0.572 OA
ATOM     83  O6  SGN d 504      11.056  15.307 -24.793  0.00  0.00    -0.254 OA
ATOM     84  O5S SGN d 504       9.318  15.491 -26.405  0.00  0.00    -0.572 OA
ATOM     85  O3  SGN d 504      13.150  14.447 -20.017  0.00  0.00    -0.391 OA
ATOM     86  O5  SGN d 504       9.802  15.535 -22.301  0.00  0.00    -0.349 OA
ATOM     87  C6  SGN d 504      11.061  16.532 -24.089  0.00  0.00     0.067 C 
ATOM     88  S2  SGN d 504      10.686  15.063 -26.291  0.00  0.00     0.251 S 
ATOM     89  C3  SGN d 504      12.062  15.189 -20.534  0.00  0.00     0.083 C 
ATOM     90  C1  SGN d 504       9.563  15.196 -20.933  0.00  0.00     0.150 C 
ATOM     91  H   SGN d 504      10.877  13.457 -20.875  0.00  0.00     0.076 H 
ATOM     92  H   SGN d 504      10.498  12.732 -16.716  0.00  0.00     0.231 HD
ATOM     93  H   SGN d 504      11.111  17.170 -22.062  0.00  0.00     0.090 H 
ATOM     94  H   SGN d 504       8.511  13.750 -17.273  0.00  0.00     0.231 HD
ATOM     95  H   SGN d 504       9.931  14.877 -18.579  0.00  0.00     0.140 HD
ATOM     96  H   SGN d 504       9.058  11.069 -19.422  0.00  0.00     0.231 HD
ATOM     97  H   SGN d 504      12.241  14.620 -22.753  0.00  0.00     0.091 H 
ATOM     98  H   SGN d 504      13.018  14.297 -19.068  0.00  0.00     0.210 HD
ATOM     99  H   SGN d 504      11.942  17.086 -24.338  0.00  0.00     0.080 H 
ATOM    100  H   SGN d 504      10.200  17.108 -24.356  0.00  0.00     0.080 H 
ATOM    101  H   SGN d 504      11.997  16.122 -20.014  0.00  0.00     0.089 H 
ATOM    102  H   SGN d 504       8.692  14.577 -20.874  0.00  0.00     0.131 H 
ATOM    103  C1  IDS d 501       1.297  25.365 -14.592  0.00  0.00     0.156 C 
ATOM    104  O3  IDS d 501       4.207  24.256 -14.017  0.00  0.00    -0.390 OA
ATOM    105  C2  IDS d 501       2.702  26.016 -14.714  0.00  0.00     0.110 C 
ATOM    106  C4  IDS d 501       3.382  24.053 -16.268  0.00  0.00     0.103 C 
ATOM    107  C6  IDS d 501       1.433  22.477 -16.950  0.00  0.00     0.206 C 
ATOM    108  C3  IDS d 501       3.824  25.028 -15.138  0.00  0.00     0.092 C 
ATOM    109  O5  IDS d 501       1.049  24.519 -15.713  0.00  0.00    -0.340 OA
ATOM    110  O2  IDS d 501       2.623  27.048 -15.681  0.00  0.00    -0.388 OA
ATOM    111  C5  IDS d 501       1.994  23.453 -15.917  0.00  0.00     0.152 C 
ATOM    112  O62 IDS d 501       1.543  21.284 -16.793  0.00  0.00    -0.646 OA
ATOM    113  O61 IDS d 501       0.870  22.867 -17.949  0.00  0.00    -0.646 OA
ATOM    114  O1  IDS d 501       1.222  24.669 -13.376  0.00  0.00    -0.368 OA
ATOM    115  H   IDS d 501       0.535  26.118 -14.594  0.00  0.00     0.133 H 
ATOM    116  H   IDS d 501       4.487  24.845 -13.299  0.00  0.00     0.210 HD
ATOM    117  H   IDS d 501       2.965  26.379 -13.743  0.00  0.00     0.094 H 
ATOM    118  H   IDS d 501       3.667  24.773 -17.007  0.00  0.00     0.092 H 
ATOM    119  H   IDS d 501       4.634  25.618 -15.512  0.00  0.00     0.091 H 
ATOM    120  H   IDS d 501       2.382  26.668 -16.540  0.00  0.00     0.210 HD
ATOM    121  H   IDS d 501       2.145  22.881 -15.025  0.00  0.00     0.104 H 
ATOM    122  H   IDS d 501       1.906  23.981 -13.355  0.00  0.00     0.212 HD
ATOM    123  O3  IDS d 535      17.222  17.562 -24.724  0.00  0.00    -0.393 OA
ATOM    124  H   IDS d 535      18.028  17.298 -25.196  0.00  0.00     0.210 HD
ENDROOT
TORSDOF 37
ENDMDL
MODEL 48
REMARK VINA RESULT:      -5.6      4.383      6.277
REMARK  0 active torsions:
REMARK  status: ('A' for Active; 'I' for Inactive)
REMARK       I    between atoms: O3_1  and  C3_48 
REMARK       I    between atoms: C1_2  and  O1_8 
REMARK       I    between atoms: O2_5  and  C2_76 
REMARK       I    between atoms: O2_5  and  S_66 
REMARK       I    between atoms: C2_7  and  N_46 
REMARK       I    between atoms: O1_8  and  C4_39 
REMARK       I    between atoms: C2_12  and  N_23 
REMARK       I    between atoms: O2S_13  and  S1_25 
REMARK       I    between atoms: C1_14  and  O1_65 
REMARK       I    between atoms: O3_15  and  C3_69 
REMARK       I    between atoms: C5_16  and  C6_31 
REMARK       I    between atoms: C5_17  and  C6_68 
REMARK       I    between atoms: C5_18  and  C6_71 
REMARK       I    between atoms: O3S_19  and  S1_25 
REMARK       I    between atoms: C6_20  and  C5_28 
REMARK       I    between atoms: C6_20  and  O6_74 
REMARK       I    between atoms: C4_21  and  O1_35 
REMARK       I    between atoms: S2_22  and  O6_74 
REMARK       I    between atoms: N_23  and  S1_25 
REMARK       I    between atoms: O1S_24  and  S1_25 
REMARK       I    between atoms: C4_27  and  O1_63 
REMARK       I    between atoms: O1_29  and  C4_49 
REMARK       I    between atoms: O1_29  and  C1_73 
REMARK       I    between atoms: O2_30  and  C2_78 
REMARK       I    between atoms: O3_33  and  C3_42 
REMARK       I    between atoms: O1_35  and  C1_77 
REMARK       I    between atoms: O3S_37  and  S1_50 
REMARK       I    between atoms: C2_38  and  O2_45 
REMARK       I    between atoms: C6_40  and  C5_51 
REMARK       I    between atoms: C3_41  and  O3_67 
REMARK       I    between atoms: N_46  and  S1_50 
REMARK       I    between atoms: O6_47  and  C6_71 
REMARK       I    between atoms: O6_47  and  S2_72 
REMARK       I    between atoms: S1_50  and  O1S_61 
REMARK       I    between atoms: S1_50  and  O2S_54 
REMARK       I    between atoms: O3_56  and  C3_75 
REMARK       I    between atoms: C1_58  and  O1_63 
ROOT
ATOM      1  O3  SGN d 502       0.265  19.789 -19.830  0.00  0.00    -0.391 OA
ATOM      2  C1  SGN d 502      -1.272  16.468 -18.923  0.00  0.00     0.150 C 
ATOM      3  O6S SGN d 502       4.080  14.637 -15.889  0.00  0.00    -0.572 OA
ATOM      4  C2  SGN d 502      -1.133  18.014 -18.979  0.00  0.00     0.081 C 
ATOM      5  O1  SGN d 502      -1.522  15.933 -20.207  0.00  0.00    -0.348 OA
ATOM      6  O5  SGN d 502      -0.090  15.879 -18.362  0.00  0.00    -0.349 OA
ATOM      7  C6  SGN d 502       2.281  15.456 -18.274  0.00  0.00     0.067 C 
ATOM      8  S2  SGN d 502       2.869  15.369 -15.663  0.00  0.00     0.251 S 
ATOM      9  C5  SGN d 502       1.164  16.221 -19.009  0.00  0.00     0.091 C 
ATOM     10  O3S SGN d 502      -4.115  18.068 -17.983  0.00  0.00    -0.296 OA
ATOM     11  N   SGN d 502      -2.350  18.571 -19.589  0.00  0.00    -0.210 NA
ATOM     12  C3  SGN d 502       0.128  18.381 -19.784  0.00  0.00     0.083 C 
ATOM     13  C4  SGN d 502       1.350  17.773 -19.058  0.00  0.00     0.095 C 
ATOM     14  S1  SGN d 502      -3.518  19.203 -18.627  0.00  0.00     0.156 S 
ATOM     15  O2S SGN d 502      -4.429  19.872 -19.511  0.00  0.00    -0.296 OA
ATOM     16  O4S SGN d 502       3.017  16.402 -14.683  0.00  0.00    -0.572 OA
ATOM     17  O1S SGN d 502      -2.905  20.087 -17.682  0.00  0.00    -0.296 OA
ATOM     18  O5S SGN d 502       1.750  14.508 -15.399  0.00  0.00    -0.572 OA
ATOM     19  O6  SGN d 502       2.520  16.066 -17.020  0.00  0.00    -0.254 OA
ATOM     20  H   SGN d 502      -0.500  20.173 -20.285  0.00  0.00     0.210 HD
ATOM     21  H   SGN d 502      -2.106  16.234 -18.296  0.00  0.00     0.131 H 
ATOM     22  H   SGN d 502      -1.027  18.426 -17.998  0.00  0.00     0.076 H 
ATOM     23  H   SGN d 502       3.177  15.480 -18.859  0.00  0.00     0.080 H 
ATOM     24  H   SGN d 502       1.982  14.439 -18.127  0.00  0.00     0.080 H 
ATOM     25  H   SGN d 502       1.188  15.922 -20.035  0.00  0.00     0.090 H 
ATOM     26  H   SGN d 502      -3.465  17.648 -17.399  0.00  0.00     0.231 HD
ATOM     27  H   SGN d 502      -2.783  17.820 -20.126  0.00  0.00     0.140 HD
ATOM     28  H   SGN d 502       0.057  18.004 -20.783  0.00  0.00     0.089 H 
ATOM     29  H   SGN d 502       1.498  18.060 -18.038  0.00  0.00     0.091 H 
ATOM     30  H   SGN d 502      -4.813  19.229 -20.127  0.00  0.00     0.231 HD
ATOM     31  H   SGN d 502      -2.302  19.583 -17.113  0.00  0.00     0.231 HD
ATOM     32  O62 IDS d 503       2.236  23.145 -19.850  0.00  0.00    -0.646 OA
ATOM     33  O2  IDS d 503       5.962  18.438 -19.313  0.00  0.00    -0.244 OA
ATOM     34  O5  IDS d 503       3.432  20.041 -18.759  0.00  0.00    -0.340 OA
ATOM     35  C5  IDS d 503       3.322  21.027 -19.795  0.00  0.00     0.152 C 
ATOM     36  C4  IDS d 503       4.667  21.110 -20.554  0.00  0.00     0.103 C 
ATOM     37  O61 IDS d 503       3.059  22.617 -18.022  0.00  0.00    -0.646 OA
ATOM     38  O1  IDS d 503       2.439  18.224 -19.861  0.00  0.00    -0.348 OA
ATOM     39  C6  IDS d 503       2.846  22.341 -19.183  0.00  0.00     0.206 C 
ATOM     40  O1S IDS d 503       7.357  16.657 -20.110  0.00  0.00    -0.572 OA
ATOM     41  O3S IDS d 503       5.774  16.229 -18.375  0.00  0.00    -0.572 OA
ATOM     42  C3  IDS d 503       5.020  19.713 -21.134  0.00  0.00     0.094 C 
ATOM     43  O2S IDS d 503       7.688  17.570 -17.924  0.00  0.00    -0.572 OA
ATOM     44  S   IDS d 503       6.740  17.141 -18.912  0.00  0.00     0.252 S 
ATOM     45  O3  IDS d 503       4.203  19.488 -22.268  0.00  0.00    -0.390 OA
ATOM     46  C1  IDS d 503       3.578  18.693 -19.191  0.00  0.00     0.161 C 
ATOM     47  C2  IDS d 503       4.810  18.547 -20.127  0.00  0.00     0.134 C 
ATOM     48  H   IDS d 503       2.588  20.764 -20.528  0.00  0.00     0.104 H 
ATOM     49  H   IDS d 503       4.523  21.854 -21.309  0.00  0.00     0.092 H 
ATOM     50  H   IDS d 503       6.062  19.724 -21.378  0.00  0.00     0.091 H 
ATOM     51  H   IDS d 503       3.271  19.486 -22.001  0.00  0.00     0.210 HD
ATOM     52  H   IDS d 503       3.718  18.104 -18.309  0.00  0.00     0.133 H 
ATOM     53  H   IDS d 503       4.632  17.678 -20.727  0.00  0.00     0.097 H 
ATOM     54  C4  IDS d 505       8.808  27.391 -14.040  0.00  0.00    -0.005 C 
ATOM     55  C5  IDS d 505       9.530  26.420 -15.031  0.00  0.00     0.127 C 
ATOM     56  O2  IDS d 505       5.423  26.962 -15.662  0.00  0.00    -0.388 OA
ATOM     57  O62 IDS d 505      11.528  27.273 -16.055  0.00  0.00    -0.646 OA
ATOM     58  C1  IDS d 505       7.555  26.190 -16.492  0.00  0.00     0.159 C 
ATOM     59  O5  IDS d 505       8.943  26.538 -16.349  0.00  0.00    -0.343 OA
ATOM     60  O1  IDS d 505       7.389  24.815 -16.705  0.00  0.00    -0.348 OA
ATOM     61  O61 IDS d 505      11.776  26.281 -14.251  0.00  0.00    -0.646 OA
ATOM     62  C6  IDS d 505      11.034  26.673 -15.122  0.00  0.00     0.203 C 
ATOM     63  C3  IDS d 505       7.376  27.757 -14.512  0.00  0.00     0.068 C 
ATOM     64  C2  IDS d 505       6.720  26.577 -15.244  0.00  0.00     0.107 C 
ATOM     65  H   IDS d 505       8.745  26.920 -13.081  0.00  0.00     0.041 H 
ATOM     66  H   IDS d 505       9.378  28.295 -13.994  0.00  0.00     0.041 H 
ATOM     67  H   IDS d 505       9.396  25.430 -14.648  0.00  0.00     0.100 H 
ATOM     68  H   IDS d 505       5.001  26.223 -16.126  0.00  0.00     0.210 HD
ATOM     69  H   IDS d 505       7.209  26.742 -17.341  0.00  0.00     0.133 H 
ATOM     70  H   IDS d 505       7.429  28.582 -15.191  0.00  0.00     0.087 H 
ATOM     71  H   IDS d 505       6.666  25.736 -14.583  0.00  0.00     0.094 H 
ATOM     72  O4S SGN d 504       6.816  28.376 -21.056  0.00  0.00    -0.572 OA
ATOM     73  C2  SGN d 504       8.013  22.472 -19.493  0.00  0.00     0.081 C 
ATOM     74  O2S SGN d 504      10.703  20.069 -20.237  0.00  0.00    -0.296 OA
ATOM     75  C5  SGN d 504       5.866  24.321 -18.829  0.00  0.00     0.091 C 
ATOM     76  O3S SGN d 504       8.773  19.763 -21.602  0.00  0.00    -0.296 OA
ATOM     77  N   SGN d 504       8.577  21.112 -19.573  0.00  0.00    -0.210 NA
ATOM     78  O1S SGN d 504       9.880  21.862 -21.587  0.00  0.00    -0.296 OA
ATOM     79  S1  SGN d 504       9.553  20.690 -20.830  0.00  0.00     0.156 S 
ATOM     80  C4  SGN d 504       7.227  24.364 -18.055  0.00  0.00     0.095 C 
ATOM     81  O1  SGN d 504       5.774  21.502 -19.735  0.00  0.00    -0.348 OA
ATOM     82  O6S SGN d 504       5.048  28.724 -19.485  0.00  0.00    -0.572 OA
ATOM     83  O6  SGN d 504       6.007  26.540 -19.728  0.00  0.00    -0.254 OA
ATOM     84  O5S SGN d 504       4.653  27.444 -21.461  0.00  0.00    -0.572 OA
ATOM     85  O3  SGN d 504       9.040  22.925 -17.350  0.00  0.00    -0.391 OA
ATOM     86  O5  SGN d 504       6.047  23.776 -20.164  0.00  0.00    -0.349 OA
ATOM     87  C6  SGN d 504       5.165  25.678 -18.990  0.00  0.00     0.067 C 
ATOM     88  S2  SGN d 504       5.615  27.855 -20.475  0.00  0.00     0.251 S 
ATOM     89  C3  SGN d 504       7.800  22.925 -18.032  0.00  0.00     0.083 C 
ATOM     90  C1  SGN d 504       6.652  22.483 -20.243  0.00  0.00     0.150 C 
ATOM     91  H   SGN d 504       8.705  23.153 -19.942  0.00  0.00     0.076 H 
ATOM     92  H   SGN d 504      10.426  19.284 -19.738  0.00  0.00     0.231 HD
ATOM     93  H   SGN d 504       5.245  23.700 -18.216  0.00  0.00     0.090 H 
ATOM     94  H   SGN d 504       8.569  18.984 -21.063  0.00  0.00     0.231 HD
ATOM     95  H   SGN d 504       7.786  20.468 -19.587  0.00  0.00     0.140 HD
ATOM     96  H   SGN d 504      10.456  21.617 -22.329  0.00  0.00     0.231 HD
ATOM     97  H   SGN d 504       7.697  25.145 -18.617  0.00  0.00     0.091 H 
ATOM     98  H   SGN d 504       9.400  22.024 -17.334  0.00  0.00     0.210 HD
ATOM     99  H   SGN d 504       4.973  26.101 -18.026  0.00  0.00     0.080 H 
ATOM    100  H   SGN d 504       4.236  25.549 -19.505  0.00  0.00     0.080 H 
ATOM    101  H   SGN d 504       7.127  22.261 -17.531  0.00  0.00     0.089 H 
ATOM    102  H   SGN d 504       6.847  22.252 -21.270  0.00  0.00     0.131 H 
ATOM    103  C1  IDS d 501      -3.582  12.165 -21.100  0.00  0.00     0.156 C 
ATOM    104  O3  IDS d 501      -1.263  12.765 -19.027  0.00  0.00    -0.390 OA
ATOM    105  C2  IDS d 501      -3.605  12.624 -19.616  0.00  0.00     0.110 C 
ATOM    106  C4  IDS d 501      -2.103  14.625 -20.301  0.00  0.00     0.103 C 
ATOM    107  C6  IDS d 501      -1.747  14.896 -22.860  0.00  0.00     0.206 C 
ATOM    108  C3  IDS d 501      -2.422  13.551 -19.221  0.00  0.00     0.092 C 
ATOM    109  O5  IDS d 501      -3.292  13.272 -21.951  0.00  0.00    -0.340 OA
ATOM    110  O2  IDS d 501      -4.817  13.322 -19.393  0.00  0.00    -0.388 OA
ATOM    111  C5  IDS d 501      -2.048  13.950 -21.698  0.00  0.00     0.152 C 
ATOM    112  O62 IDS d 501      -0.627  14.989 -23.303  0.00  0.00    -0.646 OA
ATOM    113  O61 IDS d 501      -2.614  15.576 -23.364  0.00  0.00    -0.646 OA
ATOM    114  O1  IDS d 501      -2.647  11.128 -21.241  0.00  0.00    -0.368 OA
ATOM    115  H   IDS d 501      -4.543  11.791 -21.390  0.00  0.00     0.133 H 
ATOM    116  H   IDS d 501      -1.441  12.087 -18.356  0.00  0.00     0.210 HD
ATOM    117  H   IDS d 501      -3.518  11.744 -19.014  0.00  0.00     0.094 H 
ATOM    118  H   IDS d 501      -2.829  15.282 -19.869  0.00  0.00     0.092 H 
ATOM    119  H   IDS d 501      -2.712  14.061 -18.326  0.00  0.00     0.091 H 
ATOM    120  H   IDS d 501      -4.847  14.108 -19.961  0.00  0.00     0.210 HD
ATOM    121  H   IDS d 501      -1.225  13.267 -21.655  0.00  0.00     0.104 H 
ATOM    122  H   IDS d 501      -1.769  11.448 -20.982  0.00  0.00     0.212 HD
ATOM    123  O3  IDS d 535       6.605  28.094 -13.377  0.00  0.00    -0.393 OA
ATOM    124  H   IDS d 535       7.020  28.839 -12.914  0.00  0.00     0.210 HD
ENDROOT
TORSDOF 37
ENDMDL
MODEL 49
REMARK VINA RESULT:      -5.6      4.555     12.621
REMARK  0 active torsions:
REMARK  status: ('A' for Active; 'I' for Inactive)
REMARK       I    between atoms: O3_1  and  C3_48 
REMARK       I    between atoms: C1_2  and  O1_8 
REMARK       I    between atoms: O2_5  and  C2_76 
REMARK       I    between atoms: O2_5  and  S_66 
REMARK       I    between atoms: C2_7  and  N_46 
REMARK       I    between atoms: O1_8  and  C4_39 
REMARK       I    between atoms: C2_12  and  N_23 
REMARK       I    between atoms: O2S_13  and  S1_25 
REMARK       I    between atoms: C1_14  and  O1_65 
REMARK       I    between atoms: O3_15  and  C3_69 
REMARK       I    between atoms: C5_16  and  C6_31 
REMARK       I    between atoms: C5_17  and  C6_68 
REMARK       I    between atoms: C5_18  and  C6_71 
REMARK       I    between atoms: O3S_19  and  S1_25 
REMARK       I    between atoms: C6_20  and  C5_28 
REMARK       I    between atoms: C6_20  and  O6_74 
REMARK       I    between atoms: C4_21  and  O1_35 
REMARK       I    between atoms: S2_22  and  O6_74 
REMARK       I    between atoms: N_23  and  S1_25 
REMARK       I    between atoms: O1S_24  and  S1_25 
REMARK       I    between atoms: C4_27  and  O1_63 
REMARK       I    between atoms: O1_29  and  C4_49 
REMARK       I    between atoms: O1_29  and  C1_73 
REMARK       I    between atoms: O2_30  and  C2_78 
REMARK       I    between atoms: O3_33  and  C3_42 
REMARK       I    between atoms: O1_35  and  C1_77 
REMARK       I    between atoms: O3S_37  and  S1_50 
REMARK       I    between atoms: C2_38  and  O2_45 
REMARK       I    between atoms: C6_40  and  C5_51 
REMARK       I    between atoms: C3_41  and  O3_67 
REMARK       I    between atoms: N_46  and  S1_50 
REMARK       I    between atoms: O6_47  and  C6_71 
REMARK       I    between atoms: O6_47  and  S2_72 
REMARK       I    between atoms: S1_50  and  O1S_61 
REMARK       I    between atoms: S1_50  and  O2S_54 
REMARK       I    between atoms: O3_56  and  C3_75 
REMARK       I    between atoms: C1_58  and  O1_63 
ROOT
ATOM      1  O3  SGN d 502       9.947  17.274 -24.097  0.00  0.00    -0.391 OA
ATOM      2  C1  SGN d 502      12.268  14.435 -23.218  0.00  0.00     0.150 C 
ATOM      3  O6S SGN d 502       9.004  13.222 -17.825  0.00  0.00    -0.572 OA
ATOM      4  C2  SGN d 502      11.251  15.242 -24.071  0.00  0.00     0.081 C 
ATOM      5  O1  SGN d 502      13.497  15.123 -23.108  0.00  0.00    -0.348 OA
ATOM      6  O5  SGN d 502      11.729  14.170 -21.914  0.00  0.00    -0.349 OA
ATOM      7  C6  SGN d 502      10.787  14.817 -19.792  0.00  0.00     0.067 C 
ATOM      8  S2  SGN d 502       8.995  12.910 -19.225  0.00  0.00     0.251 S 
ATOM      9  C5  SGN d 502      11.285  15.328 -21.158  0.00  0.00     0.091 C 
ATOM     10  O3S SGN d 502      12.079  13.321 -26.419  0.00  0.00    -0.296 OA
ATOM     11  N   SGN d 502      11.856  15.517 -25.382  0.00  0.00    -0.210 NA
ATOM     12  C3  SGN d 502      10.882  16.540 -23.328  0.00  0.00     0.083 C 
ATOM     13  C4  SGN d 502      10.238  16.148 -21.978  0.00  0.00     0.095 C 
ATOM     14  S1  SGN d 502      11.450  14.587 -26.670  0.00  0.00     0.156 S 
ATOM     15  O2S SGN d 502      11.997  15.251 -27.818  0.00  0.00    -0.296 OA
ATOM     16  O4S SGN d 502       7.681  12.655 -19.730  0.00  0.00    -0.572 OA
ATOM     17  O1S SGN d 502      10.024  14.470 -26.720  0.00  0.00    -0.296 OA
ATOM     18  O5S SGN d 502       9.931  11.875 -19.560  0.00  0.00    -0.572 OA
ATOM     19  O6  SGN d 502       9.533  14.183 -19.959  0.00  0.00    -0.254 OA
ATOM     20  H   SGN d 502      10.349  17.521 -24.944  0.00  0.00     0.210 HD
ATOM     21  H   SGN d 502      12.449  13.505 -23.713  0.00  0.00     0.131 H 
ATOM     22  H   SGN d 502      10.350  14.684 -24.223  0.00  0.00     0.076 H 
ATOM     23  H   SGN d 502      10.684  15.642 -19.118  0.00  0.00     0.080 H 
ATOM     24  H   SGN d 502      11.492  14.119 -19.392  0.00  0.00     0.080 H 
ATOM     25  H   SGN d 502      12.078  16.022 -20.975  0.00  0.00     0.090 H 
ATOM     26  H   SGN d 502      11.679  12.911 -25.637  0.00  0.00     0.231 HD
ATOM     27  H   SGN d 502      12.866  15.438 -25.266  0.00  0.00     0.140 HD
ATOM     28  H   SGN d 502      11.753  17.140 -23.170  0.00  0.00     0.089 H 
ATOM     29  H   SGN d 502       9.373  15.520 -22.020  0.00  0.00     0.091 H 
ATOM     30  H   SGN d 502      12.962  15.304 -27.732  0.00  0.00     0.231 HD
ATOM     31  H   SGN d 502       9.709  14.015 -25.923  0.00  0.00     0.231 HD
ATOM     32  O62 IDS d 503       6.862  19.584 -24.639  0.00  0.00    -0.646 OA
ATOM     33  O2  IDS d 503       7.714  18.431 -18.785  0.00  0.00    -0.244 OA
ATOM     34  O5  IDS d 503       7.599  17.748 -21.750  0.00  0.00    -0.340 OA
ATOM     35  C5  IDS d 503       7.646  18.988 -22.471  0.00  0.00     0.152 C 
ATOM     36  C4  IDS d 503       7.389  20.151 -21.485  0.00  0.00     0.103 C 
ATOM     37  O61 IDS d 503       5.704  18.193 -23.628  0.00  0.00    -0.646 OA
ATOM     38  O1  IDS d 503       9.898  17.417 -21.422  0.00  0.00    -0.348 OA
ATOM     39  C6  IDS d 503       6.678  18.915 -23.648  0.00  0.00     0.206 C 
ATOM     40  O1S IDS d 503       8.641  18.791 -16.601  0.00  0.00    -0.572 OA
ATOM     41  O3S IDS d 503       8.649  16.595 -17.540  0.00  0.00    -0.572 OA
ATOM     42  C3  IDS d 503       8.451  20.112 -20.352  0.00  0.00     0.094 C 
ATOM     43  O2S IDS d 503       6.592  17.584 -16.864  0.00  0.00    -0.572 OA
ATOM     44  S   IDS d 503       7.918  17.815 -17.361  0.00  0.00     0.252 S 
ATOM     45  O3  IDS d 503       9.671  20.604 -20.875  0.00  0.00    -0.390 OA
ATOM     46  C1  IDS d 503       8.643  17.534 -20.807  0.00  0.00     0.161 C 
ATOM     47  C2  IDS d 503       8.694  18.690 -19.771  0.00  0.00     0.134 C 
ATOM     48  H   IDS d 503       8.610  19.172 -22.897  0.00  0.00     0.104 H 
ATOM     49  H   IDS d 503       7.438  21.042 -22.076  0.00  0.00     0.092 H 
ATOM     50  H   IDS d 503       8.081  20.713 -19.548  0.00  0.00     0.091 H 
ATOM     51  H   IDS d 503       9.968  20.031 -21.599  0.00  0.00     0.210 HD
ATOM     52  H   IDS d 503       8.423  16.611 -20.314  0.00  0.00     0.133 H 
ATOM     53  H   IDS d 503       9.691  18.705 -19.383  0.00  0.00     0.097 H 
ATOM     54  C4  IDS d 505      -2.520  19.397 -22.010  0.00  0.00    -0.005 C 
ATOM     55  C5  IDS d 505      -1.663  20.025 -20.862  0.00  0.00     0.127 C 
ATOM     56  O2  IDS d 505       0.376  19.200 -24.428  0.00  0.00    -0.388 OA
ATOM     57  O62 IDS d 505      -2.571  22.004 -19.848  0.00  0.00    -0.646 OA
ATOM     58  C1  IDS d 505       0.321  20.332 -22.295  0.00  0.00     0.159 C 
ATOM     59  O5  IDS d 505      -0.664  20.910 -21.423  0.00  0.00    -0.343 OA
ATOM     60  O1  IDS d 505       1.403  19.809 -21.576  0.00  0.00    -0.348 OA
ATOM     61  O61 IDS d 505      -3.139  20.199 -18.999  0.00  0.00    -0.646 OA
ATOM     62  C6  IDS d 505      -2.505  20.792 -19.843  0.00  0.00     0.203 C 
ATOM     63  C3  IDS d 505      -1.771  19.392 -23.369  0.00  0.00     0.068 C 
ATOM     64  C2  IDS d 505      -0.262  19.187 -23.164  0.00  0.00     0.107 C 
ATOM     65  H   IDS d 505      -2.762  18.389 -21.747  0.00  0.00     0.041 H 
ATOM     66  H   IDS d 505      -3.401  19.993 -22.125  0.00  0.00     0.041 H 
ATOM     67  H   IDS d 505      -1.197  19.213 -20.344  0.00  0.00     0.100 H 
ATOM     68  H   IDS d 505       1.330  19.071 -24.309  0.00  0.00     0.210 HD
ATOM     69  H   IDS d 505       0.646  21.132 -22.928  0.00  0.00     0.133 H 
ATOM     70  H   IDS d 505      -1.916  20.335 -23.854  0.00  0.00     0.087 H 
ATOM     71  H   IDS d 505      -0.097  18.251 -22.671  0.00  0.00     0.094 H 
ATOM     72  O4S SGN d 504       2.019  24.707 -24.327  0.00  0.00    -0.572 OA
ATOM     73  C2  SGN d 504       4.254  21.211 -19.689  0.00  0.00     0.081 C 
ATOM     74  O2S SGN d 504       4.911  21.741 -16.104  0.00  0.00    -0.296 OA
ATOM     75  C5  SGN d 504       3.731  20.699 -22.506  0.00  0.00     0.091 C 
ATOM     76  O3S SGN d 504       6.865  21.953 -17.454  0.00  0.00    -0.296 OA
ATOM     77  N   SGN d 504       4.891  20.869 -18.404  0.00  0.00    -0.210 NA
ATOM     78  O1S SGN d 504       4.981  23.328 -17.890  0.00  0.00    -0.296 OA
ATOM     79  S1  SGN d 504       5.433  22.059 -17.402  0.00  0.00     0.156 S 
ATOM     80  C4  SGN d 504       2.576  20.622 -21.450  0.00  0.00     0.095 C 
ATOM     81  O1  SGN d 504       6.110  20.100 -20.845  0.00  0.00    -0.348 OA
ATOM     82  O6S SGN d 504       1.723  22.926 -25.896  0.00  0.00    -0.572 OA
ATOM     83  O6  SGN d 504       2.788  22.490 -23.793  0.00  0.00    -0.254 OA
ATOM     84  O5S SGN d 504       3.910  23.773 -25.451  0.00  0.00    -0.572 OA
ATOM     85  O3  SGN d 504       2.184  20.094 -19.121  0.00  0.00    -0.391 OA
ATOM     86  O5  SGN d 504       4.787  21.590 -22.053  0.00  0.00    -0.349 OA
ATOM     87  C6  SGN d 504       3.307  21.181 -23.901  0.00  0.00     0.067 C 
ATOM     88  S2  SGN d 504       2.590  23.541 -24.932  0.00  0.00     0.251 S 
ATOM     89  C3  SGN d 504       3.197  20.165 -20.107  0.00  0.00     0.083 C 
ATOM     90  C1  SGN d 504       5.360  21.294 -20.777  0.00  0.00     0.150 C 
ATOM     91  H   SGN d 504       3.751  22.149 -19.579  0.00  0.00     0.076 H 
ATOM     92  H   SGN d 504       5.247  20.875 -15.823  0.00  0.00     0.231 HD
ATOM     93  H   SGN d 504       4.063  19.685 -22.593  0.00  0.00     0.090 H 
ATOM     94  H   SGN d 504       7.138  21.086 -17.118  0.00  0.00     0.231 HD
ATOM     95  H   SGN d 504       5.696  20.281 -18.623  0.00  0.00     0.140 HD
ATOM     96  H   SGN d 504       5.298  24.032 -17.303  0.00  0.00     0.231 HD
ATOM     97  H   SGN d 504       2.186  21.611 -21.579  0.00  0.00     0.091 H 
ATOM     98  H   SGN d 504       2.571  19.808 -18.279  0.00  0.00     0.210 HD
ATOM     99  H   SGN d 504       2.556  20.528 -24.295  0.00  0.00     0.080 H 
ATOM    100  H   SGN d 504       4.151  21.177 -24.559  0.00  0.00     0.080 H 
ATOM    101  H   SGN d 504       3.649  19.201 -20.211  0.00  0.00     0.089 H 
ATOM    102  H   SGN d 504       6.025  22.086 -20.502  0.00  0.00     0.131 H 
ATOM    103  C1  IDS d 501      17.433  13.322 -22.398  0.00  0.00     0.156 C 
ATOM    104  O3  IDS d 501      14.680  12.826 -20.912  0.00  0.00    -0.390 OA
ATOM    105  C2  IDS d 501      16.266  12.334 -22.671  0.00  0.00     0.110 C 
ATOM    106  C4  IDS d 501      14.669  14.377 -22.752  0.00  0.00     0.103 C 
ATOM    107  C6  IDS d 501      15.852  16.688 -22.694  0.00  0.00     0.206 C 
ATOM    108  C3  IDS d 501      14.862  12.896 -22.312  0.00  0.00     0.092 C 
ATOM    109  O5  IDS d 501      17.096  14.623 -22.876  0.00  0.00    -0.340 OA
ATOM    110  O2  IDS d 501      16.281  12.009 -24.049  0.00  0.00    -0.388 OA
ATOM    111  C5  IDS d 501      15.906  15.208 -22.318  0.00  0.00     0.152 C 
ATOM    112  O62 IDS d 501      15.510  17.517 -21.884  0.00  0.00    -0.646 OA
ATOM    113  O61 IDS d 501      16.144  17.071 -23.806  0.00  0.00    -0.646 OA
ATOM    114  O1  IDS d 501      17.720  13.320 -21.025  0.00  0.00    -0.368 OA
ATOM    115  H   IDS d 501      18.313  13.014 -22.924  0.00  0.00     0.133 H 
ATOM    116  H   IDS d 501      14.797  11.910 -20.616  0.00  0.00     0.210 HD
ATOM    117  H   IDS d 501      16.423  11.482 -22.043  0.00  0.00     0.094 H 
ATOM    118  H   IDS d 501      14.348  14.052 -23.720  0.00  0.00     0.092 H 
ATOM    119  H   IDS d 501      14.145  12.301 -22.838  0.00  0.00     0.091 H 
ATOM    120  H   IDS d 501      16.135  12.812 -24.572  0.00  0.00     0.210 HD
ATOM    121  H   IDS d 501      15.912  15.178 -21.248  0.00  0.00     0.104 H 
ATOM    122  H   IDS d 501      16.932  13.597 -20.530  0.00  0.00     0.212 HD
ATOM    123  O3  IDS d 535      -2.287  18.341 -24.159  0.00  0.00    -0.393 OA
ATOM    124  H   IDS d 535      -3.240  18.471 -24.287  0.00  0.00     0.210 HD
ENDROOT
TORSDOF 37
ENDMDL
MODEL 50
REMARK VINA RESULT:      -5.6      3.508      7.212
REMARK  0 active torsions:
REMARK  status: ('A' for Active; 'I' for Inactive)
REMARK       I    between atoms: O3_1  and  C3_48 
REMARK       I    between atoms: C1_2  and  O1_8 
REMARK       I    between atoms: O2_5  and  C2_76 
REMARK       I    between atoms: O2_5  and  S_66 
REMARK       I    between atoms: C2_7  and  N_46 
REMARK       I    between atoms: O1_8  and  C4_39 
REMARK       I    between atoms: C2_12  and  N_23 
REMARK       I    between atoms: O2S_13  and  S1_25 
REMARK       I    between atoms: C1_14  and  O1_65 
REMARK       I    between atoms: O3_15  and  C3_69 
REMARK       I    between atoms: C5_16  and  C6_31 
REMARK       I    between atoms: C5_17  and  C6_68 
REMARK       I    between atoms: C5_18  and  C6_71 
REMARK       I    between atoms: O3S_19  and  S1_25 
REMARK       I    between atoms: C6_20  and  C5_28 
REMARK       I    between atoms: C6_20  and  O6_74 
REMARK       I    between atoms: C4_21  and  O1_35 
REMARK       I    between atoms: S2_22  and  O6_74 
REMARK       I    between atoms: N_23  and  S1_25 
REMARK       I    between atoms: O1S_24  and  S1_25 
REMARK       I    between atoms: C4_27  and  O1_63 
REMARK       I    between atoms: O1_29  and  C4_49 
REMARK       I    between atoms: O1_29  and  C1_73 
REMARK       I    between atoms: O2_30  and  C2_78 
REMARK       I    between atoms: O3_33  and  C3_42 
REMARK       I    between atoms: O1_35  and  C1_77 
REMARK       I    between atoms: O3S_37  and  S1_50 
REMARK       I    between atoms: C2_38  and  O2_45 
REMARK       I    between atoms: C6_40  and  C5_51 
REMARK       I    between atoms: C3_41  and  O3_67 
REMARK       I    between atoms: N_46  and  S1_50 
REMARK       I    between atoms: O6_47  and  C6_71 
REMARK       I    between atoms: O6_47  and  S2_72 
REMARK       I    between atoms: S1_50  and  O1S_61 
REMARK       I    between atoms: S1_50  and  O2S_54 
REMARK       I    between atoms: O3_56  and  C3_75 
REMARK       I    between atoms: C1_58  and  O1_63 
ROOT
ATOM      1  O3  SGN d 502       3.546  16.546 -19.359  0.00  0.00    -0.391 OA
ATOM      2  C1  SGN d 502       0.489  15.562 -21.334  0.00  0.00     0.150 C 
ATOM      3  O6S SGN d 502       3.334  17.187 -26.854  0.00  0.00    -0.572 OA
ATOM      4  C2  SGN d 502       1.687  15.377 -20.362  0.00  0.00     0.081 C 
ATOM      5  O1  SGN d 502      -0.470  16.449 -20.797  0.00  0.00    -0.348 OA
ATOM      6  O5  SGN d 502       0.947  16.038 -22.608  0.00  0.00    -0.349 OA
ATOM      7  C6  SGN d 502       2.082  17.599 -24.051  0.00  0.00     0.067 C 
ATOM      8  S2  SGN d 502       3.220  16.085 -25.944  0.00  0.00     0.251 S 
ATOM      9  C5  SGN d 502       1.737  17.256 -22.589  0.00  0.00     0.091 C 
ATOM     10  O3S SGN d 502       0.268  12.701 -19.519  0.00  0.00    -0.296 OA
ATOM     11  N   SGN d 502       1.169  14.921 -19.064  0.00  0.00    -0.210 NA
ATOM     12  C3  SGN d 502       2.448  16.711 -20.236  0.00  0.00     0.083 C 
ATOM     13  C4  SGN d 502       2.968  17.096 -21.640  0.00  0.00     0.095 C 
ATOM     14  S1  SGN d 502       1.247  13.329 -18.678  0.00  0.00     0.156 S 
ATOM     15  O2S SGN d 502       0.905  13.248 -17.287  0.00  0.00    -0.296 OA
ATOM     16  O4S SGN d 502       4.384  15.252 -25.928  0.00  0.00    -0.572 OA
ATOM     17  O1S SGN d 502       2.568  12.853 -18.958  0.00  0.00    -0.296 OA
ATOM     18  O5S SGN d 502       2.007  15.341 -26.134  0.00  0.00    -0.572 OA
ATOM     19  O6  SGN d 502       3.081  16.710 -24.516  0.00  0.00    -0.254 OA
ATOM     20  H   SGN d 502       3.222  16.305 -18.477  0.00  0.00     0.210 HD
ATOM     21  H   SGN d 502       0.023  14.608 -21.468  0.00  0.00     0.131 H 
ATOM     22  H   SGN d 502       2.372  14.643 -20.731  0.00  0.00     0.076 H 
ATOM     23  H   SGN d 502       2.445  18.604 -24.107  0.00  0.00     0.080 H 
ATOM     24  H   SGN d 502       1.206  17.505 -24.658  0.00  0.00     0.080 H 
ATOM     25  H   SGN d 502       1.197  18.085 -22.181  0.00  0.00     0.090 H 
ATOM     26  H   SGN d 502       0.539  12.781 -20.447  0.00  0.00     0.231 HD
ATOM     27  H   SGN d 502       0.185  15.187 -19.027  0.00  0.00     0.140 HD
ATOM     28  H   SGN d 502       1.804  17.473 -19.850  0.00  0.00     0.089 H 
ATOM     29  H   SGN d 502       3.599  16.386 -22.132  0.00  0.00     0.091 H 
ATOM     30  H   SGN d 502       0.004  13.582 -17.156  0.00  0.00     0.231 HD
ATOM     31  H   SGN d 502       2.745  12.931 -19.908  0.00  0.00     0.231 HD
ATOM     32  O62 IDS d 503       7.177  17.155 -18.096  0.00  0.00    -0.646 OA
ATOM     33  O2  IDS d 503       6.130  20.141 -23.225  0.00  0.00    -0.244 OA
ATOM     34  O5  IDS d 503       5.973  17.766 -21.326  0.00  0.00    -0.340 OA
ATOM     35  C5  IDS d 503       6.291  18.252 -20.014  0.00  0.00     0.152 C 
ATOM     36  C4  IDS d 503       6.909  19.664 -20.140  0.00  0.00     0.103 C 
ATOM     37  O61 IDS d 503       7.876  16.457 -19.918  0.00  0.00    -0.646 OA
ATOM     38  O1  IDS d 503       3.689  18.299 -21.380  0.00  0.00    -0.348 OA
ATOM     39  C6  IDS d 503       7.169  17.226 -19.303  0.00  0.00     0.206 C 
ATOM     40  O1S IDS d 503       5.399  21.995 -24.562  0.00  0.00    -0.572 OA
ATOM     41  O3S IDS d 503       4.704  19.782 -25.131  0.00  0.00    -0.572 OA
ATOM     42  C3  IDS d 503       5.908  20.604 -20.866  0.00  0.00     0.094 C 
ATOM     43  O2S IDS d 503       6.978  20.421 -25.431  0.00  0.00    -0.572 OA
ATOM     44  S   IDS d 503       5.775  20.617 -24.673  0.00  0.00     0.252 S 
ATOM     45  O3  IDS d 503       4.886  20.951 -19.950  0.00  0.00    -0.390 OA
ATOM     46  C1  IDS d 503       4.932  18.453 -22.011  0.00  0.00     0.161 C 
ATOM     47  C2  IDS d 503       5.256  19.967 -22.126  0.00  0.00     0.134 C 
ATOM     48  H   IDS d 503       5.421  18.366 -19.402  0.00  0.00     0.104 H 
ATOM     49  H   IDS d 503       7.123  19.972 -19.138  0.00  0.00     0.092 H 
ATOM     50  H   IDS d 503       6.460  21.457 -21.204  0.00  0.00     0.091 H 
ATOM     51  H   IDS d 503       4.415  20.150 -19.673  0.00  0.00     0.210 HD
ATOM     52  H   IDS d 503       4.870  18.017 -22.986  0.00  0.00     0.133 H 
ATOM     53  H   IDS d 503       4.318  20.469 -22.248  0.00  0.00     0.097 H 
ATOM     54  C4  IDS d 505      16.106  16.297 -21.903  0.00  0.00    -0.005 C 
ATOM     55  C5  IDS d 505      15.504  17.690 -22.281  0.00  0.00     0.127 C 
ATOM     56  O2  IDS d 505      13.241  15.376 -19.620  0.00  0.00    -0.388 OA
ATOM     57  O62 IDS d 505      16.991  19.563 -22.055  0.00  0.00    -0.646 OA
ATOM     58  C1  IDS d 505      13.680  17.526 -20.628  0.00  0.00     0.159 C 
ATOM     59  O5  IDS d 505      14.811  18.250 -21.140  0.00  0.00    -0.343 OA
ATOM     60  O1  IDS d 505      12.504  17.855 -21.315  0.00  0.00    -0.348 OA
ATOM     61  O61 IDS d 505      16.999  18.605 -23.895  0.00  0.00    -0.646 OA
ATOM     62  C6  IDS d 505      16.559  18.681 -22.770  0.00  0.00     0.203 C 
ATOM     63  C3  IDS d 505      15.365  15.638 -20.710  0.00  0.00     0.068 C 
ATOM     64  C2  IDS d 505      13.870  15.990 -20.730  0.00  0.00     0.107 C 
ATOM     65  H   IDS d 505      16.036  15.650 -22.752  0.00  0.00     0.041 H 
ATOM     66  H   IDS d 505      17.125  16.449 -21.612  0.00  0.00     0.041 H 
ATOM     67  H   IDS d 505      14.823  17.524 -23.089  0.00  0.00     0.100 H 
ATOM     68  H   IDS d 505      12.296  15.593 -19.624  0.00  0.00     0.210 HD
ATOM     69  H   IDS d 505      13.601  17.810 -19.599  0.00  0.00     0.133 H 
ATOM     70  H   IDS d 505      15.781  16.003 -19.793  0.00  0.00     0.087 H 
ATOM     71  H   IDS d 505      13.437  15.642 -21.645  0.00  0.00     0.094 H 
ATOM     72  O4S SGN d 504      13.355  19.945 -16.133  0.00  0.00    -0.572 OA
ATOM     73  C2  SGN d 504      10.253  20.781 -21.464  0.00  0.00     0.081 C 
ATOM     74  O2S SGN d 504       9.859  23.562 -23.845  0.00  0.00    -0.296 OA
ATOM     75  C5  SGN d 504      10.540  18.523 -19.650  0.00  0.00     0.091 C 
ATOM     76  O3S SGN d 504       8.036  23.373 -22.319  0.00  0.00    -0.296 OA
ATOM     77  N   SGN d 504       9.567  21.483 -22.564  0.00  0.00    -0.210 NA
ATOM     78  O1S SGN d 504      10.241  23.652 -21.487  0.00  0.00    -0.296 OA
ATOM     79  S1  SGN d 504       9.432  23.124 -22.547  0.00  0.00     0.156 S 
ATOM     80  C4  SGN d 504      11.637  18.830 -20.725  0.00  0.00     0.095 C 
ATOM     81  O1  SGN d 504       8.125  19.703 -20.895  0.00  0.00    -0.348 OA
ATOM     82  O6S SGN d 504      13.064  17.574 -16.015  0.00  0.00    -0.572 OA
ATOM     83  O6  SGN d 504      11.958  18.820 -17.738  0.00  0.00    -0.254 OA
ATOM     84  O5S SGN d 504      11.247  19.027 -15.479  0.00  0.00    -0.572 OA
ATOM     85  O3  SGN d 504      11.896  19.784 -22.934  0.00  0.00    -0.391 OA
ATOM     86  O5  SGN d 504       9.814  19.730 -19.291  0.00  0.00    -0.349 OA
ATOM     87  C6  SGN d 504      11.063  17.909 -18.343  0.00  0.00     0.067 C 
ATOM     88  S2  SGN d 504      12.444  18.845 -16.254  0.00  0.00     0.251 S 
ATOM     89  C3  SGN d 504      10.933  19.479 -21.942  0.00  0.00     0.083 C 
ATOM     90  C1  SGN d 504       9.203  20.445 -20.368  0.00  0.00     0.150 C 
ATOM     91  H   SGN d 504      11.020  21.420 -21.079  0.00  0.00     0.076 H 
ATOM     92  H   SGN d 504       9.280  23.177 -24.522  0.00  0.00     0.231 HD
ATOM     93  H   SGN d 504       9.914  17.798 -20.127  0.00  0.00     0.090 H 
ATOM     94  H   SGN d 504       7.519  23.004 -23.052  0.00  0.00     0.231 HD
ATOM     95  H   SGN d 504       8.618  21.112 -22.602  0.00  0.00     0.140 HD
ATOM     96  H   SGN d 504      10.164  24.620 -21.473  0.00  0.00     0.231 HD
ATOM     97  H   SGN d 504      12.307  19.388 -20.103  0.00  0.00     0.091 H 
ATOM     98  H   SGN d 504      11.456  20.191 -23.697  0.00  0.00     0.210 HD
ATOM     99  H   SGN d 504      11.572  16.992 -18.554  0.00  0.00     0.080 H 
ATOM    100  H   SGN d 504      10.245  17.710 -17.682  0.00  0.00     0.080 H 
ATOM    101  H   SGN d 504      10.207  18.811 -22.356  0.00  0.00     0.089 H 
ATOM    102  H   SGN d 504       8.817  21.371 -19.997  0.00  0.00     0.131 H 
ATOM    103  C1  IDS d 501      -4.753  16.536 -21.740  0.00  0.00     0.156 C 
ATOM    104  O3  IDS d 501      -2.253  16.399 -23.680  0.00  0.00    -0.390 OA
ATOM    105  C2  IDS d 501      -3.948  15.340 -22.317  0.00  0.00     0.110 C 
ATOM    106  C4  IDS d 501      -1.806  16.408 -21.316  0.00  0.00     0.103 C 
ATOM    107  C6  IDS d 501      -2.228  18.459 -19.779  0.00  0.00     0.206 C 
ATOM    108  C3  IDS d 501      -2.432  15.629 -22.509  0.00  0.00     0.092 C 
ATOM    109  O5  IDS d 501      -4.045  17.122 -20.649  0.00  0.00    -0.340 OA
ATOM    110  O2  IDS d 501      -4.088  14.247 -21.427  0.00  0.00    -0.388 OA
ATOM    111  C5  IDS d 501      -2.723  17.605 -20.945  0.00  0.00     0.152 C 
ATOM    112  O62 IDS d 501      -1.634  19.492 -19.980  0.00  0.00    -0.646 OA
ATOM    113  O61 IDS d 501      -2.411  18.127 -18.628  0.00  0.00    -0.646 OA
ATOM    114  O1  IDS d 501      -4.999  17.457 -22.769  0.00  0.00    -0.368 OA
ATOM    115  H   IDS d 501      -5.695  16.201 -21.358  0.00  0.00     0.133 H 
ATOM    116  H   IDS d 501      -2.637  15.931 -24.438  0.00  0.00     0.210 HD
ATOM    117  H   IDS d 501      -4.344  15.135 -23.290  0.00  0.00     0.094 H 
ATOM    118  H   IDS d 501      -1.618  15.487 -20.806  0.00  0.00     0.092 H 
ATOM    119  H   IDS d 501      -1.941  14.681 -22.576  0.00  0.00     0.091 H 
ATOM    120  H   IDS d 501      -3.714  14.483 -20.564  0.00  0.00     0.210 HD
ATOM    121  H   IDS d 501      -2.717  18.248 -21.802  0.00  0.00     0.104 H 
ATOM    122  H   IDS d 501      -4.156  17.773 -23.129  0.00  0.00     0.212 HD
ATOM    123  O3  IDS d 535      15.521  14.237 -20.806  0.00  0.00    -0.393 OA
ATOM    124  H   IDS d 535      16.465  14.016 -20.794  0.00  0.00     0.210 HD
ENDROOT
TORSDOF 37
ENDMDL
MODEL 51
REMARK VINA RESULT:      -5.5      4.602     12.990
REMARK  0 active torsions:
REMARK  status: ('A' for Active; 'I' for Inactive)
REMARK       I    between atoms: O3_1  and  C3_48 
REMARK       I    between atoms: C1_2  and  O1_8 
REMARK       I    between atoms: O2_5  and  C2_76 
REMARK       I    between atoms: O2_5  and  S_66 
REMARK       I    between atoms: C2_7  and  N_46 
REMARK       I    between atoms: O1_8  and  C4_39 
REMARK       I    between atoms: C2_12  and  N_23 
REMARK       I    between atoms: O2S_13  and  S1_25 
REMARK       I    between atoms: C1_14  and  O1_65 
REMARK       I    between atoms: O3_15  and  C3_69 
REMARK       I    between atoms: C5_16  and  C6_31 
REMARK       I    between atoms: C5_17  and  C6_68 
REMARK       I    between atoms: C5_18  and  C6_71 
REMARK       I    between atoms: O3S_19  and  S1_25 
REMARK       I    between atoms: C6_20  and  C5_28 
REMARK       I    between atoms: C6_20  and  O6_74 
REMARK       I    between atoms: C4_21  and  O1_35 
REMARK       I    between atoms: S2_22  and  O6_74 
REMARK       I    between atoms: N_23  and  S1_25 
REMARK       I    between atoms: O1S_24  and  S1_25 
REMARK       I    between atoms: C4_27  and  O1_63 
REMARK       I    between atoms: O1_29  and  C4_49 
REMARK       I    between atoms: O1_29  and  C1_73 
REMARK       I    between atoms: O2_30  and  C2_78 
REMARK       I    between atoms: O3_33  and  C3_42 
REMARK       I    between atoms: O1_35  and  C1_77 
REMARK       I    between atoms: O3S_37  and  S1_50 
REMARK       I    between atoms: C2_38  and  O2_45 
REMARK       I    between atoms: C6_40  and  C5_51 
REMARK       I    between atoms: C3_41  and  O3_67 
REMARK       I    between atoms: N_46  and  S1_50 
REMARK       I    between atoms: O6_47  and  C6_71 
REMARK       I    between atoms: O6_47  and  S2_72 
REMARK       I    between atoms: S1_50  and  O1S_61 
REMARK       I    between atoms: S1_50  and  O2S_54 
REMARK       I    between atoms: O3_56  and  C3_75 
REMARK       I    between atoms: C1_58  and  O1_63 
ROOT
ATOM      1  O3  SGN d 502      11.384  20.736 -22.508  0.00  0.00    -0.391 OA
ATOM      2  C1  SGN d 502      13.415  19.966 -25.590  0.00  0.00     0.150 C 
ATOM      3  O6S SGN d 502      11.266  13.918 -25.692  0.00  0.00    -0.572 OA
ATOM      4  C2  SGN d 502      12.361  20.699 -24.716  0.00  0.00     0.081 C 
ATOM      5  O1  SGN d 502      14.723  20.196 -25.109  0.00  0.00    -0.348 OA
ATOM      6  O5  SGN d 502      13.141  18.558 -25.629  0.00  0.00    -0.349 OA
ATOM      7  C6  SGN d 502      12.785  16.397 -24.623  0.00  0.00     0.067 C 
ATOM      8  S2  SGN d 502      10.908  15.233 -26.138  0.00  0.00     0.251 S 
ATOM      9  C5  SGN d 502      13.041  17.890 -24.343  0.00  0.00     0.091 C 
ATOM     10  O3S SGN d 502      12.377  22.887 -26.974  0.00  0.00    -0.296 OA
ATOM     11  N   SGN d 502      12.698  22.130 -24.678  0.00  0.00    -0.210 NA
ATOM     12  C3  SGN d 502      12.350  20.078 -23.306  0.00  0.00     0.083 C 
ATOM     13  C4  SGN d 502      11.967  18.587 -23.446  0.00  0.00     0.095 C 
ATOM     14  S1  SGN d 502      11.895  23.175 -25.653  0.00  0.00     0.156 S 
ATOM     15  O2S SGN d 502      12.267  24.487 -25.209  0.00  0.00    -0.296 OA
ATOM     16  O4S SGN d 502       9.493  15.428 -26.220  0.00  0.00    -0.572 OA
ATOM     17  O1S SGN d 502      10.490  22.923 -25.536  0.00  0.00    -0.296 OA
ATOM     18  O5S SGN d 502      11.593  15.607 -27.343  0.00  0.00    -0.572 OA
ATOM     19  O6  SGN d 502      11.448  16.224 -25.053  0.00  0.00    -0.254 OA
ATOM     20  H   SGN d 502      11.622  21.672 -22.418  0.00  0.00     0.210 HD
ATOM     21  H   SGN d 502      13.351  20.358 -26.583  0.00  0.00     0.131 H 
ATOM     22  H   SGN d 502      11.379  20.593 -25.128  0.00  0.00     0.076 H 
ATOM     23  H   SGN d 502      12.949  15.832 -23.729  0.00  0.00     0.080 H 
ATOM     24  H   SGN d 502      13.454  16.056 -25.385  0.00  0.00     0.080 H 
ATOM     25  H   SGN d 502      13.944  17.963 -23.775  0.00  0.00     0.090 H 
ATOM     26  H   SGN d 502      12.103  21.993 -27.231  0.00  0.00     0.231 HD
ATOM     27  H   SGN d 502      13.688  22.207 -24.913  0.00  0.00     0.140 HD
ATOM     28  H   SGN d 502      13.310  20.179 -22.846  0.00  0.00     0.089 H 
ATOM     29  H   SGN d 502      11.034  18.371 -23.923  0.00  0.00     0.091 H 
ATOM     30  H   SGN d 502      13.225  24.603 -25.310  0.00  0.00     0.231 HD
ATOM     31  H   SGN d 502      10.296  22.026 -25.849  0.00  0.00     0.231 HD
ATOM     32  O62 IDS d 503       8.613  20.957 -19.783  0.00  0.00    -0.646 OA
ATOM     33  O2  IDS d 503      10.548  15.289 -20.465  0.00  0.00    -0.244 OA
ATOM     34  O5  IDS d 503       9.695  18.054 -21.415  0.00  0.00    -0.340 OA
ATOM     35  C5  IDS d 503       9.758  18.928 -20.280  0.00  0.00     0.152 C 
ATOM     36  C4  IDS d 503       9.889  18.076 -18.997  0.00  0.00     0.103 C 
ATOM     37  O61 IDS d 503       7.518  19.559 -20.853  0.00  0.00    -0.646 OA
ATOM     38  O1  IDS d 503      11.940  18.149 -22.089  0.00  0.00    -0.348 OA
ATOM     39  C6  IDS d 503       8.556  19.868 -20.308  0.00  0.00     0.206 C 
ATOM     40  O1S IDS d 503      11.969  13.403 -20.046  0.00  0.00    -0.572 OA
ATOM     41  O3S IDS d 503      11.462  14.022 -22.296  0.00  0.00    -0.572 OA
ATOM     42  C3  IDS d 503      11.156  17.183 -19.097  0.00  0.00     0.094 C 
ATOM     43  O2S IDS d 503       9.763  13.088 -20.915  0.00  0.00    -0.572 OA
ATOM     44  S   IDS d 503      10.968  13.865 -20.960  0.00  0.00     0.252 S 
ATOM     45  O3  IDS d 503      12.290  18.000 -18.870  0.00  0.00    -0.390 OA
ATOM     46  C1  IDS d 503      10.878  17.318 -21.704  0.00  0.00     0.161 C 
ATOM     47  C2  IDS d 503      11.316  16.477 -20.474  0.00  0.00     0.134 C 
ATOM     48  H   IDS d 503      10.622  19.559 -20.302  0.00  0.00     0.104 H 
ATOM     49  H   IDS d 503       9.934  18.778 -18.191  0.00  0.00     0.092 H 
ATOM     50  H   IDS d 503      11.059  16.409 -18.365  0.00  0.00     0.091 H 
ATOM     51  H   IDS d 503      12.338  18.685 -19.555  0.00  0.00     0.210 HD
ATOM     52  H   IDS d 503      10.642  16.672 -22.523  0.00  0.00     0.133 H 
ATOM     53  H   IDS d 503      12.366  16.301 -20.586  0.00  0.00     0.097 H 
ATOM     54  C4  IDS d 505       0.099  16.510 -18.140  0.00  0.00    -0.005 C 
ATOM     55  C5  IDS d 505       1.266  15.650 -17.551  0.00  0.00     0.127 C 
ATOM     56  O2  IDS d 505       2.341  19.408 -19.059  0.00  0.00    -0.388 OA
ATOM     57  O62 IDS d 505       0.890  14.749 -15.355  0.00  0.00    -0.646 OA
ATOM     58  C1  IDS d 505       2.912  17.478 -17.725  0.00  0.00     0.159 C 
ATOM     59  O5  IDS d 505       2.233  16.511 -16.906  0.00  0.00    -0.343 OA
ATOM     60  O1  IDS d 505       4.041  16.925 -18.345  0.00  0.00    -0.348 OA
ATOM     61  O61 IDS d 505       0.271  13.571 -16.946  0.00  0.00    -0.646 OA
ATOM     62  C6  IDS d 505       0.783  14.595 -16.555  0.00  0.00     0.203 C 
ATOM     63  C3  IDS d 505       0.526  17.977 -18.406  0.00  0.00     0.068 C 
ATOM     64  C2  IDS d 505       1.998  18.052 -18.838  0.00  0.00     0.107 C 
ATOM     65  H   IDS d 505      -0.220  16.071 -19.061  0.00  0.00     0.041 H 
ATOM     66  H   IDS d 505      -0.692  16.525 -17.420  0.00  0.00     0.041 H 
ATOM     67  H   IDS d 505       1.714  15.131 -18.372  0.00  0.00     0.100 H 
ATOM     68  H   IDS d 505       3.270  19.465 -19.332  0.00  0.00     0.210 HD
ATOM     69  H   IDS d 505       3.202  18.263 -17.058  0.00  0.00     0.133 H 
ATOM     70  H   IDS d 505       0.414  18.545 -17.506  0.00  0.00     0.087 H 
ATOM     71  H   IDS d 505       2.133  17.480 -19.733  0.00  0.00     0.094 H 
ATOM     72  O4S SGN d 504       4.729  20.374 -13.921  0.00  0.00    -0.572 OA
ATOM     73  C2  SGN d 504       7.403  15.849 -17.253  0.00  0.00     0.081 C 
ATOM     74  O2S SGN d 504       8.893  12.571 -16.481  0.00  0.00    -0.296 OA
ATOM     75  C5  SGN d 504       6.212  18.411 -17.953  0.00  0.00     0.091 C 
ATOM     76  O3S SGN d 504      10.517  14.299 -16.734  0.00  0.00    -0.296 OA
ATOM     77  N   SGN d 504       8.250  14.683 -17.565  0.00  0.00    -0.210 NA
ATOM     78  O1S SGN d 504       8.796  14.531 -15.116  0.00  0.00    -0.296 OA
ATOM     79  S1  SGN d 504       9.160  13.978 -16.388  0.00  0.00     0.156 S 
ATOM     80  C4  SGN d 504       5.315  17.146 -17.730  0.00  0.00     0.095 C 
ATOM     81  O1  SGN d 504       8.786  17.192 -18.769  0.00  0.00    -0.348 OA
ATOM     82  O6S SGN d 504       3.850  21.599 -15.777  0.00  0.00    -0.572 OA
ATOM     83  O6  SGN d 504       5.275  19.712 -16.169  0.00  0.00    -0.254 OA
ATOM     84  O5S SGN d 504       6.179  21.717 -15.265  0.00  0.00    -0.572 OA
ATOM     85  O3  SGN d 504       5.369  14.736 -17.947  0.00  0.00    -0.391 OA
ATOM     86  O5  SGN d 504       7.456  18.301 -17.209  0.00  0.00    -0.349 OA
ATOM     87  C6  SGN d 504       5.567  19.746 -17.551  0.00  0.00     0.067 C 
ATOM     88  S2  SGN d 504       4.984  20.919 -15.221  0.00  0.00     0.251 S 
ATOM     89  C3  SGN d 504       6.143  15.905 -18.146  0.00  0.00     0.083 C 
ATOM     90  C1  SGN d 504       8.246  17.137 -17.466  0.00  0.00     0.150 C 
ATOM     91  H   SGN d 504       7.074  15.768 -16.239  0.00  0.00     0.076 H 
ATOM     92  H   SGN d 504       9.157  12.249 -17.358  0.00  0.00     0.231 HD
ATOM     93  H   SGN d 504       6.370  18.427 -19.011  0.00  0.00     0.090 H 
ATOM     94  H   SGN d 504      10.730  13.911 -17.597  0.00  0.00     0.231 HD
ATOM     95  H   SGN d 504       8.896  14.977 -18.298  0.00  0.00     0.140 HD
ATOM     96  H   SGN d 504       9.330  14.118 -14.419  0.00  0.00     0.231 HD
ATOM     97  H   SGN d 504       5.051  17.325 -16.708  0.00  0.00     0.091 H 
ATOM     98  H   SGN d 504       5.887  13.958 -18.207  0.00  0.00     0.210 HD
ATOM     99  H   SGN d 504       4.663  19.890 -18.106  0.00  0.00     0.080 H 
ATOM    100  H   SGN d 504       6.238  20.552 -17.762  0.00  0.00     0.080 H 
ATOM    101  H   SGN d 504       6.421  15.967 -19.177  0.00  0.00     0.089 H 
ATOM    102  H   SGN d 504       9.060  17.108 -16.772  0.00  0.00     0.131 H 
ATOM    103  C1  IDS d 501      18.424  20.051 -27.459  0.00  0.00     0.156 C 
ATOM    104  O3  IDS d 501      16.019  17.993 -27.337  0.00  0.00    -0.390 OA
ATOM    105  C2  IDS d 501      17.098  19.951 -28.261  0.00  0.00     0.110 C 
ATOM    106  C4  IDS d 501      15.826  19.985 -26.000  0.00  0.00     0.103 C 
ATOM    107  C6  IDS d 501      17.309  20.474 -23.924  0.00  0.00     0.206 C 
ATOM    108  C3  IDS d 501      15.900  19.398 -27.440  0.00  0.00     0.092 C 
ATOM    109  O5  IDS d 501      18.179  20.622 -26.175  0.00  0.00    -0.340 OA
ATOM    110  O2  IDS d 501      16.766  21.249 -28.722  0.00  0.00    -0.388 OA
ATOM    111  C5  IDS d 501      17.234  19.922 -25.346  0.00  0.00     0.152 C 
ATOM    112  O62 IDS d 501      17.272  19.730 -22.972  0.00  0.00    -0.646 OA
ATOM    113  O61 IDS d 501      17.403  21.662 -23.710  0.00  0.00    -0.646 OA
ATOM    114  O1  IDS d 501      18.999  18.775 -27.370  0.00  0.00    -0.368 OA
ATOM    115  H   IDS d 501      19.116  20.696 -27.961  0.00  0.00     0.133 H 
ATOM    116  H   IDS d 501      16.066  17.607 -28.225  0.00  0.00     0.210 HD
ATOM    117  H   IDS d 501      17.265  19.259 -29.060  0.00  0.00     0.094 H 
ATOM    118  H   IDS d 501      15.260  20.817 -26.362  0.00  0.00     0.092 H 
ATOM    119  H   IDS d 501      15.009  19.686 -27.957  0.00  0.00     0.091 H 
ATOM    120  H   IDS d 501      16.625  21.835 -27.962  0.00  0.00     0.210 HD
ATOM    121  H   IDS d 501      17.468  18.880 -25.269  0.00  0.00     0.104 H 
ATOM    122  H   IDS d 501      18.386  18.174 -26.917  0.00  0.00     0.212 HD
ATOM    123  O3  IDS d 535      -0.293  18.501 -19.431  0.00  0.00    -0.393 OA
ATOM    124  H   IDS d 535      -1.223  18.453 -19.158  0.00  0.00     0.210 HD
ENDROOT
TORSDOF 37
ENDMDL
MODEL 52
REMARK VINA RESULT:      -5.5      2.438      3.010
REMARK  0 active torsions:
REMARK  status: ('A' for Active; 'I' for Inactive)
REMARK       I    between atoms: O3_1  and  C3_48 
REMARK       I    between atoms: C1_2  and  O1_8 
REMARK       I    between atoms: O2_5  and  C2_76 
REMARK       I    between atoms: O2_5  and  S_66 
REMARK       I    between atoms: C2_7  and  N_46 
REMARK       I    between atoms: O1_8  and  C4_39 
REMARK       I    between atoms: C2_12  and  N_23 
REMARK       I    between atoms: O2S_13  and  S1_25 
REMARK       I    between atoms: C1_14  and  O1_65 
REMARK       I    between atoms: O3_15  and  C3_69 
REMARK       I    between atoms: C5_16  and  C6_31 
REMARK       I    between atoms: C5_17  and  C6_68 
REMARK       I    between atoms: C5_18  and  C6_71 
REMARK       I    between atoms: O3S_19  and  S1_25 
REMARK       I    between atoms: C6_20  and  C5_28 
REMARK       I    between atoms: C6_20  and  O6_74 
REMARK       I    between atoms: C4_21  and  O1_35 
REMARK       I    between atoms: S2_22  and  O6_74 
REMARK       I    between atoms: N_23  and  S1_25 
REMARK       I    between atoms: O1S_24  and  S1_25 
REMARK       I    between atoms: C4_27  and  O1_63 
REMARK       I    between atoms: O1_29  and  C4_49 
REMARK       I    between atoms: O1_29  and  C1_73 
REMARK       I    between atoms: O2_30  and  C2_78 
REMARK       I    between atoms: O3_33  and  C3_42 
REMARK       I    between atoms: O1_35  and  C1_77 
REMARK       I    between atoms: O3S_37  and  S1_50 
REMARK       I    between atoms: C2_38  and  O2_45 
REMARK       I    between atoms: C6_40  and  C5_51 
REMARK       I    between atoms: C3_41  and  O3_67 
REMARK       I    between atoms: N_46  and  S1_50 
REMARK       I    between atoms: O6_47  and  C6_71 
REMARK       I    between atoms: O6_47  and  S2_72 
REMARK       I    between atoms: S1_50  and  O1S_61 
REMARK       I    between atoms: S1_50  and  O2S_54 
REMARK       I    between atoms: O3_56  and  C3_75 
REMARK       I    between atoms: C1_58  and  O1_63 
ROOT
ATOM      1  O3  SGN d 502       3.509  18.630 -20.653  0.00  0.00    -0.391 OA
ATOM      2  C1  SGN d 502       0.438  20.157 -19.088  0.00  0.00     0.150 C 
ATOM      3  O6S SGN d 502       3.341  20.536 -13.375  0.00  0.00    -0.572 OA
ATOM      4  C2  SGN d 502       1.627  20.029 -20.079  0.00  0.00     0.081 C 
ATOM      5  O1  SGN d 502      -0.503  19.121 -19.286  0.00  0.00    -0.348 OA
ATOM      6  O5  SGN d 502       0.911  20.145 -17.733  0.00  0.00    -0.349 OA
ATOM      7  C6  SGN d 502       2.088  19.182 -15.863  0.00  0.00     0.067 C 
ATOM      8  S2  SGN d 502       3.198  21.267 -14.601  0.00  0.00     0.251 S 
ATOM      9  C5  SGN d 502       1.729  19.008 -17.351  0.00  0.00     0.091 C 
ATOM     10  O3S SGN d 502       0.143  22.238 -21.754  0.00  0.00    -0.296 OA
ATOM     11  N   SGN d 502       1.094  20.013 -21.449  0.00  0.00    -0.210 NA
ATOM     12  C3  SGN d 502       2.418  18.747 -19.759  0.00  0.00     0.083 C 
ATOM     13  C4  SGN d 502       2.953  18.866 -18.314  0.00  0.00     0.095 C 
ATOM     14  S1  SGN d 502       1.133  21.385 -22.347  0.00  0.00     0.156 S 
ATOM     15  O2S SGN d 502       0.785  20.987 -23.680  0.00  0.00    -0.296 OA
ATOM     16  O4S SGN d 502       4.342  22.069 -14.908  0.00  0.00    -0.572 OA
ATOM     17  O1S SGN d 502       2.444  21.954 -22.258  0.00  0.00    -0.296 OA
ATOM     18  O5S SGN d 502       1.968  22.006 -14.657  0.00  0.00    -0.572 OA
ATOM     19  O6  SGN d 502       3.068  20.196 -15.734  0.00  0.00    -0.254 OA
ATOM     20  H   SGN d 502       3.176  18.555 -21.561  0.00  0.00     0.210 HD
ATOM     21  H   SGN d 502      -0.049  21.090 -19.275  0.00  0.00     0.131 H 
ATOM     22  H   SGN d 502       2.296  20.859 -19.985  0.00  0.00     0.076 H 
ATOM     23  H   SGN d 502       2.474  18.261 -15.478  0.00  0.00     0.080 H 
ATOM     24  H   SGN d 502       1.213  19.456 -15.313  0.00  0.00     0.080 H 
ATOM     25  H   SGN d 502       1.208  18.079 -17.452  0.00  0.00     0.090 H 
ATOM     26  H   SGN d 502       0.420  22.480 -20.856  0.00  0.00     0.231 HD
ATOM     27  H   SGN d 502       0.116  19.730 -21.384  0.00  0.00     0.140 HD
ATOM     28  H   SGN d 502       1.791  17.886 -19.860  0.00  0.00     0.089 H 
ATOM     29  H   SGN d 502       3.569  19.712 -18.095  0.00  0.00     0.091 H 
ATOM     30  H   SGN d 502      -0.109  20.610 -23.682  0.00  0.00     0.231 HD
ATOM     31  H   SGN d 502       2.626  22.203 -21.338  0.00  0.00     0.231 HD
ATOM     32  O62 IDS d 503       7.148  17.708 -21.681  0.00  0.00    -0.646 OA
ATOM     33  O2  IDS d 503       6.190  16.594 -15.835  0.00  0.00    -0.244 OA
ATOM     34  O5  IDS d 503       5.971  18.191 -18.419  0.00  0.00    -0.340 OA
ATOM     35  C5  IDS d 503       6.296  17.300 -19.495  0.00  0.00     0.152 C 
ATOM     36  C4  IDS d 503       6.947  16.025 -18.911  0.00  0.00     0.103 C 
ATOM     37  O61 IDS d 503       7.838  18.991 -20.206  0.00  0.00    -0.646 OA
ATOM     38  O1  IDS d 503       3.700  17.660 -18.163  0.00  0.00    -0.348 OA
ATOM     39  C6  IDS d 503       7.146  18.046 -20.519  0.00  0.00     0.206 C 
ATOM     40  O1S IDS d 503       5.508  15.282 -13.947  0.00  0.00    -0.572 OA
ATOM     41  O3S IDS d 503       4.764  17.542 -14.144  0.00  0.00    -0.572 OA
ATOM     42  C3  IDS d 503       5.971  15.363 -17.900  0.00  0.00     0.094 C 
ATOM     43  O2S IDS d 503       7.053  17.088 -13.673  0.00  0.00    -0.572 OA
ATOM     44  S   IDS d 503       5.852  16.624 -14.308  0.00  0.00     0.252 S 
ATOM     45  O3  IDS d 503       4.953  14.708 -18.635  0.00  0.00    -0.390 OA
ATOM     46  C1  IDS d 503       4.949  17.753 -17.532  0.00  0.00     0.161 C 
ATOM     47  C2  IDS d 503       5.308  16.371 -16.919  0.00  0.00     0.134 C 
ATOM     48  H   IDS d 503       5.426  16.969 -20.024  0.00  0.00     0.104 H 
ATOM     49  H   IDS d 503       7.164  15.403 -19.754  0.00  0.00     0.092 H 
ATOM     50  H   IDS d 503       6.543  14.684 -17.303  0.00  0.00     0.091 H 
ATOM     51  H   IDS d 503       4.463  15.359 -19.160  0.00  0.00     0.210 HD
ATOM     52  H   IDS d 503       4.881  18.489 -16.759  0.00  0.00     0.133 H 
ATOM     53  H   IDS d 503       4.383  15.921 -16.626  0.00  0.00     0.097 H 
ATOM     54  C4  IDS d 505      16.070  19.977 -18.484  0.00  0.00    -0.005 C 
ATOM     55  C5  IDS d 505      15.501  18.779 -17.654  0.00  0.00     0.127 C 
ATOM     56  O2  IDS d 505      13.175  20.020 -20.910  0.00  0.00    -0.388 OA
ATOM     57  O62 IDS d 505      17.030  16.970 -17.255  0.00  0.00    -0.646 OA
ATOM     58  C1  IDS d 505      13.668  18.342 -19.245  0.00  0.00     0.159 C 
ATOM     59  O5  IDS d 505      14.817  17.855 -18.532  0.00  0.00    -0.343 OA
ATOM     60  O1  IDS d 505      12.502  18.239 -18.474  0.00  0.00    -0.348 OA
ATOM     61  O61 IDS d 505      17.023  18.490 -15.844  0.00  0.00    -0.646 OA
ATOM     62  C6  IDS d 505      16.582  18.032 -16.872  0.00  0.00     0.203 C 
ATOM     63  C3  IDS d 505      15.309  20.182 -19.820  0.00  0.00     0.068 C 
ATOM     64  C2  IDS d 505      13.822  19.827 -19.666  0.00  0.00     0.107 C 
ATOM     65  H   IDS d 505      15.987  20.870 -17.900  0.00  0.00     0.041 H 
ATOM     66  H   IDS d 505      17.090  19.758 -18.719  0.00  0.00     0.041 H 
ATOM     67  H   IDS d 505      14.820  19.192 -16.940  0.00  0.00     0.100 H 
ATOM     68  H   IDS d 505      12.235  19.797 -20.823  0.00  0.00     0.210 HD
ATOM     69  H   IDS d 505      13.592  17.728 -20.118  0.00  0.00     0.133 H 
ATOM     70  H   IDS d 505      15.729  19.540 -20.566  0.00  0.00     0.087 H 
ATOM     71  H   IDS d 505      13.385  20.452 -18.915  0.00  0.00     0.094 H 
ATOM     72  O4S SGN d 504      13.382  14.550 -22.665  0.00  0.00    -0.572 OA
ATOM     73  C2  SGN d 504      10.320  15.486 -17.327  0.00  0.00     0.081 C 
ATOM     74  O2S SGN d 504      10.000  13.657 -14.147  0.00  0.00    -0.296 OA
ATOM     75  C5  SGN d 504      10.548  17.010 -19.796  0.00  0.00     0.091 C 
ATOM     76  O3S SGN d 504       8.167  13.286 -15.627  0.00  0.00    -0.296 OA
ATOM     77  N   SGN d 504       9.656  15.179 -16.048  0.00  0.00    -0.210 NA
ATOM     78  O1S SGN d 504      10.375  12.789 -16.343  0.00  0.00    -0.296 OA
ATOM     79  S1  SGN d 504       9.559  13.625 -15.512  0.00  0.00     0.156 S 
ATOM     80  C4  SGN d 504      11.657  17.104 -18.693  0.00  0.00     0.095 C 
ATOM     81  O1  SGN d 504       8.166  16.267 -18.200  0.00  0.00    -0.348 OA
ATOM     82  O6S SGN d 504      13.035  16.737 -23.567  0.00  0.00    -0.572 OA
ATOM     83  O6  SGN d 504      11.965  16.118 -21.513  0.00  0.00    -0.254 OA
ATOM     84  O5S SGN d 504      11.251  15.151 -23.565  0.00  0.00    -0.572 OA
ATOM     85  O3  SGN d 504      11.945  16.951 -16.295  0.00  0.00    -0.391 OA
ATOM     86  O5  SGN d 504       9.849  15.738 -19.721  0.00  0.00    -0.349 OA
ATOM     87  C6  SGN d 504      11.052  17.161 -21.240  0.00  0.00     0.067 C 
ATOM     88  S2  SGN d 504      12.446  15.607 -22.909  0.00  0.00     0.251 S 
ATOM     89  C3  SGN d 504      10.972  16.887 -17.321  0.00  0.00     0.083 C 
ATOM     90  C1  SGN d 504       9.259  15.413 -18.460  0.00  0.00     0.150 C 
ATOM     91  H   SGN d 504      11.100  14.771 -17.484  0.00  0.00     0.076 H 
ATOM     92  H   SGN d 504       9.415  14.234 -13.631  0.00  0.00     0.231 HD
ATOM     93  H   SGN d 504       9.907  17.840 -19.583  0.00  0.00     0.090 H 
ATOM     94  H   SGN d 504       7.645  13.868 -15.055  0.00  0.00     0.231 HD
ATOM     95  H   SGN d 504       8.698  15.522 -16.126  0.00  0.00     0.140 HD
ATOM     96  H   SGN d 504      10.321  11.872 -16.031  0.00  0.00     0.231 HD
ATOM     97  H   SGN d 504      12.336  16.384 -19.099  0.00  0.00     0.091 H 
ATOM     98  H   SGN d 504      11.518  16.815 -15.434  0.00  0.00     0.210 HD
ATOM     99  H   SGN d 504      11.540  18.106 -21.354  0.00  0.00     0.080 H 
ATOM    100  H   SGN d 504      10.227  17.110 -21.919  0.00  0.00     0.080 H 
ATOM    101  H   SGN d 504      10.232  17.639 -17.147  0.00  0.00     0.089 H 
ATOM    102  H   SGN d 504       8.893  14.409 -18.495  0.00  0.00     0.131 H 
ATOM    103  C1  IDS d 501      -4.779  19.268 -18.319  0.00  0.00     0.156 C 
ATOM    104  O3  IDS d 501      -2.275  20.098 -16.565  0.00  0.00    -0.390 OA
ATOM    105  C2  IDS d 501      -3.999  20.604 -18.185  0.00  0.00     0.110 C 
ATOM    106  C4  IDS d 501      -1.837  19.306 -18.795  0.00  0.00     0.103 C 
ATOM    107  C6  IDS d 501      -2.217  16.850 -19.551  0.00  0.00     0.206 C 
ATOM    108  C3  IDS d 501      -2.477  20.427 -17.925  0.00  0.00     0.092 C 
ATOM    109  O5  IDS d 501      -4.062  18.364 -19.159  0.00  0.00    -0.340 OA
ATOM    110  O2  IDS d 501      -4.168  21.332 -19.388  0.00  0.00    -0.388 OA
ATOM    111  C5  IDS d 501      -2.727  18.035 -18.732  0.00  0.00     0.152 C 
ATOM    112  O62 IDS d 501      -1.599  15.957 -19.022  0.00  0.00    -0.646 OA
ATOM    113  O61 IDS d 501      -2.413  16.774 -20.744  0.00  0.00    -0.646 OA
ATOM    114  O1  IDS d 501      -5.000  18.739 -17.038  0.00  0.00    -0.368 OA
ATOM    115  H   IDS d 501      -5.730  19.435 -18.781  0.00  0.00     0.133 H 
ATOM    116  H   IDS d 501      -2.667  20.786 -16.005  0.00  0.00     0.210 HD
ATOM    117  H   IDS d 501      -4.397  21.115 -17.333  0.00  0.00     0.094 H 
ATOM    118  H   IDS d 501      -1.672  20.007 -19.586  0.00  0.00     0.092 H 
ATOM    119  H   IDS d 501      -2.007  21.353 -18.186  0.00  0.00     0.091 H 
ATOM    120  H   IDS d 501      -3.793  20.828 -20.126  0.00  0.00     0.210 HD
ATOM    121  H   IDS d 501      -2.703  17.718 -17.710  0.00  0.00     0.104 H 
ATOM    122  H   IDS d 501      -4.147  18.580 -16.603  0.00  0.00     0.212 HD
ATOM    123  O3  IDS d 535      15.432  21.537 -20.200  0.00  0.00    -0.393 OA
ATOM    124  H   IDS d 535      16.371  21.761 -20.297  0.00  0.00     0.210 HD
ENDROOT
TORSDOF 37
ENDMDL
MODEL 53
REMARK VINA RESULT:      -5.5      3.462      4.381
REMARK  0 active torsions:
REMARK  status: ('A' for Active; 'I' for Inactive)
REMARK       I    between atoms: O3_1  and  C3_48 
REMARK       I    between atoms: C1_2  and  O1_8 
REMARK       I    between atoms: O2_5  and  C2_76 
REMARK       I    between atoms: O2_5  and  S_66 
REMARK       I    between atoms: C2_7  and  N_46 
REMARK       I    between atoms: O1_8  and  C4_39 
REMARK       I    between atoms: C2_12  and  N_23 
REMARK       I    between atoms: O2S_13  and  S1_25 
REMARK       I    between atoms: C1_14  and  O1_65 
REMARK       I    between atoms: O3_15  and  C3_69 
REMARK       I    between atoms: C5_16  and  C6_31 
REMARK       I    between atoms: C5_17  and  C6_68 
REMARK       I    between atoms: C5_18  and  C6_71 
REMARK       I    between atoms: O3S_19  and  S1_25 
REMARK       I    between atoms: C6_20  and  C5_28 
REMARK       I    between atoms: C6_20  and  O6_74 
REMARK       I    between atoms: C4_21  and  O1_35 
REMARK       I    between atoms: S2_22  and  O6_74 
REMARK       I    between atoms: N_23  and  S1_25 
REMARK       I    between atoms: O1S_24  and  S1_25 
REMARK       I    between atoms: C4_27  and  O1_63 
REMARK       I    between atoms: O1_29  and  C4_49 
REMARK       I    between atoms: O1_29  and  C1_73 
REMARK       I    between atoms: O2_30  and  C2_78 
REMARK       I    between atoms: O3_33  and  C3_42 
REMARK       I    between atoms: O1_35  and  C1_77 
REMARK       I    between atoms: O3S_37  and  S1_50 
REMARK       I    between atoms: C2_38  and  O2_45 
REMARK       I    between atoms: C6_40  and  C5_51 
REMARK       I    between atoms: C3_41  and  O3_67 
REMARK       I    between atoms: N_46  and  S1_50 
REMARK       I    between atoms: O6_47  and  C6_71 
REMARK       I    between atoms: O6_47  and  S2_72 
REMARK       I    between atoms: S1_50  and  O1S_61 
REMARK       I    between atoms: S1_50  and  O2S_54 
REMARK       I    between atoms: O3_56  and  C3_75 
REMARK       I    between atoms: C1_58  and  O1_63 
ROOT
ATOM      1  O3  SGN d 502       3.684  19.300 -20.574  0.00  0.00    -0.391 OA
ATOM      2  C1  SGN d 502       1.142  21.300 -18.637  0.00  0.00     0.150 C 
ATOM      3  O6S SGN d 502       4.816  21.176 -13.375  0.00  0.00    -0.572 OA
ATOM      4  C2  SGN d 502       2.148  20.984 -19.777  0.00  0.00     0.081 C 
ATOM      5  O1  SGN d 502       0.028  20.432 -18.688  0.00  0.00    -0.348 OA
ATOM      6  O5  SGN d 502       1.787  21.205 -17.358  0.00  0.00    -0.349 OA
ATOM      7  C6  SGN d 502       3.035  20.055 -15.647  0.00  0.00     0.067 C 
ATOM      8  S2  SGN d 502       4.628  21.925 -14.583  0.00  0.00     0.251 S 
ATOM      9  C5  SGN d 502       2.454  19.948 -17.070  0.00  0.00     0.091 C 
ATOM     10  O3S SGN d 502       0.828  23.413 -21.275  0.00  0.00    -0.296 OA
ATOM     11  N   SGN d 502       1.439  21.062 -21.062  0.00  0.00    -0.210 NA
ATOM     12  C3  SGN d 502       2.758  19.589 -19.544  0.00  0.00     0.083 C 
ATOM     13  C4  SGN d 502       3.496  19.613 -18.186  0.00  0.00     0.095 C 
ATOM     14  S1  SGN d 502       1.577  22.412 -21.981  0.00  0.00     0.156 S 
ATOM     15  O2S SGN d 502       0.991  22.083 -23.248  0.00  0.00    -0.296 OA
ATOM     16  O4S SGN d 502       5.835  22.532 -15.056  0.00  0.00    -0.572 OA
ATOM     17  O1S SGN d 502       2.963  22.759 -22.080  0.00  0.00    -0.296 OA
ATOM     18  O5S SGN d 502       3.538  22.855 -14.486  0.00  0.00    -0.572 OA
ATOM     19  O6  SGN d 502       4.174  20.895 -15.669  0.00  0.00    -0.254 OA
ATOM     20  H   SGN d 502       3.223  19.284 -21.428  0.00  0.00     0.210 HD
ATOM     21  H   SGN d 502       0.791  22.301 -18.774  0.00  0.00     0.131 H 
ATOM     22  H   SGN d 502       2.949  21.693 -19.789  0.00  0.00     0.076 H 
ATOM     23  H   SGN d 502       3.315  19.082 -15.301  0.00  0.00     0.080 H 
ATOM     24  H   SGN d 502       2.298  20.466 -14.989  0.00  0.00     0.080 H 
ATOM     25  H   SGN d 502       1.780  19.117 -17.083  0.00  0.00     0.090 H 
ATOM     26  H   SGN d 502       1.260  23.602 -20.428  0.00  0.00     0.231 HD
ATOM     27  H   SGN d 502       0.446  20.941 -20.860  0.00  0.00     0.140 HD
ATOM     28  H   SGN d 502       1.992  18.842 -19.543  0.00  0.00     0.089 H 
ATOM     29  H   SGN d 502       4.265  20.347 -18.067  0.00  0.00     0.091 H 
ATOM     30  H   SGN d 502       0.056  21.856 -23.123  0.00  0.00     0.231 HD
ATOM     31  H   SGN d 502       3.306  22.972 -21.198  0.00  0.00     0.231 HD
ATOM     32  O62 IDS d 503       6.952  17.802 -22.066  0.00  0.00    -0.646 OA
ATOM     33  O2  IDS d 503       6.629  16.834 -16.126  0.00  0.00    -0.244 OA
ATOM     34  O5  IDS d 503       6.322  18.456 -18.685  0.00  0.00    -0.340 OA
ATOM     35  C5  IDS d 503       6.349  17.528 -19.779  0.00  0.00     0.152 C 
ATOM     36  C4  IDS d 503       6.858  16.162 -19.265  0.00  0.00     0.103 C 
ATOM     37  O61 IDS d 503       8.034  18.949 -20.721  0.00  0.00    -0.646 OA
ATOM     38  O1  IDS d 503       4.051  18.300 -18.116  0.00  0.00    -0.348 OA
ATOM     39  C6  IDS d 503       7.162  18.130 -20.921  0.00  0.00     0.206 C 
ATOM     40  O1S IDS d 503       6.006  15.641 -14.139  0.00  0.00    -0.572 OA
ATOM     41  O3S IDS d 503       5.618  17.994 -14.275  0.00  0.00    -0.572 OA
ATOM     42  C3  IDS d 503       5.934  15.663 -18.120  0.00  0.00     0.094 C 
ATOM     43  O2S IDS d 503       7.846  17.170 -14.109  0.00  0.00    -0.572 OA
ATOM     44  S   IDS d 503       6.511  16.911 -14.568  0.00  0.00     0.252 S 
ATOM     45  O3  IDS d 503       4.734  15.186 -18.699  0.00  0.00    -0.390 OA
ATOM     46  C1  IDS d 503       5.373  18.186 -17.660  0.00  0.00     0.161 C 
ATOM     47  C2  IDS d 503       5.584  16.762 -17.077  0.00  0.00     0.134 C 
ATOM     48  H   IDS d 503       5.374  17.346 -20.180  0.00  0.00     0.104 H 
ATOM     49  H   IDS d 503       6.855  15.517 -20.118  0.00  0.00     0.092 H 
ATOM     50  H   IDS d 503       6.465  14.898 -17.593  0.00  0.00     0.091 H 
ATOM     51  H   IDS d 503       4.289  15.911 -19.165  0.00  0.00     0.210 HD
ATOM     52  H   IDS d 503       5.531  18.920 -16.898  0.00  0.00     0.133 H 
ATOM     53  H   IDS d 503       4.646  16.467 -16.653  0.00  0.00     0.097 H 
ATOM     54  C4  IDS d 505      16.473  18.574 -20.141  0.00  0.00    -0.005 C 
ATOM     55  C5  IDS d 505      15.836  17.481 -19.221  0.00  0.00     0.127 C 
ATOM     56  O2  IDS d 505      13.321  19.097 -22.156  0.00  0.00    -0.388 OA
ATOM     57  O62 IDS d 505      17.092  15.445 -19.000  0.00  0.00    -0.646 OA
ATOM     58  C1  IDS d 505      13.757  17.355 -20.543  0.00  0.00     0.159 C 
ATOM     59  O5  IDS d 505      14.899  16.684 -19.983  0.00  0.00    -0.343 OA
ATOM     60  O1  IDS d 505      12.706  17.439 -19.620  0.00  0.00    -0.348 OA
ATOM     61  O61 IDS d 505      17.523  16.939 -17.628  0.00  0.00    -0.646 OA
ATOM     62  C6  IDS d 505      16.877  16.563 -18.579  0.00  0.00     0.203 C 
ATOM     63  C3  IDS d 505      15.581  18.906 -21.366  0.00  0.00     0.068 C 
ATOM     64  C2  IDS d 505      14.091  18.796 -21.007  0.00  0.00     0.107 C 
ATOM     65  H   IDS d 505      16.617  19.465 -19.568  0.00  0.00     0.041 H 
ATOM     66  H   IDS d 505      17.403  18.192 -20.508  0.00  0.00     0.041 H 
ATOM     67  H   IDS d 505      15.334  17.996 -18.429  0.00  0.00     0.100 H 
ATOM     68  H   IDS d 505      12.378  19.031 -21.939  0.00  0.00     0.210 HD
ATOM     69  H   IDS d 505      13.465  16.765 -21.386  0.00  0.00     0.133 H 
ATOM     70  H   IDS d 505      15.787  18.207 -22.150  0.00  0.00     0.087 H 
ATOM     71  H   IDS d 505      13.868  19.481 -20.216  0.00  0.00     0.094 H 
ATOM     72  O4S SGN d 504      12.399  13.675 -23.825  0.00  0.00    -0.572 OA
ATOM     73  C2  SGN d 504      10.283  15.073 -18.141  0.00  0.00     0.081 C 
ATOM     74  O2S SGN d 504      10.106  13.307 -14.914  0.00  0.00    -0.296 OA
ATOM     75  C5  SGN d 504      10.418  16.551 -20.645  0.00  0.00     0.091 C 
ATOM     76  O3S SGN d 504       8.054  13.246 -16.127  0.00  0.00    -0.296 OA
ATOM     77  N   SGN d 504       9.758  14.874 -16.778  0.00  0.00    -0.210 NA
ATOM     78  O1S SGN d 504      10.034  12.400 -17.125  0.00  0.00    -0.296 OA
ATOM     79  S1  SGN d 504       9.484  13.354 -16.207  0.00  0.00     0.156 S 
ATOM     80  C4  SGN d 504      11.666  16.458 -19.703  0.00  0.00     0.095 C 
ATOM     81  O1  SGN d 504       8.185  16.199 -18.729  0.00  0.00    -0.348 OA
ATOM     82  O6S SGN d 504      12.292  15.893 -24.711  0.00  0.00    -0.572 OA
ATOM     83  O6  SGN d 504      11.425  15.448 -22.521  0.00  0.00    -0.254 OA
ATOM     84  O5S SGN d 504      10.291  14.619 -24.440  0.00  0.00    -0.572 OA
ATOM     85  O3  SGN d 504      12.249  16.250 -17.363  0.00  0.00    -0.391 OA
ATOM     86  O5  SGN d 504       9.539  15.409 -20.454  0.00  0.00    -0.349 OA
ATOM     87  C6  SGN d 504      10.738  16.624 -22.145  0.00  0.00     0.067 C 
ATOM     88  S2  SGN d 504      11.622  14.871 -23.960  0.00  0.00     0.251 S 
ATOM     89  C3  SGN d 504      11.148  16.349 -18.247  0.00  0.00     0.083 C 
ATOM     90  C1  SGN d 504       9.081  15.180 -19.119  0.00  0.00     0.150 C 
ATOM     91  H   SGN d 504      10.909  14.242 -18.389  0.00  0.00     0.076 H 
ATOM     92  H   SGN d 504       9.698  13.970 -14.335  0.00  0.00     0.231 HD
ATOM     93  H   SGN d 504       9.954  17.474 -20.362  0.00  0.00     0.090 H 
ATOM     94  H   SGN d 504       7.715  13.903 -15.500  0.00  0.00     0.231 HD
ATOM     95  H   SGN d 504       8.867  15.369 -16.733  0.00  0.00     0.140 HD
ATOM     96  H   SGN d 504       9.875  11.502 -16.792  0.00  0.00     0.231 HD
ATOM     97  H   SGN d 504      12.159  15.639 -20.184  0.00  0.00     0.091 H 
ATOM     98  H   SGN d 504      11.927  16.182 -16.451  0.00  0.00     0.210 HD
ATOM     99  H   SGN d 504      11.353  17.478 -22.341  0.00  0.00     0.080 H 
ATOM    100  H   SGN d 504       9.831  16.712 -22.707  0.00  0.00     0.080 H 
ATOM    101  H   SGN d 504      10.571  17.212 -17.989  0.00  0.00     0.089 H 
ATOM    102  H   SGN d 504       8.555  14.248 -19.086  0.00  0.00     0.131 H 
ATOM    103  C1  IDS d 501      -3.997  21.269 -17.157  0.00  0.00     0.156 C 
ATOM    104  O3  IDS d 501      -1.177  21.673 -15.771  0.00  0.00    -0.390 OA
ATOM    105  C2  IDS d 501      -3.000  22.460 -17.153  0.00  0.00     0.110 C 
ATOM    106  C4  IDS d 501      -1.180  20.830 -18.025  0.00  0.00     0.103 C 
ATOM    107  C6  IDS d 501      -2.052  18.472 -18.679  0.00  0.00     0.206 C 
ATOM    108  C3  IDS d 501      -1.506  22.036 -17.097  0.00  0.00     0.092 C 
ATOM    109  O5  IDS d 501      -3.556  20.264 -18.069  0.00  0.00    -0.340 OA
ATOM    110  O2  IDS d 501      -3.211  23.211 -18.335  0.00  0.00    -0.388 OA
ATOM    111  C5  IDS d 501      -2.247  19.721 -17.820  0.00  0.00     0.152 C 
ATOM    112  O62 IDS d 501      -1.520  17.487 -18.222  0.00  0.00    -0.646 OA
ATOM    113  O61 IDS d 501      -2.418  18.433 -19.833  0.00  0.00    -0.646 OA
ATOM    114  O1  IDS d 501      -4.124  20.778 -15.848  0.00  0.00    -0.368 OA
ATOM    115  H   IDS d 501      -4.962  21.591 -17.489  0.00  0.00     0.133 H 
ATOM    116  H   IDS d 501      -1.372  22.413 -15.175  0.00  0.00     0.210 HD
ATOM    117  H   IDS d 501      -3.190  23.025 -16.264  0.00  0.00     0.094 H 
ATOM    118  H   IDS d 501      -1.013  21.498 -18.844  0.00  0.00     0.092 H 
ATOM    119  H   IDS d 501      -0.932  22.874 -17.435  0.00  0.00     0.091 H 
ATOM    120  H   IDS d 501      -3.026  22.655 -19.108  0.00  0.00     0.210 HD
ATOM    121  H   IDS d 501      -2.136  19.399 -16.805  0.00  0.00     0.104 H 
ATOM    122  H   IDS d 501      -3.258  20.480 -15.529  0.00  0.00     0.212 HD
ATOM    123  O3  IDS d 535      15.870  20.224 -21.784  0.00  0.00    -0.393 OA
ATOM    124  H   IDS d 535      16.811  20.293 -22.010  0.00  0.00     0.210 HD
ENDROOT
TORSDOF 37
ENDMDL
MODEL 54
REMARK VINA RESULT:      -5.5      5.462     12.364
REMARK  0 active torsions:
REMARK  status: ('A' for Active; 'I' for Inactive)
REMARK       I    between atoms: O3_1  and  C3_48 
REMARK       I    between atoms: C1_2  and  O1_8 
REMARK       I    between atoms: O2_5  and  C2_76 
REMARK       I    between atoms: O2_5  and  S_66 
REMARK       I    between atoms: C2_7  and  N_46 
REMARK       I    between atoms: O1_8  and  C4_39 
REMARK       I    between atoms: C2_12  and  N_23 
REMARK       I    between atoms: O2S_13  and  S1_25 
REMARK       I    between atoms: C1_14  and  O1_65 
REMARK       I    between atoms: O3_15  and  C3_69 
REMARK       I    between atoms: C5_16  and  C6_31 
REMARK       I    between atoms: C5_17  and  C6_68 
REMARK       I    between atoms: C5_18  and  C6_71 
REMARK       I    between atoms: O3S_19  and  S1_25 
REMARK       I    between atoms: C6_20  and  C5_28 
REMARK       I    between atoms: C6_20  and  O6_74 
REMARK       I    between atoms: C4_21  and  O1_35 
REMARK       I    between atoms: S2_22  and  O6_74 
REMARK       I    between atoms: N_23  and  S1_25 
REMARK       I    between atoms: O1S_24  and  S1_25 
REMARK       I    between atoms: C4_27  and  O1_63 
REMARK       I    between atoms: O1_29  and  C4_49 
REMARK       I    between atoms: O1_29  and  C1_73 
REMARK       I    between atoms: O2_30  and  C2_78 
REMARK       I    between atoms: O3_33  and  C3_42 
REMARK       I    between atoms: O1_35  and  C1_77 
REMARK       I    between atoms: O3S_37  and  S1_50 
REMARK       I    between atoms: C2_38  and  O2_45 
REMARK       I    between atoms: C6_40  and  C5_51 
REMARK       I    between atoms: C3_41  and  O3_67 
REMARK       I    between atoms: N_46  and  S1_50 
REMARK       I    between atoms: O6_47  and  C6_71 
REMARK       I    between atoms: O6_47  and  S2_72 
REMARK       I    between atoms: S1_50  and  O1S_61 
REMARK       I    between atoms: S1_50  and  O2S_54 
REMARK       I    between atoms: O3_56  and  C3_75 
REMARK       I    between atoms: C1_58  and  O1_63 
ROOT
ATOM      1  O3  SGN d 502       9.145  16.378 -21.079  0.00  0.00    -0.391 OA
ATOM      2  C1  SGN d 502      12.483  14.717 -20.518  0.00  0.00     0.150 C 
ATOM      3  O6S SGN d 502      14.922  20.101 -18.014  0.00  0.00    -0.572 OA
ATOM      4  C2  SGN d 502      10.950  14.931 -20.387  0.00  0.00     0.081 C 
ATOM      5  O1  SGN d 502      12.838  14.383 -21.844  0.00  0.00    -0.348 OA
ATOM      6  O5  SGN d 502      13.191  15.892 -20.096  0.00  0.00    -0.349 OA
ATOM      7  C6  SGN d 502      13.727  18.240 -20.183  0.00  0.00     0.067 C 
ATOM      8  S2  SGN d 502      14.172  18.939 -17.636  0.00  0.00     0.251 S 
ATOM      9  C5  SGN d 502      12.825  17.132 -20.758  0.00  0.00     0.091 C 
ATOM     10  O3S SGN d 502      10.892  12.003 -19.242  0.00  0.00    -0.296 OA
ATOM     11  N   SGN d 502      10.267  13.718 -20.860  0.00  0.00    -0.210 NA
ATOM     12  C3  SGN d 502      10.539  16.172 -21.203  0.00  0.00     0.083 C 
ATOM     13  C4  SGN d 502      11.289  17.393 -20.621  0.00  0.00     0.095 C 
ATOM     14  S1  SGN d 502       9.711  12.628 -19.769  0.00  0.00     0.156 S 
ATOM     15  O2S SGN d 502       8.895  11.713 -20.513  0.00  0.00    -0.296 OA
ATOM     16  O4S SGN d 502      13.280  19.183 -16.544  0.00  0.00    -0.572 OA
ATOM     17  O1S SGN d 502       8.983  13.326 -18.752  0.00  0.00    -0.296 OA
ATOM     18  O5S SGN d 502      15.008  17.791 -17.426  0.00  0.00    -0.572 OA
ATOM     19  O6  SGN d 502      13.292  18.566 -18.875  0.00  0.00    -0.254 OA
ATOM     20  H   SGN d 502       8.672  15.613 -21.443  0.00  0.00     0.210 HD
ATOM     21  H   SGN d 502      12.758  13.901 -19.884  0.00  0.00     0.131 H 
ATOM     22  H   SGN d 502      10.672  15.102 -19.369  0.00  0.00     0.076 H 
ATOM     23  H   SGN d 502      13.668  19.109 -20.805  0.00  0.00     0.080 H 
ATOM     24  H   SGN d 502      14.739  17.897 -20.149  0.00  0.00     0.080 H 
ATOM     25  H   SGN d 502      12.991  17.094 -21.814  0.00  0.00     0.090 H 
ATOM     26  H   SGN d 502      11.411  12.657 -18.749  0.00  0.00     0.231 HD
ATOM     27  H   SGN d 502      10.923  13.224 -21.464  0.00  0.00     0.140 HD
ATOM     28  H   SGN d 502      10.782  16.037 -22.236  0.00  0.00     0.089 H 
ATOM     29  H   SGN d 502      11.141  17.600 -19.583  0.00  0.00     0.091 H 
ATOM     30  H   SGN d 502       9.436  11.270 -21.185  0.00  0.00     0.231 HD
ATOM     31  H   SGN d 502       9.582  13.928 -18.283  0.00  0.00     0.231 HD
ATOM     32  O62 IDS d 503       5.904  18.513 -20.778  0.00  0.00    -0.646 OA
ATOM     33  O2  IDS d 503      10.802  22.016 -21.026  0.00  0.00    -0.244 OA
ATOM     34  O5  IDS d 503       9.172  19.599 -20.147  0.00  0.00    -0.340 OA
ATOM     35  C5  IDS d 503       8.059  19.492 -21.045  0.00  0.00     0.152 C 
ATOM     36  C4  IDS d 503       7.939  20.804 -21.854  0.00  0.00     0.103 C 
ATOM     37  O61 IDS d 503       6.698  19.389 -19.075  0.00  0.00    -0.646 OA
ATOM     38  O1  IDS d 503      10.789  18.466 -21.416  0.00  0.00    -0.348 OA
ATOM     39  C6  IDS d 503       6.814  19.110 -20.249  0.00  0.00     0.206 C 
ATOM     40  O1S IDS d 503      12.528  23.283 -22.110  0.00  0.00    -0.572 OA
ATOM     41  O3S IDS d 503      13.102  21.759 -20.363  0.00  0.00    -0.572 OA
ATOM     42  C3  IDS d 503       9.265  21.060 -22.622  0.00  0.00     0.094 C 
ATOM     43  O2S IDS d 503      11.916  23.757 -19.846  0.00  0.00    -0.572 OA
ATOM     44  S   IDS d 503      12.173  22.745 -20.830  0.00  0.00     0.252 S 
ATOM     45  O3  IDS d 503       9.307  20.183 -23.733  0.00  0.00    -0.390 OA
ATOM     46  C1  IDS d 503      10.459  19.657 -20.752  0.00  0.00     0.161 C 
ATOM     47  C2  IDS d 503      10.540  20.836 -21.760  0.00  0.00     0.134 C 
ATOM     48  H   IDS d 503       8.193  18.713 -21.766  0.00  0.00     0.104 H 
ATOM     49  H   IDS d 503       7.099  20.664 -22.502  0.00  0.00     0.092 H 
ATOM     50  H   IDS d 503       9.269  22.089 -22.915  0.00  0.00     0.091 H 
ATOM     51  H   IDS d 503       9.301  19.264 -23.420  0.00  0.00     0.210 HD
ATOM     52  H   IDS d 503      11.161  19.806 -19.959  0.00  0.00     0.133 H 
ATOM     53  H   IDS d 503      11.316  20.588 -22.454  0.00  0.00     0.097 H 
ATOM     54  C4  IDS d 505       2.731  25.544 -14.823  0.00  0.00    -0.005 C 
ATOM     55  C5  IDS d 505       3.598  26.171 -15.964  0.00  0.00     0.127 C 
ATOM     56  O2  IDS d 505       2.799  22.073 -16.312  0.00  0.00    -0.388 OA
ATOM     57  O62 IDS d 505       2.711  28.162 -16.973  0.00  0.00    -0.646 OA
ATOM     58  C1  IDS d 505       3.552  24.124 -17.340  0.00  0.00     0.159 C 
ATOM     59  O5  IDS d 505       3.287  25.532 -17.225  0.00  0.00    -0.343 OA
ATOM     60  O1  IDS d 505       4.880  23.879 -17.715  0.00  0.00    -0.348 OA
ATOM     61  O61 IDS d 505       3.936  28.440 -15.322  0.00  0.00    -0.646 OA
ATOM     62  C6  IDS d 505       3.403  27.681 -16.098  0.00  0.00     0.203 C 
ATOM     63  C3  IDS d 505       2.244  24.112 -15.172  0.00  0.00     0.068 C 
ATOM     64  C2  IDS d 505       3.291  23.365 -16.012  0.00  0.00     0.107 C 
ATOM     65  H   IDS d 505       3.317  25.500 -13.929  0.00  0.00     0.041 H 
ATOM     66  H   IDS d 505       1.866  26.160 -14.693  0.00  0.00     0.041 H 
ATOM     67  H   IDS d 505       4.622  26.004 -15.702  0.00  0.00     0.100 H 
ATOM     68  H   IDS d 505       3.453  21.593 -16.843  0.00  0.00     0.210 HD
ATOM     69  H   IDS d 505       2.881  23.768 -18.094  0.00  0.00     0.133 H 
ATOM     70  H   IDS d 505       1.342  24.177 -15.745  0.00  0.00     0.087 H 
ATOM     71  H   IDS d 505       4.206  23.299 -15.460  0.00  0.00     0.094 H 
ATOM     72  O4S SGN d 504       0.771  23.293 -21.550  0.00  0.00    -0.572 OA
ATOM     73  C2  SGN d 504       6.873  24.259 -20.803  0.00  0.00     0.081 C 
ATOM     74  O2S SGN d 504       9.278  26.788 -21.977  0.00  0.00    -0.296 OA
ATOM     75  C5  SGN d 504       5.031  22.239 -19.803  0.00  0.00     0.091 C 
ATOM     76  O3S SGN d 504       9.322  24.785 -23.271  0.00  0.00    -0.296 OA
ATOM     77  N   SGN d 504       8.236  24.749 -21.081  0.00  0.00    -0.210 NA
ATOM     78  O1S SGN d 504       7.293  25.997 -23.049  0.00  0.00    -0.296 OA
ATOM     79  S1  SGN d 504       8.537  25.645 -22.429  0.00  0.00     0.156 S 
ATOM     80  C4  SGN d 504       5.147  23.634 -19.100  0.00  0.00     0.095 C 
ATOM     81  O1  SGN d 504       7.704  21.965 -21.050  0.00  0.00    -0.348 OA
ATOM     82  O6S SGN d 504       0.549  21.616 -19.860  0.00  0.00    -0.572 OA
ATOM     83  O6  SGN d 504       2.724  22.452 -20.423  0.00  0.00    -0.254 OA
ATOM     84  O5S SGN d 504       1.546  21.069 -21.958  0.00  0.00    -0.572 OA
ATOM     85  O3  SGN d 504       6.744  25.402 -18.674  0.00  0.00    -0.391 OA
ATOM     86  O5  SGN d 504       5.409  22.332 -21.204  0.00  0.00    -0.349 OA
ATOM     87  C6  SGN d 504       3.634  21.601 -19.758  0.00  0.00     0.067 C 
ATOM     88  S2  SGN d 504       1.308  22.093 -20.979  0.00  0.00     0.251 S 
ATOM     89  C3  SGN d 504       6.601  24.134 -19.287  0.00  0.00     0.083 C 
ATOM     90  C1  SGN d 504       6.706  22.868 -21.475  0.00  0.00     0.150 C 
ATOM     91  H   SGN d 504       6.172  24.963 -21.197  0.00  0.00     0.076 H 
ATOM     92  H   SGN d 504      10.108  26.494 -21.567  0.00  0.00     0.231 HD
ATOM     93  H   SGN d 504       5.696  21.616 -19.243  0.00  0.00     0.090 H 
ATOM     94  H   SGN d 504      10.154  24.567 -22.823  0.00  0.00     0.231 HD
ATOM     95  H   SGN d 504       8.837  23.926 -21.135  0.00  0.00     0.140 HD
ATOM     96  H   SGN d 504       7.467  26.526 -23.844  0.00  0.00     0.231 HD
ATOM     97  H   SGN d 504       4.323  24.117 -19.584  0.00  0.00     0.091 H 
ATOM     98  H   SGN d 504       7.654  25.717 -18.790  0.00  0.00     0.210 HD
ATOM     99  H   SGN d 504       3.330  21.474 -18.740  0.00  0.00     0.080 H 
ATOM    100  H   SGN d 504       3.656  20.644 -20.237  0.00  0.00     0.080 H 
ATOM    101  H   SGN d 504       7.293  23.451 -18.840  0.00  0.00     0.089 H 
ATOM    102  H   SGN d 504       6.813  23.005 -22.531  0.00  0.00     0.131 H 
ATOM    103  C1  IDS d 501      16.366  12.098 -23.097  0.00  0.00     0.156 C 
ATOM    104  O3  IDS d 501      16.140  14.534 -21.086  0.00  0.00    -0.390 OA
ATOM    105  C2  IDS d 501      16.100  12.164 -21.568  0.00  0.00     0.110 C 
ATOM    106  C4  IDS d 501      14.096  13.733 -22.072  0.00  0.00     0.103 C 
ATOM    107  C6  IDS d 501      13.517  13.987 -24.592  0.00  0.00     0.206 C 
ATOM    108  C3  IDS d 501      15.284  13.409 -21.121  0.00  0.00     0.092 C 
ATOM    109  O5  IDS d 501      15.174  12.405 -23.817  0.00  0.00    -0.340 OA
ATOM    110  O2  IDS d 501      15.383  11.001 -21.198  0.00  0.00    -0.388 OA
ATOM    111  C5  IDS d 501      14.590  13.691 -23.544  0.00  0.00     0.152 C 
ATOM    112  O62 IDS d 501      13.418  15.090 -25.076  0.00  0.00    -0.646 OA
ATOM    113  O61 IDS d 501      12.741  13.135 -24.962  0.00  0.00    -0.646 OA
ATOM    114  O1  IDS d 501      17.417  12.972 -23.414  0.00  0.00    -0.368 OA
ATOM    115  H   IDS d 501      16.657  11.108 -23.382  0.00  0.00     0.133 H 
ATOM    116  H   IDS d 501      16.889  14.353 -20.497  0.00  0.00     0.210 HD
ATOM    117  H   IDS d 501      17.053  12.234 -21.086  0.00  0.00     0.094 H 
ATOM    118  H   IDS d 501      13.468  13.062 -21.525  0.00  0.00     0.092 H 
ATOM    119  H   IDS d 501      14.880  13.185 -20.155  0.00  0.00     0.091 H 
ATOM    120  H   IDS d 501      14.530  10.985 -21.661  0.00  0.00     0.210 HD
ATOM    121  H   IDS d 501      15.308  14.480 -23.629  0.00  0.00     0.104 H 
ATOM    122  H   IDS d 501      17.172  13.876 -23.163  0.00  0.00     0.212 HD
ATOM    123  O3  IDS d 535       2.021  23.411 -13.966  0.00  0.00    -0.393 OA
ATOM    124  H   IDS d 535       1.360  23.883 -13.436  0.00  0.00     0.210 HD
ENDROOT
TORSDOF 37
ENDMDL
MODEL 55
REMARK VINA RESULT:      -5.4      4.391      8.579
REMARK  0 active torsions:
REMARK  status: ('A' for Active; 'I' for Inactive)
REMARK       I    between atoms: O3_1  and  C3_48 
REMARK       I    between atoms: C1_2  and  O1_8 
REMARK       I    between atoms: O2_5  and  C2_76 
REMARK       I    between atoms: O2_5  and  S_66 
REMARK       I    between atoms: C2_7  and  N_46 
REMARK       I    between atoms: O1_8  and  C4_39 
REMARK       I    between atoms: C2_12  and  N_23 
REMARK       I    between atoms: O2S_13  and  S1_25 
REMARK       I    between atoms: C1_14  and  O1_65 
REMARK       I    between atoms: O3_15  and  C3_69 
REMARK       I    between atoms: C5_16  and  C6_31 
REMARK       I    between atoms: C5_17  and  C6_68 
REMARK       I    between atoms: C5_18  and  C6_71 
REMARK       I    between atoms: O3S_19  and  S1_25 
REMARK       I    between atoms: C6_20  and  C5_28 
REMARK       I    between atoms: C6_20  and  O6_74 
REMARK       I    between atoms: C4_21  and  O1_35 
REMARK       I    between atoms: S2_22  and  O6_74 
REMARK       I    between atoms: N_23  and  S1_25 
REMARK       I    between atoms: O1S_24  and  S1_25 
REMARK       I    between atoms: C4_27  and  O1_63 
REMARK       I    between atoms: O1_29  and  C4_49 
REMARK       I    between atoms: O1_29  and  C1_73 
REMARK       I    between atoms: O2_30  and  C2_78 
REMARK       I    between atoms: O3_33  and  C3_42 
REMARK       I    between atoms: O1_35  and  C1_77 
REMARK       I    between atoms: O3S_37  and  S1_50 
REMARK       I    between atoms: C2_38  and  O2_45 
REMARK       I    between atoms: C6_40  and  C5_51 
REMARK       I    between atoms: C3_41  and  O3_67 
REMARK       I    between atoms: N_46  and  S1_50 
REMARK       I    between atoms: O6_47  and  C6_71 
REMARK       I    between atoms: O6_47  and  S2_72 
REMARK       I    between atoms: S1_50  and  O1S_61 
REMARK       I    between atoms: S1_50  and  O2S_54 
REMARK       I    between atoms: O3_56  and  C3_75 
REMARK       I    between atoms: C1_58  and  O1_63 
ROOT
ATOM      1  O3  SGN d 502      -0.184  15.363 -22.229  0.00  0.00    -0.391 OA
ATOM      2  C1  SGN d 502      -1.095  13.981 -25.616  0.00  0.00     0.150 C 
ATOM      3  O6S SGN d 502       4.805  15.149 -27.860  0.00  0.00    -0.572 OA
ATOM      4  C2  SGN d 502      -0.892  13.979 -24.076  0.00  0.00     0.081 C 
ATOM      5  O1  SGN d 502      -2.133  14.863 -25.991  0.00  0.00    -0.348 OA
ATOM      6  O5  SGN d 502       0.125  14.339 -26.282  0.00  0.00    -0.349 OA
ATOM      7  C6  SGN d 502       1.990  15.795 -26.741  0.00  0.00     0.067 C 
ATOM      8  S2  SGN d 502       4.064  14.150 -27.145  0.00  0.00     0.251 S 
ATOM      9  C5  SGN d 502       0.728  15.597 -25.880  0.00  0.00     0.091 C 
ATOM     10  O3S SGN d 502      -2.590  11.333 -24.107  0.00  0.00    -0.296 OA
ATOM     11  N   SGN d 502      -2.172  13.640 -23.437  0.00  0.00    -0.210 NA
ATOM     12  C3  SGN d 502      -0.380  15.362 -23.630  0.00  0.00     0.083 C 
ATOM     13  C4  SGN d 502       0.972  15.619 -24.336  0.00  0.00     0.095 C 
ATOM     14  S1  SGN d 502      -2.430  12.109 -22.910  0.00  0.00     0.156 S 
ATOM     15  O2S SGN d 502      -3.632  12.163 -22.129  0.00  0.00    -0.296 OA
ATOM     16  O4S SGN d 502       4.875  13.397 -26.238  0.00  0.00    -0.572 OA
ATOM     17  O1S SGN d 502      -1.291  11.686 -22.152  0.00  0.00    -0.296 OA
ATOM     18  O5S SGN d 502       3.285  13.318 -28.018  0.00  0.00    -0.572 OA
ATOM     19  O6  SGN d 502       3.007  14.922 -26.287  0.00  0.00    -0.254 OA
ATOM     20  H   SGN d 502      -1.030  15.203 -21.784  0.00  0.00     0.210 HD
ATOM     21  H   SGN d 502      -1.374  12.992 -25.913  0.00  0.00     0.131 H 
ATOM     22  H   SGN d 502      -0.164  13.251 -23.786  0.00  0.00     0.076 H 
ATOM     23  H   SGN d 502       2.325  16.808 -26.657  0.00  0.00     0.080 H 
ATOM     24  H   SGN d 502       1.762  15.580 -27.764  0.00  0.00     0.080 H 
ATOM     25  H   SGN d 502       0.082  16.432 -26.055  0.00  0.00     0.090 H 
ATOM     26  H   SGN d 502      -1.755  11.324 -24.601  0.00  0.00     0.231 HD
ATOM     27  H   SGN d 502      -2.906  13.848 -24.113  0.00  0.00     0.140 HD
ATOM     28  H   SGN d 502      -1.088  16.122 -23.885  0.00  0.00     0.089 H 
ATOM     29  H   SGN d 502       1.745  14.898 -24.174  0.00  0.00     0.091 H 
ATOM     30  H   SGN d 502      -4.369  12.454 -22.689  0.00  0.00     0.231 HD
ATOM     31  H   SGN d 502      -0.510  11.668 -22.727  0.00  0.00     0.231 HD
ATOM     32  O62 IDS d 503       1.620  16.329 -18.918  0.00  0.00    -0.646 OA
ATOM     33  O2  IDS d 503       4.459  18.654 -23.700  0.00  0.00    -0.244 OA
ATOM     34  O5  IDS d 503       2.969  16.501 -22.144  0.00  0.00    -0.340 OA
ATOM     35  C5  IDS d 503       2.322  17.149 -21.041  0.00  0.00     0.152 C 
ATOM     36  C4  IDS d 503       2.904  18.573 -20.884  0.00  0.00     0.103 C 
ATOM     37  O61 IDS d 503       3.354  15.475 -19.670  0.00  0.00    -0.646 OA
ATOM     38  O1  IDS d 503       1.358  16.885 -23.805  0.00  0.00    -0.348 OA
ATOM     39  C6  IDS d 503       2.442  16.264 -19.804  0.00  0.00     0.206 C 
ATOM     40  O1S IDS d 503       4.900  20.299 -25.389  0.00  0.00    -0.572 OA
ATOM     41  O3S IDS d 503       4.711  17.999 -26.002  0.00  0.00    -0.572 OA
ATOM     42  C3  IDS d 503       2.700  19.363 -22.205  0.00  0.00     0.094 C 
ATOM     43  O2S IDS d 503       6.594  18.737 -24.747  0.00  0.00    -0.572 OA
ATOM     44  S   IDS d 503       5.205  18.943 -25.044  0.00  0.00     0.252 S 
ATOM     45  O3  IDS d 503       1.340  19.748 -22.284  0.00  0.00    -0.390 OA
ATOM     46  C1  IDS d 503       2.701  17.042 -23.432  0.00  0.00     0.161 C 
ATOM     47  C2  IDS d 503       3.065  18.552 -23.481  0.00  0.00     0.134 C 
ATOM     48  H   IDS d 503       1.272  17.277 -21.206  0.00  0.00     0.104 H 
ATOM     49  H   IDS d 503       2.384  19.003 -20.053  0.00  0.00     0.092 H 
ATOM     50  H   IDS d 503       3.361  20.205 -22.178  0.00  0.00     0.091 H 
ATOM     51  H   IDS d 503       0.781  18.956 -22.306  0.00  0.00     0.210 HD
ATOM     52  H   IDS d 503       3.308  16.498 -24.124  0.00  0.00     0.133 H 
ATOM     53  H   IDS d 503       2.480  18.978 -24.269  0.00  0.00     0.097 H 
ATOM     54  C4  IDS d 505      10.707  15.594 -15.474  0.00  0.00    -0.005 C 
ATOM     55  C5  IDS d 505      10.570  16.897 -16.328  0.00  0.00     0.127 C 
ATOM     56  O2  IDS d 505       7.027  14.762 -15.666  0.00  0.00    -0.388 OA
ATOM     57  O62 IDS d 505      11.561  18.870 -15.382  0.00  0.00    -0.646 OA
ATOM     58  C1  IDS d 505       8.106  16.808 -16.359  0.00  0.00     0.159 C 
ATOM     59  O5  IDS d 505       9.304  17.538 -16.046  0.00  0.00    -0.343 OA
ATOM     60  O1  IDS d 505       7.728  16.986 -17.696  0.00  0.00    -0.348 OA
ATOM     61  O61 IDS d 505      12.793  17.715 -16.586  0.00  0.00    -0.646 OA
ATOM     62  C6  IDS d 505      11.707  17.890 -16.084  0.00  0.00     0.203 C 
ATOM     63  C3  IDS d 505       9.329  15.029 -15.037  0.00  0.00     0.068 C 
ATOM     64  C2  IDS d 505       8.264  15.285 -16.114  0.00  0.00     0.107 C 
ATOM     65  H   IDS d 505      11.214  14.853 -16.055  0.00  0.00     0.041 H 
ATOM     66  H   IDS d 505      11.255  15.839 -14.588  0.00  0.00     0.041 H 
ATOM     67  H   IDS d 505      10.621  16.601 -17.355  0.00  0.00     0.100 H 
ATOM     68  H   IDS d 505       6.347  14.919 -16.340  0.00  0.00     0.210 HD
ATOM     69  H   IDS d 505       7.354  17.200 -15.705  0.00  0.00     0.133 H 
ATOM     70  H   IDS d 505       9.018  15.518 -14.138  0.00  0.00     0.087 H 
ATOM     71  H   IDS d 505       8.563  14.811 -17.026  0.00  0.00     0.094 H 
ATOM     72  O4S SGN d 504       4.875  19.689 -13.635  0.00  0.00    -0.572 OA
ATOM     73  C2  SGN d 504       6.283  19.736 -19.697  0.00  0.00     0.081 C 
ATOM     74  O2S SGN d 504       7.713  22.205 -22.026  0.00  0.00    -0.296 OA
ATOM     75  C5  SGN d 504       5.180  17.716 -17.916  0.00  0.00     0.091 C 
ATOM     76  O3S SGN d 504       5.334  22.076 -22.144  0.00  0.00    -0.296 OA
ATOM     77  N   SGN d 504       6.557  20.268 -21.044  0.00  0.00    -0.210 NA
ATOM     78  O1S SGN d 504       6.383  22.580 -20.075  0.00  0.00    -0.296 OA
ATOM     79  S1  SGN d 504       6.500  21.889 -21.326  0.00  0.00     0.156 S 
ATOM     80  C4  SGN d 504       6.725  17.967 -17.981  0.00  0.00     0.095 C 
ATOM     81  O1  SGN d 504       4.307  18.601 -20.605  0.00  0.00    -0.348 OA
ATOM     82  O6S SGN d 504       4.505  17.334 -13.457  0.00  0.00    -0.572 OA
ATOM     83  O6  SGN d 504       4.917  18.310 -15.607  0.00  0.00    -0.254 OA
ATOM     84  O5S SGN d 504       2.861  18.724 -14.486  0.00  0.00    -0.572 OA
ATOM     85  O3  SGN d 504       8.453  18.683 -19.516  0.00  0.00    -0.391 OA
ATOM     86  O5  SGN d 504       4.444  18.909 -18.300  0.00  0.00    -0.349 OA
ATOM     87  C6  SGN d 504       4.648  17.285 -16.540  0.00  0.00     0.067 C 
ATOM     88  S2  SGN d 504       4.257  18.530 -14.208  0.00  0.00     0.251 S 
ATOM     89  C3  SGN d 504       7.064  18.432 -19.419  0.00  0.00     0.083 C 
ATOM     90  C1  SGN d 504       4.758  19.461 -19.581  0.00  0.00     0.150 C 
ATOM     91  H   SGN d 504       6.600  20.459 -18.976  0.00  0.00     0.076 H 
ATOM     92  H   SGN d 504       7.741  21.712 -22.861  0.00  0.00     0.231 HD
ATOM     93  H   SGN d 504       5.025  16.905 -18.598  0.00  0.00     0.090 H 
ATOM     94  H   SGN d 504       5.446  21.598 -22.980  0.00  0.00     0.231 HD
ATOM     95  H   SGN d 504       5.879  19.837 -21.673  0.00  0.00     0.140 HD
ATOM     96  H   SGN d 504       6.349  23.537 -20.236  0.00  0.00     0.231 HD
ATOM     97  H   SGN d 504       6.806  18.631 -17.145  0.00  0.00     0.091 H 
ATOM     98  H   SGN d 504       8.668  18.974 -20.416  0.00  0.00     0.210 HD
ATOM     99  H   SGN d 504       5.134  16.382 -16.233  0.00  0.00     0.080 H 
ATOM    100  H   SGN d 504       3.593  17.111 -16.597  0.00  0.00     0.080 H 
ATOM    101  H   SGN d 504       6.795  17.679 -20.130  0.00  0.00     0.089 H 
ATOM    102  H   SGN d 504       4.252  20.398 -19.690  0.00  0.00     0.131 H 
ATOM    103  C1  IDS d 501      -4.609  14.584 -29.601  0.00  0.00     0.156 C 
ATOM    104  O3  IDS d 501      -1.464  14.384 -29.281  0.00  0.00    -0.390 OA
ATOM    105  C2  IDS d 501      -3.666  13.382 -29.322  0.00  0.00     0.110 C 
ATOM    106  C4  IDS d 501      -2.754  14.683 -27.271  0.00  0.00     0.103 C 
ATOM    107  C6  IDS d 501      -4.046  16.864 -26.702  0.00  0.00     0.206 C 
ATOM    108  C3  IDS d 501      -2.421  13.739 -28.463  0.00  0.00     0.092 C 
ATOM    109  O5  IDS d 501      -4.820  15.330 -28.404  0.00  0.00    -0.340 OA
ATOM    110  O2  IDS d 501      -4.412  12.389 -28.641  0.00  0.00    -0.388 OA
ATOM    111  C5  IDS d 501      -3.637  15.857 -27.776  0.00  0.00     0.152 C 
ATOM    112  O62 IDS d 501      -3.442  17.902 -26.570  0.00  0.00    -0.646 OA
ATOM    113  O61 IDS d 501      -4.977  16.651 -25.956  0.00  0.00    -0.646 OA
ATOM    114  O1  IDS d 501      -4.056  15.368 -30.625  0.00  0.00    -0.368 OA
ATOM    115  H   IDS d 501      -5.569  14.237 -29.927  0.00  0.00     0.133 H 
ATOM    116  H   IDS d 501      -1.242  13.811 -30.031  0.00  0.00     0.210 HD
ATOM    117  H   IDS d 501      -3.297  13.046 -30.269  0.00  0.00     0.094 H 
ATOM    118  H   IDS d 501      -2.995  13.838 -26.662  0.00  0.00     0.092 H 
ATOM    119  H   IDS d 501      -2.047  12.821 -28.060  0.00  0.00     0.091 H 
ATOM    120  H   IDS d 501      -4.722  12.742 -27.793  0.00  0.00     0.210 HD
ATOM    121  H   IDS d 501      -3.027  16.398 -28.469  0.00  0.00     0.104 H 
ATOM    122  H   IDS d 501      -3.184  15.692 -30.348  0.00  0.00     0.212 HD
ATOM    123  O3  IDS d 535       9.464  13.638 -14.829  0.00  0.00    -0.393 OA
ATOM    124  H   IDS d 535      10.137  13.477 -14.149  0.00  0.00     0.210 HD
ENDROOT
TORSDOF 37
ENDMDL
MODEL 56
REMARK VINA RESULT:      -5.4      4.117     12.694
REMARK  0 active torsions:
REMARK  status: ('A' for Active; 'I' for Inactive)
REMARK       I    between atoms: O3_1  and  C3_48 
REMARK       I    between atoms: C1_2  and  O1_8 
REMARK       I    between atoms: O2_5  and  C2_76 
REMARK       I    between atoms: O2_5  and  S_66 
REMARK       I    between atoms: C2_7  and  N_46 
REMARK       I    between atoms: O1_8  and  C4_39 
REMARK       I    between atoms: C2_12  and  N_23 
REMARK       I    between atoms: O2S_13  and  S1_25 
REMARK       I    between atoms: C1_14  and  O1_65 
REMARK       I    between atoms: O3_15  and  C3_69 
REMARK       I    between atoms: C5_16  and  C6_31 
REMARK       I    between atoms: C5_17  and  C6_68 
REMARK       I    between atoms: C5_18  and  C6_71 
REMARK       I    between atoms: O3S_19  and  S1_25 
REMARK       I    between atoms: C6_20  and  C5_28 
REMARK       I    between atoms: C6_20  and  O6_74 
REMARK       I    between atoms: C4_21  and  O1_35 
REMARK       I    between atoms: S2_22  and  O6_74 
REMARK       I    between atoms: N_23  and  S1_25 
REMARK       I    between atoms: O1S_24  and  S1_25 
REMARK       I    between atoms: C4_27  and  O1_63 
REMARK       I    between atoms: O1_29  and  C4_49 
REMARK       I    between atoms: O1_29  and  C1_73 
REMARK       I    between atoms: O2_30  and  C2_78 
REMARK       I    between atoms: O3_33  and  C3_42 
REMARK       I    between atoms: O1_35  and  C1_77 
REMARK       I    between atoms: O3S_37  and  S1_50 
REMARK       I    between atoms: C2_38  and  O2_45 
REMARK       I    between atoms: C6_40  and  C5_51 
REMARK       I    between atoms: C3_41  and  O3_67 
REMARK       I    between atoms: N_46  and  S1_50 
REMARK       I    between atoms: O6_47  and  C6_71 
REMARK       I    between atoms: O6_47  and  S2_72 
REMARK       I    between atoms: S1_50  and  O1S_61 
REMARK       I    between atoms: S1_50  and  O2S_54 
REMARK       I    between atoms: O3_56  and  C3_75 
REMARK       I    between atoms: C1_58  and  O1_63 
ROOT
ATOM      1  O3  SGN d 502       7.366  16.910 -24.143  0.00  0.00    -0.391 OA
ATOM      2  C1  SGN d 502      10.662  15.255 -23.362  0.00  0.00     0.150 C 
ATOM      3  O6S SGN d 502       9.694  15.937 -17.053  0.00  0.00    -0.572 OA
ATOM      4  C2  SGN d 502       9.233  15.390 -23.955  0.00  0.00     0.081 C 
ATOM      5  O1  SGN d 502      11.561  16.144 -23.995  0.00  0.00    -0.348 OA
ATOM      6  O5  SGN d 502      10.643  15.492 -21.947  0.00  0.00    -0.349 OA
ATOM      7  C6  SGN d 502      10.186  16.813 -19.983  0.00  0.00     0.067 C 
ATOM      8  S2  SGN d 502       9.392  15.045 -18.135  0.00  0.00     0.251 S 
ATOM      9  C5  SGN d 502      10.068  16.755 -21.518  0.00  0.00     0.091 C 
ATOM     10  O3S SGN d 502       9.956  12.832 -25.634  0.00  0.00    -0.296 OA
ATOM     11  N   SGN d 502       9.305  15.171 -25.406  0.00  0.00    -0.210 NA
ATOM     12  C3  SGN d 502       8.673  16.785 -23.615  0.00  0.00     0.083 C 
ATOM     13  C4  SGN d 502       8.615  16.912 -22.075  0.00  0.00     0.095 C 
ATOM     14  S1  SGN d 502       8.890  13.711 -26.025  0.00  0.00     0.156 S 
ATOM     15  O2S SGN d 502       8.826  13.893 -27.446  0.00  0.00    -0.296 OA
ATOM     16  O4S SGN d 502       8.157  14.346 -17.952  0.00  0.00    -0.572 OA
ATOM     17  O1S SGN d 502       7.639  13.311 -25.456  0.00  0.00    -0.296 OA
ATOM     18  O5S SGN d 502      10.487  14.170 -18.445  0.00  0.00    -0.572 OA
ATOM     19  O6  SGN d 502       9.230  15.942 -19.407  0.00  0.00    -0.254 OA
ATOM     20  H   SGN d 502       7.399  16.831 -25.109  0.00  0.00     0.210 HD
ATOM     21  H   SGN d 502      11.000  14.256 -23.541  0.00  0.00     0.131 H 
ATOM     22  H   SGN d 502       8.572  14.661 -23.534  0.00  0.00     0.076 H 
ATOM     23  H   SGN d 502      10.006  17.813 -19.648  0.00  0.00     0.080 H 
ATOM     24  H   SGN d 502      11.170  16.512 -19.688  0.00  0.00     0.080 H 
ATOM     25  H   SGN d 502      10.593  17.598 -21.916  0.00  0.00     0.090 H 
ATOM     26  H   SGN d 502       9.961  12.739 -24.668  0.00  0.00     0.231 HD
ATOM     27  H   SGN d 502      10.271  15.348 -25.685  0.00  0.00     0.140 HD
ATOM     28  H   SGN d 502       9.294  17.549 -24.033  0.00  0.00     0.089 H 
ATOM     29  H   SGN d 502       8.043  16.175 -21.551  0.00  0.00     0.091 H 
ATOM     30  H   SGN d 502       9.697  14.163 -27.777  0.00  0.00     0.231 HD
ATOM     31  H   SGN d 502       7.740  13.203 -24.497  0.00  0.00     0.231 HD
ATOM     32  O62 IDS d 503       3.661  18.103 -24.152  0.00  0.00    -0.646 OA
ATOM     33  O2  IDS d 503       6.491  19.833 -19.120  0.00  0.00    -0.244 OA
ATOM     34  O5  IDS d 503       5.773  17.907 -21.366  0.00  0.00    -0.340 OA
ATOM     35  C5  IDS d 503       5.186  18.685 -22.419  0.00  0.00     0.152 C 
ATOM     36  C4  IDS d 503       4.842  20.090 -21.871  0.00  0.00     0.103 C 
ATOM     37  O61 IDS d 503       3.386  17.105 -22.356  0.00  0.00    -0.646 OA
ATOM     38  O1  IDS d 503       8.039  18.204 -21.896  0.00  0.00    -0.348 OA
ATOM     39  C6  IDS d 503       4.007  17.917 -23.008  0.00  0.00     0.206 C 
ATOM     40  O1S IDS d 503       7.823  21.288 -17.755  0.00  0.00    -0.572 OA
ATOM     41  O3S IDS d 503       8.310  18.951 -17.813  0.00  0.00    -0.572 OA
ATOM     42  C3  IDS d 503       6.131  20.760 -21.320  0.00  0.00     0.094 C 
ATOM     43  O2S IDS d 503       6.324  19.719 -16.749  0.00  0.00    -0.572 OA
ATOM     44  S   IDS d 503       7.291  19.959 -17.781  0.00  0.00     0.252 S 
ATOM     45  O3  IDS d 503       6.906  21.196 -22.421  0.00  0.00    -0.390 OA
ATOM     46  C1  IDS d 503       7.050  18.335 -20.909  0.00  0.00     0.161 C 
ATOM     47  C2  IDS d 503       6.998  19.815 -20.440  0.00  0.00     0.134 C 
ATOM     48  H   IDS d 503       5.865  18.845 -23.230  0.00  0.00     0.104 H 
ATOM     49  H   IDS d 503       4.413  20.620 -22.695  0.00  0.00     0.092 H 
ATOM     50  H   IDS d 503       5.825  21.569 -20.691  0.00  0.00     0.091 H 
ATOM     51  H   IDS d 503       7.160  20.431 -22.961  0.00  0.00     0.210 HD
ATOM     52  H   IDS d 503       7.308  17.700 -20.088  0.00  0.00     0.133 H 
ATOM     53  H   IDS d 503       7.998  20.191 -20.515  0.00  0.00     0.097 H 
ATOM     54  C4  IDS d 505      -3.927  17.288 -18.092  0.00  0.00    -0.005 C 
ATOM     55  C5  IDS d 505      -3.044  18.509 -17.671  0.00  0.00     0.127 C 
ATOM     56  O2  IDS d 505      -1.957  16.609 -21.243  0.00  0.00    -0.388 OA
ATOM     57  O62 IDS d 505      -4.242  20.517 -17.116  0.00  0.00    -0.646 OA
ATOM     58  C1  IDS d 505      -1.782  18.529 -19.790  0.00  0.00     0.159 C 
ATOM     59  O5  IDS d 505      -2.611  19.231 -18.848  0.00  0.00    -0.343 OA
ATOM     60  O1  IDS d 505      -0.429  18.596 -19.434  0.00  0.00    -0.348 OA
ATOM     61  O61 IDS d 505      -3.893  19.197 -15.553  0.00  0.00    -0.646 OA
ATOM     62  C6  IDS d 505      -3.769  19.468 -16.726  0.00  0.00     0.203 C 
ATOM     63  C3  IDS d 505      -3.643  16.830 -19.547  0.00  0.00     0.068 C 
ATOM     64  C2  IDS d 505      -2.163  17.031 -19.908  0.00  0.00     0.107 C 
ATOM     65  H   IDS d 505      -3.726  16.473 -17.429  0.00  0.00     0.041 H 
ATOM     66  H   IDS d 505      -4.952  17.591 -18.038  0.00  0.00     0.041 H 
ATOM     67  H   IDS d 505      -2.203  18.115 -17.141  0.00  0.00     0.100 H 
ATOM     68  H   IDS d 505      -1.025  16.732 -21.480  0.00  0.00     0.210 HD
ATOM     69  H   IDS d 505      -1.944  19.015 -20.730  0.00  0.00     0.133 H 
ATOM     70  H   IDS d 505      -4.232  17.416 -20.221  0.00  0.00     0.087 H 
ATOM     71  H   IDS d 505      -1.556  16.460 -19.236  0.00  0.00     0.094 H 
ATOM     72  O4S SGN d 504      -2.332  21.799 -23.684  0.00  0.00    -0.572 OA
ATOM     73  C2  SGN d 504       2.187  21.206 -19.446  0.00  0.00     0.081 C 
ATOM     74  O2S SGN d 504       3.621  23.376 -16.838  0.00  0.00    -0.296 OA
ATOM     75  C5  SGN d 504       1.087  19.417 -21.460  0.00  0.00     0.091 C 
ATOM     76  O3S SGN d 504       4.913  23.344 -18.842  0.00  0.00    -0.296 OA
ATOM     77  N   SGN d 504       3.242  21.595 -18.491  0.00  0.00    -0.210 NA
ATOM     78  O1S SGN d 504       2.632  23.995 -18.924  0.00  0.00    -0.296 OA
ATOM     79  S1  SGN d 504       3.609  23.183 -18.260  0.00  0.00     0.156 S 
ATOM     80  C4  SGN d 504       0.380  19.590 -20.073  0.00  0.00     0.095 C 
ATOM     81  O1  SGN d 504       3.897  20.081 -20.796  0.00  0.00    -0.348 OA
ATOM     82  O6S SGN d 504      -2.439  19.490 -24.296  0.00  0.00    -0.572 OA
ATOM     83  O6  SGN d 504      -0.735  20.239 -22.785  0.00  0.00    -0.254 OA
ATOM     84  O5S SGN d 504      -0.641  20.850 -25.081  0.00  0.00    -0.572 OA
ATOM     85  O3  SGN d 504       0.875  20.078 -17.754  0.00  0.00    -0.391 OA
ATOM     86  O5  SGN d 504       1.859  20.600 -21.800  0.00  0.00    -0.349 OA
ATOM     87  C6  SGN d 504       0.144  19.142 -22.641  0.00  0.00     0.067 C 
ATOM     88  S2  SGN d 504      -1.596  20.620 -24.032  0.00  0.00     0.251 S 
ATOM     89  C3  SGN d 504       1.477  19.901 -19.023  0.00  0.00     0.083 C 
ATOM     90  C1  SGN d 504       2.838  21.013 -20.843  0.00  0.00     0.150 C 
ATOM     91  H   SGN d 504       1.449  21.980 -19.469  0.00  0.00     0.076 H 
ATOM     92  H   SGN d 504       4.297  22.805 -16.440  0.00  0.00     0.231 HD
ATOM     93  H   SGN d 504       1.704  18.553 -21.324  0.00  0.00     0.090 H 
ATOM     94  H   SGN d 504       5.548  22.784 -18.371  0.00  0.00     0.231 HD
ATOM     95  H   SGN d 504       4.100  21.138 -18.801  0.00  0.00     0.140 HD
ATOM     96  H   SGN d 504       2.844  24.932 -18.790  0.00  0.00     0.231 HD
ATOM     97  H   SGN d 504      -0.342  20.326 -20.362  0.00  0.00     0.091 H 
ATOM     98  H   SGN d 504       1.560  20.273 -17.096  0.00  0.00     0.210 HD
ATOM     99  H   SGN d 504      -0.419  18.252 -22.454  0.00  0.00     0.080 H 
ATOM    100  H   SGN d 504       0.713  19.012 -23.538  0.00  0.00     0.080 H 
ATOM    101  H   SGN d 504       2.180  19.097 -18.966  0.00  0.00     0.089 H 
ATOM    102  H   SGN d 504       3.243  21.957 -21.144  0.00  0.00     0.131 H 
ATOM    103  C1  IDS d 501      15.903  15.635 -24.357  0.00  0.00     0.156 C 
ATOM    104  O3  IDS d 501      14.031  15.324 -21.821  0.00  0.00    -0.390 OA
ATOM    105  C2  IDS d 501      15.115  14.423 -23.787  0.00  0.00     0.110 C 
ATOM    106  C4  IDS d 501      12.966  15.871 -23.908  0.00  0.00     0.103 C 
ATOM    107  C6  IDS d 501      13.255  18.152 -25.117  0.00  0.00     0.206 C 
ATOM    108  C3  IDS d 501      13.769  14.804 -23.109  0.00  0.00     0.092 C 
ATOM    109  O5  IDS d 501      15.021  16.501 -25.070  0.00  0.00    -0.340 OA
ATOM    110  O2  IDS d 501      14.845  13.535 -24.855  0.00  0.00    -0.388 OA
ATOM    111  C5  IDS d 501      13.915  17.030 -24.317  0.00  0.00     0.152 C 
ATOM    112  O62 IDS d 501      12.899  19.170 -24.572  0.00  0.00    -0.646 OA
ATOM    113  O61 IDS d 501      13.069  18.054 -26.310  0.00  0.00    -0.646 OA
ATOM    114  O1  IDS d 501      16.553  16.293 -23.302  0.00  0.00    -0.368 OA
ATOM    115  H   IDS d 501      16.645  15.303 -25.053  0.00  0.00     0.133 H 
ATOM    116  H   IDS d 501      14.531  14.673 -21.305  0.00  0.00     0.210 HD
ATOM    117  H   IDS d 501      15.726  13.983 -23.026  0.00  0.00     0.094 H 
ATOM    118  H   IDS d 501      12.512  15.099 -24.493  0.00  0.00     0.092 H 
ATOM    119  H   IDS d 501      13.179  13.912 -23.067  0.00  0.00     0.091 H 
ATOM    120  H   IDS d 501      14.291  13.981 -25.515  0.00  0.00     0.210 HD
ATOM    121  H   IDS d 501      14.237  17.476 -23.398  0.00  0.00     0.104 H 
ATOM    122  H   IDS d 501      15.895  16.602 -22.660  0.00  0.00     0.212 HD
ATOM    123  O3  IDS d 535      -3.973  15.461 -19.656  0.00  0.00    -0.393 OA
ATOM    124  H   IDS d 535      -4.907  15.334 -19.427  0.00  0.00     0.210 HD
ENDROOT
TORSDOF 37
ENDMDL
MODEL 57
REMARK VINA RESULT:      -5.4      4.583     12.316
REMARK  0 active torsions:
REMARK  status: ('A' for Active; 'I' for Inactive)
REMARK       I    between atoms: O3_1  and  C3_48 
REMARK       I    between atoms: C1_2  and  O1_8 
REMARK       I    between atoms: O2_5  and  C2_76 
REMARK       I    between atoms: O2_5  and  S_66 
REMARK       I    between atoms: C2_7  and  N_46 
REMARK       I    between atoms: O1_8  and  C4_39 
REMARK       I    between atoms: C2_12  and  N_23 
REMARK       I    between atoms: O2S_13  and  S1_25 
REMARK       I    between atoms: C1_14  and  O1_65 
REMARK       I    between atoms: O3_15  and  C3_69 
REMARK       I    between atoms: C5_16  and  C6_31 
REMARK       I    between atoms: C5_17  and  C6_68 
REMARK       I    between atoms: C5_18  and  C6_71 
REMARK       I    between atoms: O3S_19  and  S1_25 
REMARK       I    between atoms: C6_20  and  C5_28 
REMARK       I    between atoms: C6_20  and  O6_74 
REMARK       I    between atoms: C4_21  and  O1_35 
REMARK       I    between atoms: S2_22  and  O6_74 
REMARK       I    between atoms: N_23  and  S1_25 
REMARK       I    between atoms: O1S_24  and  S1_25 
REMARK       I    between atoms: C4_27  and  O1_63 
REMARK       I    between atoms: O1_29  and  C4_49 
REMARK       I    between atoms: O1_29  and  C1_73 
REMARK       I    between atoms: O2_30  and  C2_78 
REMARK       I    between atoms: O3_33  and  C3_42 
REMARK       I    between atoms: O1_35  and  C1_77 
REMARK       I    between atoms: O3S_37  and  S1_50 
REMARK       I    between atoms: C2_38  and  O2_45 
REMARK       I    between atoms: C6_40  and  C5_51 
REMARK       I    between atoms: C3_41  and  O3_67 
REMARK       I    between atoms: N_46  and  S1_50 
REMARK       I    between atoms: O6_47  and  C6_71 
REMARK       I    between atoms: O6_47  and  S2_72 
REMARK       I    between atoms: S1_50  and  O1S_61 
REMARK       I    between atoms: S1_50  and  O2S_54 
REMARK       I    between atoms: O3_56  and  C3_75 
REMARK       I    between atoms: C1_58  and  O1_63 
ROOT
ATOM      1  O3  SGN d 502       8.420  20.314 -23.992  0.00  0.00    -0.391 OA
ATOM      2  C1  SGN d 502      10.956  19.265 -26.576  0.00  0.00     0.150 C 
ATOM      3  O6S SGN d 502      12.154  13.805 -23.420  0.00  0.00    -0.572 OA
ATOM      4  C2  SGN d 502       9.571  19.695 -26.022  0.00  0.00     0.081 C 
ATOM      5  O1  SGN d 502      11.896  20.314 -26.466  0.00  0.00    -0.348 OA
ATOM      6  O5  SGN d 502      11.431  18.099 -25.888  0.00  0.00    -0.349 OA
ATOM      7  C6  SGN d 502      12.072  16.861 -23.922  0.00  0.00     0.067 C 
ATOM      8  S2  SGN d 502      11.250  14.355 -24.388  0.00  0.00     0.251 S 
ATOM      9  C5  SGN d 502      11.506  18.196 -24.441  0.00  0.00     0.091 C 
ATOM     10  O3S SGN d 502       8.795  20.173 -29.031  0.00  0.00    -0.296 OA
ATOM     11  N   SGN d 502       9.140  20.908 -26.732  0.00  0.00    -0.210 NA
ATOM     12  C3  SGN d 502       9.682  19.931 -24.504  0.00  0.00     0.083 C 
ATOM     13  C4  SGN d 502      10.119  18.602 -23.847  0.00  0.00     0.095 C 
ATOM     14  S1  SGN d 502       8.060  20.785 -27.960  0.00  0.00     0.156 S 
ATOM     15  O2S SGN d 502       7.664  22.129 -28.267  0.00  0.00    -0.296 OA
ATOM     16  O4S SGN d 502       9.953  13.752 -24.345  0.00  0.00    -0.572 OA
ATOM     17  O1S SGN d 502       6.968  19.965 -27.530  0.00  0.00    -0.296 OA
ATOM     18  O5S SGN d 502      11.811  14.375 -25.710  0.00  0.00    -0.572 OA
ATOM     19  O6  SGN d 502      11.071  15.863 -24.011  0.00  0.00    -0.254 OA
ATOM     20  H   SGN d 502       8.144  21.148 -24.402  0.00  0.00     0.210 HD
ATOM     21  H   SGN d 502      10.839  19.030 -27.613  0.00  0.00     0.131 H 
ATOM     22  H   SGN d 502       8.839  18.931 -26.181  0.00  0.00     0.076 H 
ATOM     23  H   SGN d 502      12.374  16.972 -22.901  0.00  0.00     0.080 H 
ATOM     24  H   SGN d 502      12.917  16.576 -24.512  0.00  0.00     0.080 H 
ATOM     25  H   SGN d 502      12.166  18.974 -24.120  0.00  0.00     0.090 H 
ATOM     26  H   SGN d 502       9.041  19.270 -28.780  0.00  0.00     0.231 HD
ATOM     27  H   SGN d 502       9.979  21.341 -27.118  0.00  0.00     0.140 HD
ATOM     28  H   SGN d 502      10.392  20.705 -24.297  0.00  0.00     0.089 H 
ATOM     29  H   SGN d 502       9.492  17.751 -24.016  0.00  0.00     0.091 H 
ATOM     30  H   SGN d 502       8.439  22.638 -28.551  0.00  0.00     0.231 HD
ATOM     31  H   SGN d 502       7.293  19.071 -27.337  0.00  0.00     0.231 HD
ATOM     32  O62 IDS d 503       5.573  20.428 -21.340  0.00  0.00    -0.646 OA
ATOM     33  O2  IDS d 503      10.152  16.983 -19.469  0.00  0.00    -0.244 OA
ATOM     34  O5  IDS d 503       8.168  18.083 -21.501  0.00  0.00    -0.340 OA
ATOM     35  C5  IDS d 503       7.633  19.296 -20.955  0.00  0.00     0.152 C 
ATOM     36  C4  IDS d 503       7.999  19.375 -19.455  0.00  0.00     0.103 C 
ATOM     37  O61 IDS d 503       5.478  18.358 -21.424  0.00  0.00    -0.646 OA
ATOM     38  O1  IDS d 503      10.132  18.936 -22.460  0.00  0.00    -0.348 OA
ATOM     39  C6  IDS d 503       6.139  19.361 -21.257  0.00  0.00     0.206 C 
ATOM     40  O1S IDS d 503      12.255  16.538 -18.404  0.00  0.00    -0.572 OA
ATOM     41  O3S IDS d 503      11.814  15.634 -20.570  0.00  0.00    -0.572 OA
ATOM     42  C3  IDS d 503       9.543  19.313 -19.296  0.00  0.00     0.094 C 
ATOM     43  O2S IDS d 503      10.641  14.794 -18.677  0.00  0.00    -0.572 OA
ATOM     44  S   IDS d 503      11.290  15.928 -19.269  0.00  0.00     0.252 S 
ATOM     45  O3  IDS d 503      10.075  20.573 -19.662  0.00  0.00    -0.390 OA
ATOM     46  C1  IDS d 503       9.587  18.000 -21.569  0.00  0.00     0.161 C 
ATOM     47  C2  IDS d 503      10.217  18.214 -20.165  0.00  0.00     0.134 C 
ATOM     48  H   IDS d 503       8.060  20.167 -21.407  0.00  0.00     0.104 H 
ATOM     49  H   IDS d 503       7.578  20.294 -19.106  0.00  0.00     0.092 H 
ATOM     50  H   IDS d 503       9.749  19.066 -18.275  0.00  0.00     0.091 H 
ATOM     51  H   IDS d 503       9.865  20.754 -20.592  0.00  0.00     0.210 HD
ATOM     52  H   IDS d 503       9.818  17.019 -21.927  0.00  0.00     0.133 H 
ATOM     53  H   IDS d 503      11.219  18.553 -20.332  0.00  0.00     0.097 H 
ATOM     54  C4  IDS d 505       0.289  13.812 -16.515  0.00  0.00    -0.005 C 
ATOM     55  C5  IDS d 505       1.639  14.060 -15.762  0.00  0.00     0.127 C 
ATOM     56  O2  IDS d 505       0.883  16.557 -19.041  0.00  0.00    -0.388 OA
ATOM     57  O62 IDS d 505       1.472  14.298 -13.377  0.00  0.00    -0.646 OA
ATOM     58  C1  IDS d 505       2.157  16.105 -17.040  0.00  0.00     0.159 C 
ATOM     59  O5  IDS d 505       1.949  15.474 -15.765  0.00  0.00    -0.343 OA
ATOM     60  O1  IDS d 505       3.482  15.965 -17.474  0.00  0.00    -0.348 OA
ATOM     61  O61 IDS d 505       1.745  12.368 -14.088  0.00  0.00    -0.646 OA
ATOM     62  C6  IDS d 505       1.619  13.549 -14.322  0.00  0.00     0.203 C 
ATOM     63  C3  IDS d 505      -0.043  14.948 -17.518  0.00  0.00     0.068 C 
ATOM     64  C2  IDS d 505       1.238  15.521 -18.144  0.00  0.00     0.107 C 
ATOM     65  H   IDS d 505       0.359  12.889 -17.050  0.00  0.00     0.041 H 
ATOM     66  H   IDS d 505      -0.492  13.782 -15.784  0.00  0.00     0.041 H 
ATOM     67  H   IDS d 505       2.391  13.509 -16.286  0.00  0.00     0.100 H 
ATOM     68  H   IDS d 505       1.686  16.926 -19.441  0.00  0.00     0.210 HD
ATOM     69  H   IDS d 505       1.923  17.138 -16.888  0.00  0.00     0.133 H 
ATOM     70  H   IDS d 505      -0.543  15.739 -16.999  0.00  0.00     0.087 H 
ATOM     71  H   IDS d 505       1.759  14.741 -18.659  0.00  0.00     0.094 H 
ATOM     72  O4S SGN d 504       1.754  20.942 -15.428  0.00  0.00    -0.572 OA
ATOM     73  C2  SGN d 504       6.751  17.393 -16.507  0.00  0.00     0.081 C 
ATOM     74  O2S SGN d 504       9.560  16.154 -14.474  0.00  0.00    -0.296 OA
ATOM     75  C5  SGN d 504       4.545  18.301 -18.175  0.00  0.00     0.091 C 
ATOM     76  O3S SGN d 504      10.120  18.077 -15.768  0.00  0.00    -0.296 OA
ATOM     77  N   SGN d 504       8.100  16.823 -16.336  0.00  0.00    -0.210 NA
ATOM     78  O1S SGN d 504       8.314  18.179 -14.231  0.00  0.00    -0.296 OA
ATOM     79  S1  SGN d 504       9.073  17.342 -15.113  0.00  0.00     0.156 S 
ATOM     80  C4  SGN d 504       4.380  17.056 -17.238  0.00  0.00     0.095 C 
ATOM     81  O1  SGN d 504       7.466  18.304 -18.668  0.00  0.00    -0.348 OA
ATOM     82  O6S SGN d 504       0.638  20.481 -17.493  0.00  0.00    -0.572 OA
ATOM     83  O6  SGN d 504       2.853  19.641 -17.128  0.00  0.00    -0.254 OA
ATOM     84  O5S SGN d 504       2.504  21.970 -17.452  0.00  0.00    -0.572 OA
ATOM     85  O3  SGN d 504       5.660  15.246 -16.267  0.00  0.00    -0.391 OA
ATOM     86  O5  SGN d 504       5.565  19.202 -17.664  0.00  0.00    -0.349 OA
ATOM     87  C6  SGN d 504       3.272  19.135 -18.379  0.00  0.00     0.067 C 
ATOM     88  S2  SGN d 504       1.874  20.826 -16.851  0.00  0.00     0.251 S 
ATOM     89  C3  SGN d 504       5.764  16.372 -17.118  0.00  0.00     0.083 C 
ATOM     90  C1  SGN d 504       6.857  18.632 -17.438  0.00  0.00     0.150 C 
ATOM     91  H   SGN d 504       6.373  17.666 -15.544  0.00  0.00     0.076 H 
ATOM     92  H   SGN d 504      10.064  15.626 -15.113  0.00  0.00     0.231 HD
ATOM     93  H   SGN d 504       4.814  17.874 -19.119  0.00  0.00     0.090 H 
ATOM     94  H   SGN d 504      10.612  17.483 -16.356  0.00  0.00     0.231 HD
ATOM     95  H   SGN d 504       8.604  16.997 -17.206  0.00  0.00     0.140 HD
ATOM     96  H   SGN d 504       8.884  18.488 -13.508  0.00  0.00     0.231 HD
ATOM     97  H   SGN d 504       3.927  17.552 -16.404  0.00  0.00     0.091 H 
ATOM     98  H   SGN d 504       6.526  14.817 -16.190  0.00  0.00     0.210 HD
ATOM     99  H   SGN d 504       2.501  18.521 -18.794  0.00  0.00     0.080 H 
ATOM    100  H   SGN d 504       3.472  19.945 -19.050  0.00  0.00     0.080 H 
ATOM    101  H   SGN d 504       6.109  16.052 -18.078  0.00  0.00     0.089 H 
ATOM    102  H   SGN d 504       7.475  19.354 -16.946  0.00  0.00     0.131 H 
ATOM    103  C1  IDS d 501      15.451  20.899 -28.968  0.00  0.00     0.156 C 
ATOM    104  O3  IDS d 501      14.405  18.288 -27.512  0.00  0.00    -0.390 OA
ATOM    105  C2  IDS d 501      14.474  19.778 -29.416  0.00  0.00     0.110 C 
ATOM    106  C4  IDS d 501      13.066  20.275 -27.295  0.00  0.00     0.103 C 
ATOM    107  C6  IDS d 501      13.811  22.374 -25.959  0.00  0.00     0.206 C 
ATOM    108  C3  IDS d 501      13.615  19.187 -28.263  0.00  0.00     0.092 C 
ATOM    109  O5  IDS d 501      14.783  21.814 -28.101  0.00  0.00    -0.340 OA
ATOM    110  O2  IDS d 501      13.603  20.321 -30.392  0.00  0.00    -0.388 OA
ATOM    111  C5  IDS d 501      14.214  21.246 -26.908  0.00  0.00     0.152 C 
ATOM    112  O62 IDS d 501      14.024  22.286 -24.772  0.00  0.00    -0.646 OA
ATOM    113  O61 IDS d 501      13.269  23.379 -26.363  0.00  0.00    -0.646 OA
ATOM    114  O1  IDS d 501      16.570  20.311 -28.358  0.00  0.00    -0.368 OA
ATOM    115  H   IDS d 501      15.788  21.460 -29.815  0.00  0.00     0.133 H 
ATOM    116  H   IDS d 501      14.758  17.600 -28.098  0.00  0.00     0.210 HD
ATOM    117  H   IDS d 501      15.071  18.974 -29.795  0.00  0.00     0.094 H 
ATOM    118  H   IDS d 501      12.214  20.414 -27.926  0.00  0.00     0.092 H 
ATOM    119  H   IDS d 501      12.778  18.699 -28.718  0.00  0.00     0.091 H 
ATOM    120  H   IDS d 501      13.088  21.042 -30.000  0.00  0.00     0.210 HD
ATOM    121  H   IDS d 501      14.925  20.652 -26.371  0.00  0.00     0.104 H 
ATOM    122  H   IDS d 501      16.284  19.796 -27.587  0.00  0.00     0.212 HD
ATOM    123  O3  IDS d 535      -0.868  14.417 -18.535  0.00  0.00    -0.393 OA
ATOM    124  H   IDS d 535      -1.676  14.055 -18.139  0.00  0.00     0.210 HD
ENDROOT
TORSDOF 37
ENDMDL
MODEL 58
REMARK VINA RESULT:      -5.3      3.122     12.903
REMARK  0 active torsions:
REMARK  status: ('A' for Active; 'I' for Inactive)
REMARK       I    between atoms: O3_1  and  C3_48 
REMARK       I    between atoms: C1_2  and  O1_8 
REMARK       I    between atoms: O2_5  and  C2_76 
REMARK       I    between atoms: O2_5  and  S_66 
REMARK       I    between atoms: C2_7  and  N_46 
REMARK       I    between atoms: O1_8  and  C4_39 
REMARK       I    between atoms: C2_12  and  N_23 
REMARK       I    between atoms: O2S_13  and  S1_25 
REMARK       I    between atoms: C1_14  and  O1_65 
REMARK       I    between atoms: O3_15  and  C3_69 
REMARK       I    between atoms: C5_16  and  C6_31 
REMARK       I    between atoms: C5_17  and  C6_68 
REMARK       I    between atoms: C5_18  and  C6_71 
REMARK       I    between atoms: O3S_19  and  S1_25 
REMARK       I    between atoms: C6_20  and  C5_28 
REMARK       I    between atoms: C6_20  and  O6_74 
REMARK       I    between atoms: C4_21  and  O1_35 
REMARK       I    between atoms: S2_22  and  O6_74 
REMARK       I    between atoms: N_23  and  S1_25 
REMARK       I    between atoms: O1S_24  and  S1_25 
REMARK       I    between atoms: C4_27  and  O1_63 
REMARK       I    between atoms: O1_29  and  C4_49 
REMARK       I    between atoms: O1_29  and  C1_73 
REMARK       I    between atoms: O2_30  and  C2_78 
REMARK       I    between atoms: O3_33  and  C3_42 
REMARK       I    between atoms: O1_35  and  C1_77 
REMARK       I    between atoms: O3S_37  and  S1_50 
REMARK       I    between atoms: C2_38  and  O2_45 
REMARK       I    between atoms: C6_40  and  C5_51 
REMARK       I    between atoms: C3_41  and  O3_67 
REMARK       I    between atoms: N_46  and  S1_50 
REMARK       I    between atoms: O6_47  and  C6_71 
REMARK       I    between atoms: O6_47  and  S2_72 
REMARK       I    between atoms: S1_50  and  O1S_61 
REMARK       I    between atoms: S1_50  and  O2S_54 
REMARK       I    between atoms: O3_56  and  C3_75 
REMARK       I    between atoms: C1_58  and  O1_63 
ROOT
ATOM      1  O3  SGN d 502       5.959  21.874 -19.461  0.00  0.00    -0.391 OA
ATOM      2  C1  SGN d 502       9.680  22.034 -18.876  0.00  0.00     0.150 C 
ATOM      3  O6S SGN d 502      10.141  15.633 -19.024  0.00  0.00    -0.572 OA
ATOM      4  C2  SGN d 502       8.330  22.306 -19.595  0.00  0.00     0.081 C 
ATOM      5  O1  SGN d 502       9.722  22.672 -17.616  0.00  0.00    -0.348 OA
ATOM      6  O5  SGN d 502       9.891  20.622 -18.724  0.00  0.00    -0.349 OA
ATOM      7  C6  SGN d 502       9.286  18.416 -17.966  0.00  0.00     0.067 C 
ATOM      8  S2  SGN d 502      10.132  16.768 -19.900  0.00  0.00     0.251 S 
ATOM      9  C5  SGN d 502       8.835  19.886 -18.051  0.00  0.00     0.091 C 
ATOM     10  O3S SGN d 502       9.916  24.495 -21.203  0.00  0.00    -0.296 OA
ATOM     11  N   SGN d 502       8.141  23.760 -19.699  0.00  0.00    -0.210 NA
ATOM     12  C3  SGN d 502       7.190  21.637 -18.804  0.00  0.00     0.083 C 
ATOM     13  C4  SGN d 502       7.465  20.117 -18.767  0.00  0.00     0.095 C 
ATOM     14  S1  SGN d 502       8.483  24.520 -21.112  0.00  0.00     0.156 S 
ATOM     15  O2S SGN d 502       7.968  25.851 -20.972  0.00  0.00    -0.296 OA
ATOM     16  O4S SGN d 502       9.604  16.467 -21.196  0.00  0.00    -0.572 OA
ATOM     17  O1S SGN d 502       7.872  23.793 -22.183  0.00  0.00    -0.296 OA
ATOM     18  O5S SGN d 502      11.407  17.425 -19.957  0.00  0.00    -0.572 OA
ATOM     19  O6  SGN d 502       9.175  17.818 -19.244  0.00  0.00    -0.254 OA
ATOM     20  H   SGN d 502       5.783  22.827 -19.485  0.00  0.00     0.210 HD
ATOM     21  H   SGN d 502      10.464  22.437 -19.481  0.00  0.00     0.131 H 
ATOM     22  H   SGN d 502       8.331  21.893 -20.582  0.00  0.00     0.076 H 
ATOM     23  H   SGN d 502       8.665  17.891 -17.271  0.00  0.00     0.080 H 
ATOM     24  H   SGN d 502      10.303  18.371 -17.636  0.00  0.00     0.080 H 
ATOM     25  H   SGN d 502       8.671  20.233 -17.053  0.00  0.00     0.090 H 
ATOM     26  H   SGN d 502      10.218  23.578 -21.295  0.00  0.00     0.231 HD
ATOM     27  H   SGN d 502       8.729  24.188 -18.983  0.00  0.00     0.140 HD
ATOM     28  H   SGN d 502       7.139  22.036 -17.813  0.00  0.00     0.089 H 
ATOM     29  H   SGN d 502       7.565  19.621 -19.710  0.00  0.00     0.091 H 
ATOM     30  H   SGN d 502       8.415  26.296 -20.235  0.00  0.00     0.231 HD
ATOM     31  H   SGN d 502       8.256  22.904 -22.231  0.00  0.00     0.231 HD
ATOM     32  O62 IDS d 503       2.374  20.965 -20.676  0.00  0.00    -0.646 OA
ATOM     33  O2  IDS d 503       4.900  16.362 -17.716  0.00  0.00    -0.244 OA
ATOM     34  O5  IDS d 503       4.852  18.714 -19.650  0.00  0.00    -0.340 OA
ATOM     35  C5  IDS d 503       3.684  19.489 -19.344  0.00  0.00     0.152 C 
ATOM     36  C4  IDS d 503       2.760  18.660 -18.422  0.00  0.00     0.103 C 
ATOM     37  O61 IDS d 503       3.179  19.341 -21.682  0.00  0.00    -0.646 OA
ATOM     38  O1  IDS d 503       6.328  19.617 -18.065  0.00  0.00    -0.348 OA
ATOM     39  C6  IDS d 503       3.042  19.957 -20.646  0.00  0.00     0.206 C 
ATOM     40  O1S IDS d 503       5.471  15.060 -15.784  0.00  0.00    -0.572 OA
ATOM     41  O3S IDS d 503       7.158  15.598 -17.386  0.00  0.00    -0.572 OA
ATOM     42  C3  IDS d 503       3.534  18.265 -17.134  0.00  0.00     0.094 C 
ATOM     43  O2S IDS d 503       5.436  14.056 -17.955  0.00  0.00    -0.572 OA
ATOM     44  S   IDS d 503       5.798  15.202 -17.171  0.00  0.00     0.252 S 
ATOM     45  O3  IDS d 503       3.616  19.408 -16.302  0.00  0.00    -0.390 OA
ATOM     46  C1  IDS d 503       5.729  18.450 -18.561  0.00  0.00     0.161 C 
ATOM     47  C2  IDS d 503       4.972  17.740 -17.405  0.00  0.00     0.134 C 
ATOM     48  H   IDS d 503       3.920  20.379 -18.799  0.00  0.00     0.104 H 
ATOM     49  H   IDS d 503       1.914  19.285 -18.228  0.00  0.00     0.092 H 
ATOM     50  H   IDS d 503       2.996  17.463 -16.672  0.00  0.00     0.091 H 
ATOM     51  H   IDS d 503       4.109  20.107 -16.760  0.00  0.00     0.210 HD
ATOM     52  H   IDS d 503       6.499  17.811 -18.940  0.00  0.00     0.133 H 
ATOM     53  H   IDS d 503       5.525  17.944 -16.512  0.00  0.00     0.097 H 
ATOM     54  C4  IDS d 505      -1.579  13.768 -25.924  0.00  0.00    -0.005 C 
ATOM     55  C5  IDS d 505      -1.469  13.330 -24.426  0.00  0.00     0.127 C 
ATOM     56  O2  IDS d 505      -0.452  17.310 -25.249  0.00  0.00    -0.388 OA
ATOM     57  O62 IDS d 505      -3.401  12.227 -23.519  0.00  0.00    -0.646 OA
ATOM     58  C1  IDS d 505      -1.029  15.620 -23.624  0.00  0.00     0.159 C 
ATOM     59  O5  IDS d 505      -1.836  14.432 -23.564  0.00  0.00    -0.343 OA
ATOM     60  O1  IDS d 505       0.086  15.528 -22.780  0.00  0.00    -0.348 OA
ATOM     61  O61 IDS d 505      -1.985  11.004 -24.412  0.00  0.00    -0.646 OA
ATOM     62  C6  IDS d 505      -2.339  12.116 -24.096  0.00  0.00     0.203 C 
ATOM     63  C3  IDS d 505      -1.468  15.306 -26.097  0.00  0.00     0.068 C 
ATOM     64  C2  IDS d 505      -0.512  15.909 -25.057  0.00  0.00     0.107 C 
ATOM     65  H   IDS d 505      -0.792  13.301 -26.478  0.00  0.00     0.041 H 
ATOM     66  H   IDS d 505      -2.541  13.467 -26.283  0.00  0.00     0.041 H 
ATOM     67  H   IDS d 505      -0.451  13.046 -24.260  0.00  0.00     0.100 H 
ATOM     68  H   IDS d 505       0.150  17.700 -24.596  0.00  0.00     0.210 HD
ATOM     69  H   IDS d 505      -1.670  16.417 -23.306  0.00  0.00     0.133 H 
ATOM     70  H   IDS d 505      -2.433  15.746 -25.956  0.00  0.00     0.087 H 
ATOM     71  H   IDS d 505       0.459  15.472 -25.175  0.00  0.00     0.094 H 
ATOM     72  O4S SGN d 504      -4.299  18.736 -21.223  0.00  0.00    -0.572 OA
ATOM     73  C2  SGN d 504       0.663  15.614 -19.131  0.00  0.00     0.081 C 
ATOM     74  O2S SGN d 504       1.227  13.011 -16.588  0.00  0.00    -0.296 OA
ATOM     75  C5  SGN d 504       0.297  17.645 -21.184  0.00  0.00     0.091 C 
ATOM     76  O3S SGN d 504       1.748  15.204 -15.812  0.00  0.00    -0.296 OA
ATOM     77  N   SGN d 504       1.514  14.831 -18.217  0.00  0.00    -0.210 NA
ATOM     78  O1S SGN d 504      -0.431  14.733 -16.627  0.00  0.00    -0.296 OA
ATOM     79  S1  SGN d 504       0.964  14.415 -16.721  0.00  0.00     0.156 S 
ATOM     80  C4  SGN d 504      -0.003  16.137 -21.487  0.00  0.00     0.095 C 
ATOM     81  O1  SGN d 504       2.297  17.438 -19.008  0.00  0.00    -0.348 OA
ATOM     82  O6S SGN d 504      -3.234  19.690 -23.140  0.00  0.00    -0.572 OA
ATOM     83  O6  SGN d 504      -1.935  18.436 -21.564  0.00  0.00    -0.254 OA
ATOM     84  O5S SGN d 504      -2.791  20.573 -20.967  0.00  0.00    -0.572 OA
ATOM     85  O3  SGN d 504       0.701  13.911 -20.850  0.00  0.00    -0.391 OA
ATOM     86  O5  SGN d 504       0.148  17.927 -19.766  0.00  0.00    -0.349 OA
ATOM     87  C6  SGN d 504      -0.589  18.649 -21.936  0.00  0.00     0.067 C 
ATOM     88  S2  SGN d 504      -3.144  19.411 -21.736  0.00  0.00     0.251 S 
ATOM     89  C3  SGN d 504       0.950  15.284 -20.613  0.00  0.00     0.083 C 
ATOM     90  C1  SGN d 504       0.927  17.123 -18.875  0.00  0.00     0.150 C 
ATOM     91  H   SGN d 504      -0.360  15.365 -18.940  0.00  0.00     0.076 H 
ATOM     92  H   SGN d 504       2.181  12.852 -16.660  0.00  0.00     0.231 HD
ATOM     93  H   SGN d 504       1.304  17.776 -21.522  0.00  0.00     0.090 H 
ATOM     94  H   SGN d 504       2.684  14.965 -15.901  0.00  0.00     0.231 HD
ATOM     95  H   SGN d 504       2.367  15.373 -18.075  0.00  0.00     0.140 HD
ATOM     96  H   SGN d 504      -0.759  14.490 -15.746  0.00  0.00     0.231 HD
ATOM     97  H   SGN d 504      -1.059  16.154 -21.312  0.00  0.00     0.091 H 
ATOM     98  H   SGN d 504       1.296  13.375 -20.303  0.00  0.00     0.210 HD
ATOM     99  H   SGN d 504      -0.480  18.506 -22.991  0.00  0.00     0.080 H 
ATOM    100  H   SGN d 504      -0.297  19.648 -21.688  0.00  0.00     0.080 H 
ATOM    101  H   SGN d 504       1.970  15.499 -20.851  0.00  0.00     0.089 H 
ATOM    102  H   SGN d 504       0.635  17.336 -17.868  0.00  0.00     0.131 H 
ATOM    103  C1  IDS d 501      13.325  23.950 -15.465  0.00  0.00     0.156 C 
ATOM    104  O3  IDS d 501      12.677  21.186 -16.870  0.00  0.00    -0.390 OA
ATOM    105  C2  IDS d 501      13.537  23.446 -16.919  0.00  0.00     0.110 C 
ATOM    106  C4  IDS d 501      11.001  22.907 -17.011  0.00  0.00     0.103 C 
ATOM    107  C6  IDS d 501       9.632  23.753 -14.972  0.00  0.00     0.206 C 
ATOM    108  C3  IDS d 501      12.438  22.467 -17.418  0.00  0.00     0.092 C 
ATOM    109  O5  IDS d 501      11.963  24.325 -15.269  0.00  0.00    -0.340 OA
ATOM    110  O2  IDS d 501      13.555  24.575 -17.775  0.00  0.00    -0.388 OA
ATOM    111  C5  IDS d 501      10.988  23.294 -15.507  0.00  0.00     0.152 C 
ATOM    112  O62 IDS d 501       8.916  22.988 -14.370  0.00  0.00    -0.646 OA
ATOM    113  O61 IDS d 501       9.237  24.887 -15.137  0.00  0.00    -0.646 OA
ATOM    114  O1  IDS d 501      13.733  22.947 -14.573  0.00  0.00    -0.368 OA
ATOM    115  H   IDS d 501      13.919  24.822 -15.282  0.00  0.00     0.133 H 
ATOM    116  H   IDS d 501      13.569  20.892 -17.112  0.00  0.00     0.210 HD
ATOM    117  H   IDS d 501      14.459  22.902 -16.932  0.00  0.00     0.094 H 
ATOM    118  H   IDS d 501      10.932  23.512 -17.890  0.00  0.00     0.092 H 
ATOM    119  H   IDS d 501      12.489  22.460 -18.486  0.00  0.00     0.091 H 
ATOM    120  H   IDS d 501      12.700  25.031 -17.726  0.00  0.00     0.210 HD
ATOM    121  H   IDS d 501      11.223  22.394 -14.977  0.00  0.00     0.104 H 
ATOM    122  H   IDS d 501      13.205  22.146 -14.723  0.00  0.00     0.212 HD
ATOM    123  O3  IDS d 535      -0.982  15.574 -27.396  0.00  0.00    -0.393 OA
ATOM    124  H   IDS d 535      -1.585  15.193 -28.052  0.00  0.00     0.210 HD
ENDROOT
TORSDOF 37
ENDMDL
MODEL 59
REMARK VINA RESULT:      -5.3      4.608      8.292
REMARK  0 active torsions:
REMARK  status: ('A' for Active; 'I' for Inactive)
REMARK       I    between atoms: O3_1  and  C3_48 
REMARK       I    between atoms: C1_2  and  O1_8 
REMARK       I    between atoms: O2_5  and  C2_76 
REMARK       I    between atoms: O2_5  and  S_66 
REMARK       I    between atoms: C2_7  and  N_46 
REMARK       I    between atoms: O1_8  and  C4_39 
REMARK       I    between atoms: C2_12  and  N_23 
REMARK       I    between atoms: O2S_13  and  S1_25 
REMARK       I    between atoms: C1_14  and  O1_65 
REMARK       I    between atoms: O3_15  and  C3_69 
REMARK       I    between atoms: C5_16  and  C6_31 
REMARK       I    between atoms: C5_17  and  C6_68 
REMARK       I    between atoms: C5_18  and  C6_71 
REMARK       I    between atoms: O3S_19  and  S1_25 
REMARK       I    between atoms: C6_20  and  C5_28 
REMARK       I    between atoms: C6_20  and  O6_74 
REMARK       I    between atoms: C4_21  and  O1_35 
REMARK       I    between atoms: S2_22  and  O6_74 
REMARK       I    between atoms: N_23  and  S1_25 
REMARK       I    between atoms: O1S_24  and  S1_25 
REMARK       I    between atoms: C4_27  and  O1_63 
REMARK       I    between atoms: O1_29  and  C4_49 
REMARK       I    between atoms: O1_29  and  C1_73 
REMARK       I    between atoms: O2_30  and  C2_78 
REMARK       I    between atoms: O3_33  and  C3_42 
REMARK       I    between atoms: O1_35  and  C1_77 
REMARK       I    between atoms: O3S_37  and  S1_50 
REMARK       I    between atoms: C2_38  and  O2_45 
REMARK       I    between atoms: C6_40  and  C5_51 
REMARK       I    between atoms: C3_41  and  O3_67 
REMARK       I    between atoms: N_46  and  S1_50 
REMARK       I    between atoms: O6_47  and  C6_71 
REMARK       I    between atoms: O6_47  and  S2_72 
REMARK       I    between atoms: S1_50  and  O1S_61 
REMARK       I    between atoms: S1_50  and  O2S_54 
REMARK       I    between atoms: O3_56  and  C3_75 
REMARK       I    between atoms: C1_58  and  O1_63 
ROOT
ATOM      1  O3  SGN d 502       6.364  19.652 -19.301  0.00  0.00    -0.391 OA
ATOM      2  C1  SGN d 502       5.365  17.243 -16.578  0.00  0.00     0.150 C 
ATOM      3  O6S SGN d 502      10.418  13.487 -17.825  0.00  0.00    -0.572 OA
ATOM      4  C2  SGN d 502       5.773  18.603 -17.208  0.00  0.00     0.081 C 
ATOM      5  O1  SGN d 502       4.098  16.826 -17.046  0.00  0.00    -0.348 OA
ATOM      6  O5  SGN d 502       6.353  16.242 -16.863  0.00  0.00    -0.349 OA
ATOM      7  C6  SGN d 502       7.714  14.907 -18.338  0.00  0.00     0.067 C 
ATOM      8  S2  SGN d 502      10.056  14.647 -17.065  0.00  0.00     0.251 S 
ATOM      9  C5  SGN d 502       6.673  16.041 -18.265  0.00  0.00     0.091 C 
ATOM     10  O3S SGN d 502       4.801  19.866 -14.498  0.00  0.00    -0.296 OA
ATOM     11  N   SGN d 502       4.720  19.587 -16.919  0.00  0.00    -0.210 NA
ATOM     12  C3  SGN d 502       5.982  18.418 -18.723  0.00  0.00     0.083 C 
ATOM     13  C4  SGN d 502       7.116  17.387 -18.925  0.00  0.00     0.095 C 
ATOM     14  S1  SGN d 502       4.927  20.654 -15.691  0.00  0.00     0.156 S 
ATOM     15  O2S SGN d 502       3.869  21.613 -15.827  0.00  0.00    -0.296 OA
ATOM     16  O4S SGN d 502      11.147  15.555 -16.879  0.00  0.00    -0.572 OA
ATOM     17  O1S SGN d 502       6.229  21.238 -15.805  0.00  0.00    -0.296 OA
ATOM     18  O5S SGN d 502       9.395  14.312 -15.835  0.00  0.00    -0.572 OA
ATOM     19  O6  SGN d 502       8.970  15.397 -17.905  0.00  0.00    -0.254 OA
ATOM     20  H   SGN d 502       5.654  20.301 -19.176  0.00  0.00     0.210 HD
ATOM     21  H   SGN d 502       5.303  17.376 -15.519  0.00  0.00     0.131 H 
ATOM     22  H   SGN d 502       6.693  18.958 -16.792  0.00  0.00     0.076 H 
ATOM     23  H   SGN d 502       7.795  14.559 -19.346  0.00  0.00     0.080 H 
ATOM     24  H   SGN d 502       7.408  14.099 -17.707  0.00  0.00     0.080 H 
ATOM     25  H   SGN d 502       5.822  15.736 -18.837  0.00  0.00     0.090 H 
ATOM     26  H   SGN d 502       5.534  19.234 -14.449  0.00  0.00     0.231 HD
ATOM     27  H   SGN d 502       3.870  19.061 -16.715  0.00  0.00     0.140 HD
ATOM     28  H   SGN d 502       5.078  18.081 -19.186  0.00  0.00     0.089 H 
ATOM     29  H   SGN d 502       8.059  17.613 -18.474  0.00  0.00     0.091 H 
ATOM     30  H   SGN d 502       3.013  21.165 -15.742  0.00  0.00     0.231 HD
ATOM     31  H   SGN d 502       6.902  20.547 -15.706  0.00  0.00     0.231 HD
ATOM     32  O62 IDS d 503       8.312  21.938 -21.777  0.00  0.00    -0.646 OA
ATOM     33  O2  IDS d 503       9.791  16.146 -22.542  0.00  0.00    -0.244 OA
ATOM     34  O5  IDS d 503       9.115  18.638 -20.927  0.00  0.00    -0.340 OA
ATOM     35  C5  IDS d 503       8.485  19.564 -21.824  0.00  0.00     0.152 C 
ATOM     36  C4  IDS d 503       8.711  19.086 -23.278  0.00  0.00     0.103 C 
ATOM     37  O61 IDS d 503      10.081  21.163 -21.024  0.00  0.00    -0.646 OA
ATOM     38  O1  IDS d 503       7.244  17.347 -20.345  0.00  0.00    -0.348 OA
ATOM     39  C6  IDS d 503       8.993  20.971 -21.523  0.00  0.00     0.206 C 
ATOM     40  O1S IDS d 503       9.570  13.939 -23.456  0.00  0.00    -0.572 OA
ATOM     41  O3S IDS d 503       9.876  14.217 -21.104  0.00  0.00    -0.572 OA
ATOM     42  C3  IDS d 503       8.136  17.653 -23.446  0.00  0.00     0.094 C 
ATOM     43  O2S IDS d 503      11.672  14.689 -22.594  0.00  0.00    -0.572 OA
ATOM     44  S   IDS d 503      10.248  14.654 -22.417  0.00  0.00     0.252 S 
ATOM     45  O3  IDS d 503       6.725  17.750 -23.519  0.00  0.00    -0.390 OA
ATOM     46  C1  IDS d 503       8.544  17.336 -20.872  0.00  0.00     0.161 C 
ATOM     47  C2  IDS d 503       8.511  16.689 -22.284  0.00  0.00     0.134 C 
ATOM     48  H   IDS d 503       7.425  19.601 -21.689  0.00  0.00     0.104 H 
ATOM     49  H   IDS d 503       8.221  19.810 -23.895  0.00  0.00     0.092 H 
ATOM     50  H   IDS d 503       8.563  17.241 -24.336  0.00  0.00     0.091 H 
ATOM     51  H   IDS d 503       6.383  18.127 -22.694  0.00  0.00     0.210 HD
ATOM     52  H   IDS d 503       9.166  16.759 -20.220  0.00  0.00     0.133 H 
ATOM     53  H   IDS d 503       7.735  15.952 -22.261  0.00  0.00     0.097 H 
ATOM     54  C4  IDS d 505      17.682  23.320 -24.070  0.00  0.00    -0.005 C 
ATOM     55  C5  IDS d 505      17.109  22.120 -24.894  0.00  0.00     0.127 C 
ATOM     56  O2  IDS d 505      14.335  24.247 -22.584  0.00  0.00    -0.388 OA
ATOM     57  O62 IDS d 505      17.698  22.081 -27.223  0.00  0.00    -0.646 OA
ATOM     58  C1  IDS d 505      14.764  22.669 -24.361  0.00  0.00     0.159 C 
ATOM     59  O5  IDS d 505      15.774  22.436 -25.357  0.00  0.00    -0.343 OA
ATOM     60  O1  IDS d 505      14.172  21.472 -23.937  0.00  0.00    -0.348 OA
ATOM     61  O61 IDS d 505      19.000  21.110 -25.933  0.00  0.00    -0.646 OA
ATOM     62  C6  IDS d 505      17.985  21.748 -26.091  0.00  0.00     0.203 C 
ATOM     63  C3  IDS d 505      16.563  24.218 -23.480  0.00  0.00     0.068 C 
ATOM     64  C2  IDS d 505      15.328  23.384 -23.105  0.00  0.00     0.107 C 
ATOM     65  H   IDS d 505      18.273  22.933 -23.266  0.00  0.00     0.041 H 
ATOM     66  H   IDS d 505      18.270  23.921 -24.732  0.00  0.00     0.041 H 
ATOM     67  H   IDS d 505      17.089  21.275 -24.239  0.00  0.00     0.100 H 
ATOM     68  H   IDS d 505      13.551  23.729 -22.344  0.00  0.00     0.210 HD
ATOM     69  H   IDS d 505      14.037  23.296 -24.833  0.00  0.00     0.133 H 
ATOM     70  H   IDS d 505      16.267  24.938 -24.215  0.00  0.00     0.087 H 
ATOM     71  H   IDS d 505      15.607  22.649 -22.378  0.00  0.00     0.094 H 
ATOM     72  O4S SGN d 504      11.327  24.874 -27.441  0.00  0.00    -0.572 OA
ATOM     73  C2  SGN d 504      11.825  19.017 -25.393  0.00  0.00     0.081 C 
ATOM     74  O2S SGN d 504      12.258  15.724 -26.984  0.00  0.00    -0.296 OA
ATOM     75  C5  SGN d 504      11.517  21.584 -24.056  0.00  0.00     0.091 C 
ATOM     76  O3S SGN d 504       9.994  16.188 -26.396  0.00  0.00    -0.296 OA
ATOM     77  N   SGN d 504      11.769  17.544 -25.403  0.00  0.00    -0.210 NA
ATOM     78  O1S SGN d 504      11.160  17.668 -27.839  0.00  0.00    -0.296 OA
ATOM     79  S1  SGN d 504      11.272  16.740 -26.752  0.00  0.00     0.156 S 
ATOM     80  C4  SGN d 504      12.927  21.095 -24.535  0.00  0.00     0.095 C 
ATOM     81  O1  SGN d 504      10.088  19.020 -23.662  0.00  0.00    -0.348 OA
ATOM     82  O6S SGN d 504      11.584  25.932 -25.312  0.00  0.00    -0.572 OA
ATOM     83  O6  SGN d 504      11.437  23.543 -25.439  0.00  0.00    -0.254 OA
ATOM     84  O5S SGN d 504       9.519  24.877 -25.878  0.00  0.00    -0.572 OA
ATOM     85  O3  SGN d 504      14.193  19.066 -24.899  0.00  0.00    -0.391 OA
ATOM     86  O5  SGN d 504      10.462  20.985 -24.856  0.00  0.00    -0.349 OA
ATOM     87  C6  SGN d 504      11.305  23.105 -24.103  0.00  0.00     0.067 C 
ATOM     88  S2  SGN d 504      10.944  24.889 -26.061  0.00  0.00     0.251 S 
ATOM     89  C3  SGN d 504      12.937  19.548 -24.461  0.00  0.00     0.083 C 
ATOM     90  C1  SGN d 504      10.447  19.556 -24.917  0.00  0.00     0.150 C 
ATOM     91  H   SGN d 504      12.049  19.355 -26.383  0.00  0.00     0.076 H 
ATOM     92  H   SGN d 504      12.292  15.126 -26.220  0.00  0.00     0.231 HD
ATOM     93  H   SGN d 504      11.477  21.277 -23.032  0.00  0.00     0.090 H 
ATOM     94  H   SGN d 504      10.105  15.566 -25.660  0.00  0.00     0.231 HD
ATOM     95  H   SGN d 504      11.139  17.270 -24.650  0.00  0.00     0.140 HD
ATOM     96  H   SGN d 504      10.867  17.198 -28.636  0.00  0.00     0.231 HD
ATOM     97  H   SGN d 504      12.955  21.611 -25.473  0.00  0.00     0.091 H 
ATOM     98  H   SGN d 504      14.201  18.097 -24.854  0.00  0.00     0.210 HD
ATOM     99  H   SGN d 504      12.038  23.589 -23.492  0.00  0.00     0.080 H 
ATOM    100  H   SGN d 504      10.330  23.347 -23.735  0.00  0.00     0.080 H 
ATOM    101  H   SGN d 504      12.768  19.220 -23.457  0.00  0.00     0.089 H 
ATOM    102  H   SGN d 504       9.714  19.245 -25.631  0.00  0.00     0.131 H 
ATOM    103  C1  IDS d 501       1.294  14.180 -14.955  0.00  0.00     0.156 C 
ATOM    104  O3  IDS d 501       4.403  13.845 -15.461  0.00  0.00    -0.390 OA
ATOM    105  C2  IDS d 501       2.536  14.641 -14.144  0.00  0.00     0.110 C 
ATOM    106  C4  IDS d 501       3.370  15.859 -16.277  0.00  0.00     0.103 C 
ATOM    107  C6  IDS d 501       1.668  15.911 -18.238  0.00  0.00     0.206 C 
ATOM    108  C3  IDS d 501       3.760  15.025 -15.022  0.00  0.00     0.092 C 
ATOM    109  O5  IDS d 501       1.072  15.060 -16.055  0.00  0.00    -0.340 OA
ATOM    110  O2  IDS d 501       2.163  15.770 -13.375  0.00  0.00    -0.388 OA
ATOM    111  C5  IDS d 501       2.162  15.189 -16.986  0.00  0.00     0.152 C 
ATOM    112  O62 IDS d 501       2.007  15.539 -19.337  0.00  0.00    -0.646 OA
ATOM    113  O61 IDS d 501       0.932  16.871 -18.168  0.00  0.00    -0.646 OA
ATOM    114  O1  IDS d 501       1.487  12.853 -15.368  0.00  0.00    -0.368 OA
ATOM    115  H   IDS d 501       0.415  14.215 -14.344  0.00  0.00     0.133 H 
ATOM    116  H   IDS d 501       4.654  13.309 -14.692  0.00  0.00     0.210 HD
ATOM    117  H   IDS d 501       2.842  13.812 -13.540  0.00  0.00     0.094 H 
ATOM    118  H   IDS d 501       3.434  16.760 -15.704  0.00  0.00     0.092 H 
ATOM    119  H   IDS d 501       4.402  15.627 -14.414  0.00  0.00     0.091 H 
ATOM    120  H   IDS d 501       1.895  16.490 -13.967  0.00  0.00     0.210 HD
ATOM    121  H   IDS d 501       2.516  14.235 -17.318  0.00  0.00     0.104 H 
ATOM    122  H   IDS d 501       2.280  12.800 -15.924  0.00  0.00     0.212 HD
ATOM    123  O3  IDS d 535      17.067  24.859 -22.327  0.00  0.00    -0.393 OA
ATOM    124  H   IDS d 535      17.846  25.385 -22.564  0.00  0.00     0.210 HD
ENDROOT
TORSDOF 37
ENDMDL
MODEL 60
REMARK VINA RESULT:      -5.3      3.175     13.122
REMARK  0 active torsions:
REMARK  status: ('A' for Active; 'I' for Inactive)
REMARK       I    between atoms: O3_1  and  C3_48 
REMARK       I    between atoms: C1_2  and  O1_8 
REMARK       I    between atoms: O2_5  and  C2_76 
REMARK       I    between atoms: O2_5  and  S_66 
REMARK       I    between atoms: C2_7  and  N_46 
REMARK       I    between atoms: O1_8  and  C4_39 
REMARK       I    between atoms: C2_12  and  N_23 
REMARK       I    between atoms: O2S_13  and  S1_25 
REMARK       I    between atoms: C1_14  and  O1_65 
REMARK       I    between atoms: O3_15  and  C3_69 
REMARK       I    between atoms: C5_16  and  C6_31 
REMARK       I    between atoms: C5_17  and  C6_68 
REMARK       I    between atoms: C5_18  and  C6_71 
REMARK       I    between atoms: O3S_19  and  S1_25 
REMARK       I    between atoms: C6_20  and  C5_28 
REMARK       I    between atoms: C6_20  and  O6_74 
REMARK       I    between atoms: C4_21  and  O1_35 
REMARK       I    between atoms: S2_22  and  O6_74 
REMARK       I    between atoms: N_23  and  S1_25 
REMARK       I    between atoms: O1S_24  and  S1_25 
REMARK       I    between atoms: C4_27  and  O1_63 
REMARK       I    between atoms: O1_29  and  C4_49 
REMARK       I    between atoms: O1_29  and  C1_73 
REMARK       I    between atoms: O2_30  and  C2_78 
REMARK       I    between atoms: O3_33  and  C3_42 
REMARK       I    between atoms: O1_35  and  C1_77 
REMARK       I    between atoms: O3S_37  and  S1_50 
REMARK       I    between atoms: C2_38  and  O2_45 
REMARK       I    between atoms: C6_40  and  C5_51 
REMARK       I    between atoms: C3_41  and  O3_67 
REMARK       I    between atoms: N_46  and  S1_50 
REMARK       I    between atoms: O6_47  and  C6_71 
REMARK       I    between atoms: O6_47  and  S2_72 
REMARK       I    between atoms: S1_50  and  O1S_61 
REMARK       I    between atoms: S1_50  and  O2S_54 
REMARK       I    between atoms: O3_56  and  C3_75 
REMARK       I    between atoms: C1_58  and  O1_63 
ROOT
ATOM      1  O3  SGN d 502       8.592  19.924 -23.040  0.00  0.00    -0.391 OA
ATOM      2  C1  SGN d 502      12.285  19.170 -23.083  0.00  0.00     0.150 C 
ATOM      3  O6S SGN d 502      11.436  13.998 -19.376  0.00  0.00    -0.572 OA
ATOM      4  C2  SGN d 502      10.868  19.421 -23.667  0.00  0.00     0.081 C 
ATOM      5  O1  SGN d 502      12.801  20.339 -22.480  0.00  0.00    -0.348 OA
ATOM      6  O5  SGN d 502      12.252  18.095 -22.132  0.00  0.00    -0.349 OA
ATOM      7  C6  SGN d 502      11.468  17.002 -20.132  0.00  0.00     0.067 C 
ATOM      8  S2  SGN d 502      11.403  14.397 -20.753  0.00  0.00     0.251 S 
ATOM      9  C5  SGN d 502      11.305  18.236 -21.040  0.00  0.00     0.091 C 
ATOM     10  O3S SGN d 502      12.334  19.719 -26.433  0.00  0.00    -0.296 OA
ATOM     11  N   SGN d 502      10.944  20.547 -24.609  0.00  0.00    -0.210 NA
ATOM     12  C3  SGN d 502       9.887  19.705 -22.514  0.00  0.00     0.083 C 
ATOM     13  C4  SGN d 502       9.861  18.463 -21.594  0.00  0.00     0.095 C 
ATOM     14  S1  SGN d 502      11.018  20.249 -26.219  0.00  0.00     0.156 S 
ATOM     15  O2S SGN d 502      10.830  21.519 -26.859  0.00  0.00    -0.296 OA
ATOM     16  O4S SGN d 502      10.486  13.625 -21.534  0.00  0.00    -0.572 OA
ATOM     17  O1S SGN d 502      10.002  19.298 -26.557  0.00  0.00    -0.296 OA
ATOM     18  O5S SGN d 502      12.713  14.463 -21.335  0.00  0.00    -0.572 OA
ATOM     19  O6  SGN d 502      10.890  15.876 -20.766  0.00  0.00    -0.254 OA
ATOM     20  H   SGN d 502       8.605  20.704 -23.617  0.00  0.00     0.210 HD
ATOM     21  H   SGN d 502      12.932  18.897 -23.890  0.00  0.00     0.131 H 
ATOM     22  H   SGN d 502      10.513  18.561 -24.194  0.00  0.00     0.076 H 
ATOM     23  H   SGN d 502      10.976  17.177 -19.198  0.00  0.00     0.080 H 
ATOM     24  H   SGN d 502      12.507  16.821 -19.957  0.00  0.00     0.080 H 
ATOM     25  H   SGN d 502      11.497  19.104 -20.445  0.00  0.00     0.090 H 
ATOM     26  H   SGN d 502      12.415  18.863 -25.983  0.00  0.00     0.231 HD
ATOM     27  H   SGN d 502      11.779  21.080 -24.367  0.00  0.00     0.140 HD
ATOM     28  H   SGN d 502      10.194  20.572 -21.968  0.00  0.00     0.089 H 
ATOM     29  H   SGN d 502       9.596  17.531 -22.048  0.00  0.00     0.091 H 
ATOM     30  H   SGN d 502      11.543  22.122 -26.596  0.00  0.00     0.231 HD
ATOM     31  H   SGN d 502      10.178  18.462 -26.098  0.00  0.00     0.231 HD
ATOM     32  O62 IDS d 503       4.705  19.712 -23.055  0.00  0.00    -0.646 OA
ATOM     33  O2  IDS d 503       7.014  16.966 -18.212  0.00  0.00    -0.244 OA
ATOM     34  O5  IDS d 503       6.885  17.738 -21.155  0.00  0.00    -0.340 OA
ATOM     35  C5  IDS d 503       6.023  18.880 -21.254  0.00  0.00     0.152 C 
ATOM     36  C4  IDS d 503       5.251  19.043 -19.925  0.00  0.00     0.103 C 
ATOM     37  O61 IDS d 503       4.866  17.647 -22.953  0.00  0.00    -0.646 OA
ATOM     38  O1  IDS d 503       8.891  18.828 -20.614  0.00  0.00    -0.348 OA
ATOM     39  C6  IDS d 503       5.146  18.734 -22.494  0.00  0.00     0.206 C 
ATOM     40  O1S IDS d 503       7.839  16.836 -15.963  0.00  0.00    -0.572 OA
ATOM     41  O3S IDS d 503       9.082  15.830 -17.736  0.00  0.00    -0.572 OA
ATOM     42  C3  IDS d 503       6.262  19.195 -18.755  0.00  0.00     0.094 C 
ATOM     43  O2S IDS d 503       7.005  14.882 -17.063  0.00  0.00    -0.572 OA
ATOM     44  S   IDS d 503       7.786  16.080 -17.179  0.00  0.00     0.252 S 
ATOM     45  O3  IDS d 503       6.793  20.506 -18.800  0.00  0.00    -0.390 OA
ATOM     46  C1  IDS d 503       7.963  17.848 -20.233  0.00  0.00     0.161 C 
ATOM     47  C2  IDS d 503       7.437  18.177 -18.809  0.00  0.00     0.134 C 
ATOM     48  H   IDS d 503       6.569  19.790 -21.390  0.00  0.00     0.104 H 
ATOM     49  H   IDS d 503       4.631  19.904 -20.058  0.00  0.00     0.092 H 
ATOM     50  H   IDS d 503       5.730  19.002 -17.847  0.00  0.00     0.091 H 
ATOM     51  H   IDS d 503       7.265  20.636 -19.638  0.00  0.00     0.210 HD
ATOM     52  H   IDS d 503       8.457  16.899 -20.229  0.00  0.00     0.133 H 
ATOM     53  H   IDS d 503       8.246  18.646 -18.288  0.00  0.00     0.097 H 
ATOM     54  C4  IDS d 505      -1.875  12.554 -22.403  0.00  0.00    -0.005 C 
ATOM     55  C5  IDS d 505      -1.438  13.000 -20.969  0.00  0.00     0.127 C 
ATOM     56  O2  IDS d 505       0.060  15.294 -24.139  0.00  0.00    -0.388 OA
ATOM     57  O62 IDS d 505      -3.215  13.269 -19.375  0.00  0.00    -0.646 OA
ATOM     58  C1  IDS d 505      -0.356  15.066 -21.771  0.00  0.00     0.159 C 
ATOM     59  O5  IDS d 505      -1.329  14.443 -20.917  0.00  0.00    -0.343 OA
ATOM     60  O1  IDS d 505       0.911  15.098 -21.172  0.00  0.00    -0.348 OA
ATOM     61  O61 IDS d 505      -2.370  11.378 -19.494  0.00  0.00    -0.646 OA
ATOM     62  C6  IDS d 505      -2.399  12.524 -19.880  0.00  0.00     0.203 C 
ATOM     63  C3  IDS d 505      -1.521  13.610 -23.483  0.00  0.00     0.068 C 
ATOM     64  C2  IDS d 505      -0.214  14.337 -23.132  0.00  0.00     0.107 C 
ATOM     65  H   IDS d 505      -1.381  11.636 -22.644  0.00  0.00     0.041 H 
ATOM     66  H   IDS d 505      -2.939  12.434 -22.399  0.00  0.00     0.041 H 
ATOM     67  H   IDS d 505      -0.489  12.545 -20.779  0.00  0.00     0.100 H 
ATOM     68  H   IDS d 505       0.884  15.759 -23.926  0.00  0.00     0.210 HD
ATOM     69  H   IDS d 505      -0.715  16.062 -21.933  0.00  0.00     0.133 H 
ATOM     70  H   IDS d 505      -2.304  14.338 -23.533  0.00  0.00     0.087 H 
ATOM     71  H   IDS d 505       0.581  13.623 -23.068  0.00  0.00     0.094 H 
ATOM     72  O4S SGN d 504      -2.155  19.840 -21.406  0.00  0.00    -0.572 OA
ATOM     73  C2  SGN d 504       2.489  16.978 -18.411  0.00  0.00     0.081 C 
ATOM     74  O2S SGN d 504       3.226  16.180 -14.892  0.00  0.00    -0.296 OA
ATOM     75  C5  SGN d 504       1.966  17.539 -21.218  0.00  0.00     0.091 C 
ATOM     76  O3S SGN d 504       4.359  18.131 -15.665  0.00  0.00    -0.296 OA
ATOM     77  N   SGN d 504       3.394  16.601 -17.309  0.00  0.00    -0.210 NA
ATOM     78  O1S SGN d 504       1.991  18.023 -15.783  0.00  0.00    -0.296 OA
ATOM     79  S1  SGN d 504       3.214  17.276 -15.818  0.00  0.00     0.156 S 
ATOM     80  C4  SGN d 504       1.307  16.306 -20.513  0.00  0.00     0.095 C 
ATOM     81  O1  SGN d 504       4.414  17.928 -19.597  0.00  0.00    -0.348 OA
ATOM     82  O6S SGN d 504      -1.505  19.184 -23.612  0.00  0.00    -0.572 OA
ATOM     83  O6  SGN d 504      -0.086  18.661 -21.752  0.00  0.00    -0.254 OA
ATOM     84  O5S SGN d 504      -0.309  20.913 -22.482  0.00  0.00    -0.572 OA
ATOM     85  O3  SGN d 504       1.714  14.710 -18.740  0.00  0.00    -0.391 OA
ATOM     86  O5  SGN d 504       2.277  18.582 -20.255  0.00  0.00    -0.349 OA
ATOM     87  C6  SGN d 504       1.117  18.188 -22.322  0.00  0.00     0.067 C 
ATOM     88  S2  SGN d 504      -1.082  19.708 -22.346  0.00  0.00     0.251 S 
ATOM     89  C3  SGN d 504       2.281  15.819 -19.411  0.00  0.00     0.083 C 
ATOM     90  C1  SGN d 504       3.103  18.199 -19.152  0.00  0.00     0.150 C 
ATOM     91  H   SGN d 504       1.533  17.220 -17.997  0.00  0.00     0.076 H 
ATOM     92  H   SGN d 504       4.073  15.711 -14.956  0.00  0.00     0.231 HD
ATOM     93  H   SGN d 504       2.844  17.131 -21.675  0.00  0.00     0.090 H 
ATOM     94  H   SGN d 504       5.167  17.597 -15.693  0.00  0.00     0.231 HD
ATOM     95  H   SGN d 504       4.340  16.822 -17.619  0.00  0.00     0.140 HD
ATOM     96  H   SGN d 504       1.881  18.423 -14.906  0.00  0.00     0.231 HD
ATOM     97  H   SGN d 504       0.366  16.755 -20.269  0.00  0.00     0.091 H 
ATOM     98  H   SGN d 504       2.323  14.404 -18.049  0.00  0.00     0.210 HD
ATOM     99  H   SGN d 504       0.897  17.465 -23.079  0.00  0.00     0.080 H 
ATOM    100  H   SGN d 504       1.655  19.001 -22.764  0.00  0.00     0.080 H 
ATOM    101  H   SGN d 504       3.216  15.526 -19.840  0.00  0.00     0.089 H 
ATOM    102  H   SGN d 504       3.151  19.009 -18.455  0.00  0.00     0.131 H 
ATOM    103  C1  IDS d 501      17.039  21.343 -21.953  0.00  0.00     0.156 C 
ATOM    104  O3  IDS d 501      15.500  18.649 -21.316  0.00  0.00    -0.390 OA
ATOM    105  C2  IDS d 501      16.733  20.090 -22.818  0.00  0.00     0.110 C 
ATOM    106  C4  IDS d 501      14.218  20.440 -22.285  0.00  0.00     0.103 C 
ATOM    107  C6  IDS d 501      13.665  22.651 -21.040  0.00  0.00     0.206 C 
ATOM    108  C3  IDS d 501      15.370  19.415 -22.497  0.00  0.00     0.092 C 
ATOM    109  O5  IDS d 501      15.885  22.179 -21.876  0.00  0.00    -0.340 OA
ATOM    110  O2  IDS d 501      16.730  20.486 -24.177  0.00  0.00    -0.388 OA
ATOM    111  C5  IDS d 501      14.701  21.567 -21.333  0.00  0.00     0.152 C 
ATOM    112  O62 IDS d 501      13.012  22.621 -20.024  0.00  0.00    -0.646 OA
ATOM    113  O61 IDS d 501      13.468  23.563 -21.813  0.00  0.00    -0.646 OA
ATOM    114  O1  IDS d 501      17.477  20.927 -20.686  0.00  0.00    -0.368 OA
ATOM    115  H   IDS d 501      17.817  21.925 -22.401  0.00  0.00     0.133 H 
ATOM    116  H   IDS d 501      16.214  18.002 -21.427  0.00  0.00     0.210 HD
ATOM    117  H   IDS d 501      17.491  19.366 -22.599  0.00  0.00     0.094 H 
ATOM    118  H   IDS d 501      14.025  20.448 -23.338  0.00  0.00     0.092 H 
ATOM    119  H   IDS d 501      15.118  18.807 -23.341  0.00  0.00     0.091 H 
ATOM    120  H   IDS d 501      16.028  21.140 -24.321  0.00  0.00     0.210 HD
ATOM    121  H   IDS d 501      14.896  21.087 -20.395  0.00  0.00     0.104 H 
ATOM    122  H   IDS d 501      16.783  20.396 -20.263  0.00  0.00     0.212 HD
ATOM    123  O3  IDS d 535      -1.374  12.949 -24.723  0.00  0.00    -0.393 OA
ATOM    124  H   IDS d 535      -2.200  12.489 -24.943  0.00  0.00     0.210 HD
ENDROOT
TORSDOF 37
ENDMDL
MODEL 61
REMARK VINA RESULT:      -5.3      5.711      7.604
REMARK  0 active torsions:
REMARK  status: ('A' for Active; 'I' for Inactive)
REMARK       I    between atoms: O3_1  and  C3_48 
REMARK       I    between atoms: C1_2  and  O1_8 
REMARK       I    between atoms: O2_5  and  C2_76 
REMARK       I    between atoms: O2_5  and  S_66 
REMARK       I    between atoms: C2_7  and  N_46 
REMARK       I    between atoms: O1_8  and  C4_39 
REMARK       I    between atoms: C2_12  and  N_23 
REMARK       I    between atoms: O2S_13  and  S1_25 
REMARK       I    between atoms: C1_14  and  O1_65 
REMARK       I    between atoms: O3_15  and  C3_69 
REMARK       I    between atoms: C5_16  and  C6_31 
REMARK       I    between atoms: C5_17  and  C6_68 
REMARK       I    between atoms: C5_18  and  C6_71 
REMARK       I    between atoms: O3S_19  and  S1_25 
REMARK       I    between atoms: C6_20  and  C5_28 
REMARK       I    between atoms: C6_20  and  O6_74 
REMARK       I    between atoms: C4_21  and  O1_35 
REMARK       I    between atoms: S2_22  and  O6_74 
REMARK       I    between atoms: N_23  and  S1_25 
REMARK       I    between atoms: O1S_24  and  S1_25 
REMARK       I    between atoms: C4_27  and  O1_63 
REMARK       I    between atoms: O1_29  and  C4_49 
REMARK       I    between atoms: O1_29  and  C1_73 
REMARK       I    between atoms: O2_30  and  C2_78 
REMARK       I    between atoms: O3_33  and  C3_42 
REMARK       I    between atoms: O1_35  and  C1_77 
REMARK       I    between atoms: O3S_37  and  S1_50 
REMARK       I    between atoms: C2_38  and  O2_45 
REMARK       I    between atoms: C6_40  and  C5_51 
REMARK       I    between atoms: C3_41  and  O3_67 
REMARK       I    between atoms: N_46  and  S1_50 
REMARK       I    between atoms: O6_47  and  C6_71 
REMARK       I    between atoms: O6_47  and  S2_72 
REMARK       I    between atoms: S1_50  and  O1S_61 
REMARK       I    between atoms: S1_50  and  O2S_54 
REMARK       I    between atoms: O3_56  and  C3_75 
REMARK       I    between atoms: C1_58  and  O1_63 
ROOT
ATOM      1  O3  SGN d 502      10.196  15.893 -25.303  0.00  0.00    -0.391 OA
ATOM      2  C1  SGN d 502       6.980  16.742 -27.079  0.00  0.00     0.150 C 
ATOM      3  O6S SGN d 502       5.193  20.654 -22.313  0.00  0.00    -0.572 OA
ATOM      4  C2  SGN d 502       8.515  16.620 -26.877  0.00  0.00     0.081 C 
ATOM      5  O1  SGN d 502       6.374  15.468 -27.152  0.00  0.00    -0.348 OA
ATOM      6  O5  SGN d 502       6.395  17.509 -26.016  0.00  0.00    -0.349 OA
ATOM      7  C6  SGN d 502       5.912  17.981 -23.702  0.00  0.00     0.067 C 
ATOM      8  S2  SGN d 502       5.971  20.652 -23.518  0.00  0.00     0.251 S 
ATOM      9  C5  SGN d 502       6.662  17.043 -24.668  0.00  0.00     0.091 C 
ATOM     10  O3S SGN d 502       8.712  17.146 -29.971  0.00  0.00    -0.296 OA
ATOM     11  N   SGN d 502       9.066  15.802 -27.967  0.00  0.00    -0.210 NA
ATOM     12  C3  SGN d 502       8.798  15.997 -25.496  0.00  0.00     0.083 C 
ATOM     13  C4  SGN d 502       8.202  16.934 -24.421  0.00  0.00     0.095 C 
ATOM     14  S1  SGN d 502       9.788  16.537 -29.242  0.00  0.00     0.156 S 
ATOM     15  O2S SGN d 502      10.427  15.489 -29.985  0.00  0.00    -0.296 OA
ATOM     16  O4S SGN d 502       7.057  21.582 -23.481  0.00  0.00    -0.572 OA
ATOM     17  O1S SGN d 502      10.712  17.513 -28.747  0.00  0.00    -0.296 OA
ATOM     18  O5S SGN d 502       5.159  20.790 -24.694  0.00  0.00    -0.572 OA
ATOM     19  O6  SGN d 502       6.593  19.220 -23.633  0.00  0.00    -0.254 OA
ATOM     20  H   SGN d 502      10.572  15.305 -25.976  0.00  0.00     0.210 HD
ATOM     21  H   SGN d 502       6.808  17.247 -28.005  0.00  0.00     0.131 H 
ATOM     22  H   SGN d 502       8.984  17.581 -26.904  0.00  0.00     0.076 H 
ATOM     23  H   SGN d 502       5.876  17.538 -22.729  0.00  0.00     0.080 H 
ATOM     24  H   SGN d 502       4.915  18.138 -24.058  0.00  0.00     0.080 H 
ATOM     25  H   SGN d 502       6.299  16.050 -24.501  0.00  0.00     0.090 H 
ATOM     26  H   SGN d 502       8.311  17.845 -29.431  0.00  0.00     0.231 HD
ATOM     27  H   SGN d 502       8.296  15.248 -28.341  0.00  0.00     0.140 HD
ATOM     28  H   SGN d 502       8.362  15.022 -25.430  0.00  0.00     0.089 H 
ATOM     29  H   SGN d 502       8.547  17.947 -24.417  0.00  0.00     0.091 H 
ATOM     30  H   SGN d 502       9.758  14.858 -30.295  0.00  0.00     0.231 HD
ATOM     31  H   SGN d 502      10.228  18.194 -28.255  0.00  0.00     0.231 HD
ATOM     32  O62 IDS d 503      13.489  15.983 -23.230  0.00  0.00    -0.646 OA
ATOM     33  O2  IDS d 503       8.723  17.347 -19.801  0.00  0.00    -0.244 OA
ATOM     34  O5  IDS d 503      10.426  17.418 -22.325  0.00  0.00    -0.340 OA
ATOM     35  C5  IDS d 503      11.349  16.322 -22.243  0.00  0.00     0.152 C 
ATOM     36  C4  IDS d 503      11.348  15.774 -20.797  0.00  0.00     0.103 C 
ATOM     37  O61 IDS d 503      13.052  17.942 -22.712  0.00  0.00    -0.646 OA
ATOM     38  O1  IDS d 503       8.572  16.282 -23.207  0.00  0.00    -0.348 OA
ATOM     39  C6  IDS d 503      12.710  16.779 -22.758  0.00  0.00     0.206 C 
ATOM     40  O1S IDS d 503       6.859  16.873 -18.368  0.00  0.00    -0.572 OA
ATOM     41  O3S IDS d 503       6.583  18.369 -20.209  0.00  0.00    -0.572 OA
ATOM     42  C3  IDS d 503       9.909  15.334 -20.412  0.00  0.00     0.094 C 
ATOM     43  O2S IDS d 503       7.896  19.029 -18.336  0.00  0.00    -0.572 OA
ATOM     44  S   IDS d 503       7.433  17.934 -19.140  0.00  0.00     0.252 S 
ATOM     45  O3  IDS d 503       9.637  14.103 -21.056  0.00  0.00    -0.390 OA
ATOM     46  C1  IDS d 503       9.051  17.090 -22.165  0.00  0.00     0.161 C 
ATOM     47  C2  IDS d 503       8.813  16.362 -20.813  0.00  0.00     0.134 C 
ATOM     48  H   IDS d 503      11.061  15.503 -22.868  0.00  0.00     0.104 H 
ATOM     49  H   IDS d 503      12.048  14.965 -20.799  0.00  0.00     0.092 H 
ATOM     50  H   IDS d 503       9.876  15.252 -19.345  0.00  0.00     0.091 H 
ATOM     51  H   IDS d 503       9.678  14.226 -22.018  0.00  0.00     0.210 HD
ATOM     52  H   IDS d 503       8.514  18.014 -22.182  0.00  0.00     0.133 H 
ATOM     53  H   IDS d 503       7.915  15.792 -20.931  0.00  0.00     0.097 H 
ATOM     54  C4  IDS d 505      17.903  22.475 -17.457  0.00  0.00    -0.005 C 
ATOM     55  C5  IDS d 505      16.853  21.662 -16.630  0.00  0.00     0.127 C 
ATOM     56  O2  IDS d 505      17.467  20.384 -20.572  0.00  0.00    -0.388 OA
ATOM     57  O62 IDS d 505      17.587  20.908 -14.470  0.00  0.00    -0.646 OA
ATOM     58  C1  IDS d 505      16.588  19.933 -18.369  0.00  0.00     0.159 C 
ATOM     59  O5  IDS d 505      16.906  20.266 -17.007  0.00  0.00    -0.343 OA
ATOM     60  O1  IDS d 505      15.207  19.776 -18.551  0.00  0.00    -0.348 OA
ATOM     61  O61 IDS d 505      16.700  22.782 -14.532  0.00  0.00    -0.646 OA
ATOM     62  C6  IDS d 505      17.059  21.788 -15.120  0.00  0.00     0.203 C 
ATOM     63  C3  IDS d 505      18.278  21.771 -18.787  0.00  0.00     0.068 C 
ATOM     64  C2  IDS d 505      17.073  21.016 -19.368  0.00  0.00     0.107 C 
ATOM     65  H   IDS d 505      17.493  23.438 -17.680  0.00  0.00     0.041 H 
ATOM     66  H   IDS d 505      18.792  22.556 -16.867  0.00  0.00     0.041 H 
ATOM     67  H   IDS d 505      15.893  22.076 -16.856  0.00  0.00     0.100 H 
ATOM     68  H   IDS d 505      16.713  19.904 -20.947  0.00  0.00     0.210 HD
ATOM     69  H   IDS d 505      17.096  19.012 -18.564  0.00  0.00     0.133 H 
ATOM     70  H   IDS d 505      19.058  21.062 -18.602  0.00  0.00     0.087 H 
ATOM     71  H   IDS d 505      16.277  21.708 -19.551  0.00  0.00     0.094 H 
ATOM     72  O4S SGN d 504      18.508  15.193 -18.333  0.00  0.00    -0.572 OA
ATOM     73  C2  SGN d 504      12.681  17.252 -17.601  0.00  0.00     0.081 C 
ATOM     74  O2S SGN d 504      10.164  17.065 -14.919  0.00  0.00    -0.296 OA
ATOM     75  C5  SGN d 504      14.625  17.476 -19.755  0.00  0.00     0.091 C 
ATOM     76  O3S SGN d 504       9.827  15.440 -16.632  0.00  0.00    -0.296 OA
ATOM     77  N   SGN d 504      11.304  17.336 -17.082  0.00  0.00    -0.210 NA
ATOM     78  O1S SGN d 504      11.892  15.505 -15.464  0.00  0.00    -0.296 OA
ATOM     79  S1  SGN d 504      10.778  16.269 -15.943  0.00  0.00     0.156 S 
ATOM     80  C4  SGN d 504      14.679  18.445 -18.525  0.00  0.00     0.095 C 
ATOM     81  O1  SGN d 504      11.760  16.728 -19.812  0.00  0.00    -0.348 OA
ATOM     82  O6S SGN d 504      19.000  16.455 -20.304  0.00  0.00    -0.572 OA
ATOM     83  O6  SGN d 504      16.780  16.485 -19.400  0.00  0.00    -0.254 OA
ATOM     84  O5S SGN d 504      17.613  14.518 -20.444  0.00  0.00    -0.572 OA
ATOM     85  O3  SGN d 504      13.236  19.498 -16.892  0.00  0.00    -0.391 OA
ATOM     86  O5  SGN d 504      13.994  16.217 -19.396  0.00  0.00    -0.349 OA
ATOM     87  C6  SGN d 504      15.989  17.133 -20.374  0.00  0.00     0.067 C 
ATOM     88  S2  SGN d 504      18.057  15.613 -19.627  0.00  0.00     0.251 S 
ATOM     89  C3  SGN d 504      13.229  18.636 -18.015  0.00  0.00     0.083 C 
ATOM     90  C1  SGN d 504      12.683  16.305 -18.832  0.00  0.00     0.150 C 
ATOM     91  H   SGN d 504      13.314  16.876 -16.825  0.00  0.00     0.076 H 
ATOM     92  H   SGN d 504       9.419  17.559 -15.296  0.00  0.00     0.231 HD
ATOM     93  H   SGN d 504      14.061  18.022 -20.483  0.00  0.00     0.090 H 
ATOM     94  H   SGN d 504       9.089  15.986 -16.943  0.00  0.00     0.231 HD
ATOM     95  H   SGN d 504      10.682  17.239 -17.884  0.00  0.00     0.140 HD
ATOM     96  H   SGN d 504      11.587  14.874 -14.792  0.00  0.00     0.231 HD
ATOM     97  H   SGN d 504      15.410  17.917 -17.948  0.00  0.00     0.091 H 
ATOM     98  H   SGN d 504      12.329  19.619 -16.571  0.00  0.00     0.210 HD
ATOM     99  H   SGN d 504      16.475  18.031 -20.693  0.00  0.00     0.080 H 
ATOM    100  H   SGN d 504      15.853  16.492 -21.219  0.00  0.00     0.080 H 
ATOM    101  H   SGN d 504      12.616  19.065 -18.779  0.00  0.00     0.089 H 
ATOM    102  H   SGN d 504      12.384  15.335 -18.494  0.00  0.00     0.131 H 
ATOM    103  C1  IDS d 501       2.616  14.486 -29.191  0.00  0.00     0.156 C 
ATOM    104  O3  IDS d 501       3.278  16.851 -27.189  0.00  0.00    -0.390 OA
ATOM    105  C2  IDS d 501       3.166  15.921 -29.420  0.00  0.00     0.110 C 
ATOM    106  C4  IDS d 501       5.080  15.360 -27.760  0.00  0.00     0.103 C 
ATOM    107  C6  IDS d 501       5.182  12.875 -27.014  0.00  0.00     0.206 C 
ATOM    108  C3  IDS d 501       4.083  16.438 -28.276  0.00  0.00     0.092 C 
ATOM    109  O5  IDS d 501       3.660  13.628 -28.735  0.00  0.00    -0.340 OA
ATOM    110  O2  IDS d 501       3.910  15.917 -30.625  0.00  0.00    -0.388 OA
ATOM    111  C5  IDS d 501       4.318  14.029 -27.520  0.00  0.00     0.152 C 
ATOM    112  O62 IDS d 501       5.217  12.602 -25.837  0.00  0.00    -0.646 OA
ATOM    113  O61 IDS d 501       5.853  12.207 -27.769  0.00  0.00    -0.646 OA
ATOM    114  O1  IDS d 501       1.547  14.548 -28.283  0.00  0.00    -0.368 OA
ATOM    115  H   IDS d 501       2.251  14.075 -30.109  0.00  0.00     0.133 H 
ATOM    116  H   IDS d 501       2.649  17.524 -27.490  0.00  0.00     0.210 HD
ATOM    117  H   IDS d 501       2.322  16.578 -29.456  0.00  0.00     0.094 H 
ATOM    118  H   IDS d 501       5.781  15.639 -28.517  0.00  0.00     0.092 H 
ATOM    119  H   IDS d 501       4.655  17.248 -28.679  0.00  0.00     0.091 H 
ATOM    120  H   IDS d 501       4.659  15.308 -30.540  0.00  0.00     0.210 HD
ATOM    121  H   IDS d 501       3.617  14.235 -26.738  0.00  0.00     0.104 H 
ATOM    122  H   IDS d 501       1.859  14.919 -27.442  0.00  0.00     0.212 HD
ATOM    123  O3  IDS d 535      18.706  22.755 -19.707  0.00  0.00    -0.393 OA
ATOM    124  H   IDS d 535      19.466  23.232 -19.340  0.00  0.00     0.210 HD
ENDROOT
TORSDOF 37
ENDMDL
MODEL 62
REMARK VINA RESULT:      -5.3      4.163      7.921
REMARK  0 active torsions:
REMARK  status: ('A' for Active; 'I' for Inactive)
REMARK       I    between atoms: O3_1  and  C3_48 
REMARK       I    between atoms: C1_2  and  O1_8 
REMARK       I    between atoms: O2_5  and  C2_76 
REMARK       I    between atoms: O2_5  and  S_66 
REMARK       I    between atoms: C2_7  and  N_46 
REMARK       I    between atoms: O1_8  and  C4_39 
REMARK       I    between atoms: C2_12  and  N_23 
REMARK       I    between atoms: O2S_13  and  S1_25 
REMARK       I    between atoms: C1_14  and  O1_65 
REMARK       I    between atoms: O3_15  and  C3_69 
REMARK       I    between atoms: C5_16  and  C6_31 
REMARK       I    between atoms: C5_17  and  C6_68 
REMARK       I    between atoms: C5_18  and  C6_71 
REMARK       I    between atoms: O3S_19  and  S1_25 
REMARK       I    between atoms: C6_20  and  C5_28 
REMARK       I    between atoms: C6_20  and  O6_74 
REMARK       I    between atoms: C4_21  and  O1_35 
REMARK       I    between atoms: S2_22  and  O6_74 
REMARK       I    between atoms: N_23  and  S1_25 
REMARK       I    between atoms: O1S_24  and  S1_25 
REMARK       I    between atoms: C4_27  and  O1_63 
REMARK       I    between atoms: O1_29  and  C4_49 
REMARK       I    between atoms: O1_29  and  C1_73 
REMARK       I    between atoms: O2_30  and  C2_78 
REMARK       I    between atoms: O3_33  and  C3_42 
REMARK       I    between atoms: O1_35  and  C1_77 
REMARK       I    between atoms: O3S_37  and  S1_50 
REMARK       I    between atoms: C2_38  and  O2_45 
REMARK       I    between atoms: C6_40  and  C5_51 
REMARK       I    between atoms: C3_41  and  O3_67 
REMARK       I    between atoms: N_46  and  S1_50 
REMARK       I    between atoms: O6_47  and  C6_71 
REMARK       I    between atoms: O6_47  and  S2_72 
REMARK       I    between atoms: S1_50  and  O1S_61 
REMARK       I    between atoms: S1_50  and  O2S_54 
REMARK       I    between atoms: O3_56  and  C3_75 
REMARK       I    between atoms: C1_58  and  O1_63 
ROOT
ATOM      1  O3  SGN d 502       2.560  17.438 -19.680  0.00  0.00    -0.391 OA
ATOM      2  C1  SGN d 502       1.083  14.840 -21.979  0.00  0.00     0.150 C 
ATOM      3  O6S SGN d 502       4.689  16.891 -26.877  0.00  0.00    -0.572 OA
ATOM      4  C2  SGN d 502       1.832  15.392 -20.735  0.00  0.00     0.081 C 
ATOM      5  O1  SGN d 502      -0.280  15.212 -21.959  0.00  0.00    -0.348 OA
ATOM      6  O5  SGN d 502       1.706  15.304 -23.186  0.00  0.00    -0.349 OA
ATOM      7  C6  SGN d 502       2.501  17.013 -24.689  0.00  0.00     0.067 C 
ATOM      8  S2  SGN d 502       4.743  16.005 -25.751  0.00  0.00     0.251 S 
ATOM      9  C5  SGN d 502       1.852  16.743 -23.318  0.00  0.00     0.091 C 
ATOM     10  O3S SGN d 502       1.473  12.503 -19.548  0.00  0.00    -0.296 OA
ATOM     11  N   SGN d 502       1.142  14.919 -19.526  0.00  0.00    -0.210 NA
ATOM     12  C3  SGN d 502       1.869  16.930 -20.806  0.00  0.00     0.083 C 
ATOM     13  C4  SGN d 502       2.628  17.329 -22.093  0.00  0.00     0.095 C 
ATOM     14  S1  SGN d 502       1.743  13.633 -18.705  0.00  0.00     0.156 S 
ATOM     15  O2S SGN d 502       1.012  13.582 -17.472  0.00  0.00    -0.296 OA
ATOM     16  O4S SGN d 502       6.065  15.853 -25.224  0.00  0.00    -0.572 OA
ATOM     17  O1S SGN d 502       3.148  13.827 -18.514  0.00  0.00    -0.296 OA
ATOM     18  O5S SGN d 502       4.101  14.748 -26.014  0.00  0.00    -0.572 OA
ATOM     19  O6  SGN d 502       3.873  16.668 -24.633  0.00  0.00    -0.254 OA
ATOM     20  H   SGN d 502       2.085  17.190 -18.872  0.00  0.00     0.210 HD
ATOM     21  H   SGN d 502       1.138  13.772 -21.951  0.00  0.00     0.131 H 
ATOM     22  H   SGN d 502       2.842  15.041 -20.709  0.00  0.00     0.076 H 
ATOM     23  H   SGN d 502       2.403  18.050 -24.933  0.00  0.00     0.080 H 
ATOM     24  H   SGN d 502       2.014  16.425 -25.438  0.00  0.00     0.080 H 
ATOM     25  H   SGN d 502       0.911  17.251 -23.299  0.00  0.00     0.090 H 
ATOM     26  H   SGN d 502       1.986  12.580 -20.367  0.00  0.00     0.231 HD
ATOM     27  H   SGN d 502       0.191  14.675 -19.803  0.00  0.00     0.140 HD
ATOM     28  H   SGN d 502       0.876  17.328 -20.816  0.00  0.00     0.089 H 
ATOM     29  H   SGN d 502       3.625  16.957 -22.201  0.00  0.00     0.091 H 
ATOM     30  H   SGN d 502       0.069  13.450 -17.660  0.00  0.00     0.231 HD
ATOM     31  H   SGN d 502       3.591  13.853 -19.376  0.00  0.00     0.231 HD
ATOM     32  O62 IDS d 503       4.920  19.896 -17.800  0.00  0.00    -0.646 OA
ATOM     33  O2  IDS d 503       4.551  21.284 -23.654  0.00  0.00    -0.244 OA
ATOM     34  O5  IDS d 503       4.763  19.409 -21.263  0.00  0.00    -0.340 OA
ATOM     35  C5  IDS d 503       4.375  20.159 -20.103  0.00  0.00     0.152 C 
ATOM     36  C4  IDS d 503       4.346  21.662 -20.464  0.00  0.00     0.103 C 
ATOM     37  O61 IDS d 503       6.427  19.391 -19.131  0.00  0.00    -0.646 OA
ATOM     38  O1  IDS d 503       2.639  18.753 -22.014  0.00  0.00    -0.348 OA
ATOM     39  C6  IDS d 503       5.298  19.793 -18.945  0.00  0.00     0.206 C 
ATOM     40  O1S IDS d 503       3.620  22.353 -25.589  0.00  0.00    -0.572 OA
ATOM     41  O3S IDS d 503       4.160  20.028 -25.669  0.00  0.00    -0.572 OA
ATOM     42  C3  IDS d 503       3.360  21.891 -21.643  0.00  0.00     0.094 C 
ATOM     43  O2S IDS d 503       5.905  21.645 -25.577  0.00  0.00    -0.572 OA
ATOM     44  S   IDS d 503       4.551  21.331 -25.218  0.00  0.00     0.252 S 
ATOM     45  O3  IDS d 503       2.041  21.816 -21.135  0.00  0.00    -0.390 OA
ATOM     46  C1  IDS d 503       3.836  19.405 -22.343  0.00  0.00     0.161 C 
ATOM     47  C2  IDS d 503       3.512  20.856 -22.794  0.00  0.00     0.134 C 
ATOM     48  H   IDS d 503       3.386  19.916 -19.776  0.00  0.00     0.104 H 
ATOM     49  H   IDS d 503       4.051  22.165 -19.567  0.00  0.00     0.092 H 
ATOM     50  H   IDS d 503       3.582  22.850 -22.062  0.00  0.00     0.091 H 
ATOM     51  H   IDS d 503       1.885  20.932 -20.767  0.00  0.00     0.210 HD
ATOM     52  H   IDS d 503       4.302  18.870 -23.142  0.00  0.00     0.133 H 
ATOM     53  H   IDS d 503       2.556  20.817 -23.274  0.00  0.00     0.097 H 
ATOM     54  C4  IDS d 505      14.091  22.986 -18.946  0.00  0.00    -0.005 C 
ATOM     55  C5  IDS d 505      13.130  23.846 -19.831  0.00  0.00     0.127 C 
ATOM     56  O2  IDS d 505      11.285  21.103 -17.258  0.00  0.00    -0.388 OA
ATOM     57  O62 IDS d 505      13.516  26.217 -19.785  0.00  0.00    -0.646 OA
ATOM     58  C1  IDS d 505      11.099  23.039 -18.689  0.00  0.00     0.159 C 
ATOM     59  O5  IDS d 505      11.921  24.146 -19.094  0.00  0.00    -0.343 OA
ATOM     60  O1  IDS d 505      10.209  22.660 -19.703  0.00  0.00    -0.348 OA
ATOM     61  O61 IDS d 505      14.557  25.148 -21.226  0.00  0.00    -0.646 OA
ATOM     62  C6  IDS d 505      13.769  25.151 -20.307  0.00  0.00     0.203 C 
ATOM     63  C3  IDS d 505      13.334  22.215 -17.832  0.00  0.00     0.068 C 
ATOM     64  C2  IDS d 505      11.937  21.790 -18.309  0.00  0.00     0.107 C 
ATOM     65  H   IDS d 505      14.595  22.279 -19.572  0.00  0.00     0.041 H 
ATOM     66  H   IDS d 505      14.783  23.650 -18.472  0.00  0.00     0.041 H 
ATOM     67  H   IDS d 505      12.906  23.265 -20.700  0.00  0.00     0.100 H 
ATOM     68  H   IDS d 505      10.401  20.830 -17.550  0.00  0.00     0.210 HD
ATOM     69  H   IDS d 505      10.559  23.383 -17.831  0.00  0.00     0.133 H 
ATOM     70  H   IDS d 505      13.215  22.854 -16.981  0.00  0.00     0.087 H 
ATOM     71  H   IDS d 505      12.034  21.158 -19.168  0.00  0.00     0.094 H 
ATOM     72  O4S SGN d 504       8.265  25.568 -15.264  0.00  0.00    -0.572 OA
ATOM     73  C2  SGN d 504       7.141  24.075 -21.200  0.00  0.00     0.081 C 
ATOM     74  O2S SGN d 504       6.462  25.969 -24.284  0.00  0.00    -0.296 OA
ATOM     75  C5  SGN d 504       7.706  22.505 -18.815  0.00  0.00     0.091 C 
ATOM     76  O3S SGN d 504       4.486  25.123 -23.253  0.00  0.00    -0.296 OA
ATOM     77  N   SGN d 504       6.649  24.202 -22.584  0.00  0.00    -0.210 NA
ATOM     78  O1S SGN d 504       5.935  26.546 -22.025  0.00  0.00    -0.296 OA
ATOM     79  S1  SGN d 504       5.841  25.556 -23.058  0.00  0.00     0.156 S 
ATOM     80  C4  SGN d 504       8.869  23.160 -19.635  0.00  0.00     0.095 C 
ATOM     81  O1  SGN d 504       5.610  22.185 -20.884  0.00  0.00    -0.348 OA
ATOM     82  O6S SGN d 504       8.974  23.395 -14.563  0.00  0.00    -0.572 OA
ATOM     83  O6  SGN d 504       8.115  23.705 -16.779  0.00  0.00    -0.254 OA
ATOM     84  O5S SGN d 504       6.655  23.839 -14.907  0.00  0.00    -0.572 OA
ATOM     85  O3  SGN d 504       9.445  23.816 -21.893  0.00  0.00    -0.391 OA
ATOM     86  O5  SGN d 504       6.466  23.243 -18.993  0.00  0.00    -0.349 OA
ATOM     87  C6  SGN d 504       7.953  22.403 -17.302  0.00  0.00     0.067 C 
ATOM     88  S2  SGN d 504       8.003  24.160 -15.289  0.00  0.00     0.251 S 
ATOM     89  C3  SGN d 504       8.423  23.217 -21.118  0.00  0.00     0.083 C 
ATOM     90  C1  SGN d 504       6.024  23.421 -20.341  0.00  0.00     0.150 C 
ATOM     91  H   SGN d 504       7.385  25.050 -20.835  0.00  0.00     0.076 H 
ATOM     92  H   SGN d 504       6.371  25.265 -24.946  0.00  0.00     0.231 HD
ATOM     93  H   SGN d 504       7.648  21.511 -19.207  0.00  0.00     0.090 H 
ATOM     94  H   SGN d 504       4.458  24.456 -23.956  0.00  0.00     0.231 HD
ATOM     95  H   SGN d 504       6.020  23.415 -22.744  0.00  0.00     0.140 HD
ATOM     96  H   SGN d 504       5.460  27.347 -22.300  0.00  0.00     0.231 HD
ATOM     97  H   SGN d 504       8.983  24.050 -19.051  0.00  0.00     0.091 H 
ATOM     98  H   SGN d 504       9.168  23.852 -22.822  0.00  0.00     0.210 HD
ATOM     99  H   SGN d 504       8.838  21.829 -17.120  0.00  0.00     0.080 H 
ATOM    100  H   SGN d 504       7.123  21.921 -16.830  0.00  0.00     0.080 H 
ATOM    101  H   SGN d 504       8.236  22.232 -21.491  0.00  0.00     0.089 H 
ATOM    102  H   SGN d 504       5.183  24.082 -20.347  0.00  0.00     0.131 H 
ATOM    103  C1  IDS d 501      -3.590  13.081 -23.893  0.00  0.00     0.156 C 
ATOM    104  O3  IDS d 501      -0.765  13.919 -25.055  0.00  0.00    -0.390 OA
ATOM    105  C2  IDS d 501      -2.213  12.362 -23.902  0.00  0.00     0.110 C 
ATOM    106  C4  IDS d 501      -1.206  14.459 -22.752  0.00  0.00     0.103 C 
ATOM    107  C6  IDS d 501      -2.950  16.230 -21.997  0.00  0.00     0.206 C 
ATOM    108  C3  IDS d 501      -0.996  13.323 -23.795  0.00  0.00     0.092 C 
ATOM    109  O5  IDS d 501      -3.617  14.077 -22.871  0.00  0.00    -0.340 OA
ATOM    110  O2  IDS d 501      -2.179  11.469 -22.804  0.00  0.00    -0.388 OA
ATOM    111  C5  IDS d 501      -2.606  15.097 -22.963  0.00  0.00     0.152 C 
ATOM    112  O62 IDS d 501      -2.815  17.384 -22.329  0.00  0.00    -0.646 OA
ATOM    113  O61 IDS d 501      -3.360  16.007 -20.879  0.00  0.00    -0.646 OA
ATOM    114  O1  IDS d 501      -3.830  13.621 -25.165  0.00  0.00    -0.368 OA
ATOM    115  H   IDS d 501      -4.373  12.385 -23.671  0.00  0.00     0.133 H 
ATOM    116  H   IDS d 501      -0.631  13.227 -25.721  0.00  0.00     0.210 HD
ATOM    117  H   IDS d 501      -2.126  11.863 -24.844  0.00  0.00     0.094 H 
ATOM    118  H   IDS d 501      -0.837  13.822 -21.976  0.00  0.00     0.092 H 
ATOM    119  H   IDS d 501      -0.162  12.733 -23.474  0.00  0.00     0.091 H 
ATOM    120  H   IDS d 501      -2.261  11.969 -21.977  0.00  0.00     0.210 HD
ATOM    121  H   IDS d 501      -2.576  15.541 -23.936  0.00  0.00     0.104 H 
ATOM    122  H   IDS d 501      -3.130  14.255 -25.385  0.00  0.00     0.212 HD
ATOM    123  O3  IDS d 535      14.086  21.068 -17.493  0.00  0.00    -0.393 OA
ATOM    124  H   IDS d 535      14.968  21.337 -17.193  0.00  0.00     0.210 HD
ENDROOT
TORSDOF 37
ENDMDL
MODEL 63
REMARK VINA RESULT:      -5.2      4.537     13.766
REMARK  0 active torsions:
REMARK  status: ('A' for Active; 'I' for Inactive)
REMARK       I    between atoms: O3_1  and  C3_48 
REMARK       I    between atoms: C1_2  and  O1_8 
REMARK       I    between atoms: O2_5  and  C2_76 
REMARK       I    between atoms: O2_5  and  S_66 
REMARK       I    between atoms: C2_7  and  N_46 
REMARK       I    between atoms: O1_8  and  C4_39 
REMARK       I    between atoms: C2_12  and  N_23 
REMARK       I    between atoms: O2S_13  and  S1_25 
REMARK       I    between atoms: C1_14  and  O1_65 
REMARK       I    between atoms: O3_15  and  C3_69 
REMARK       I    between atoms: C5_16  and  C6_31 
REMARK       I    between atoms: C5_17  and  C6_68 
REMARK       I    between atoms: C5_18  and  C6_71 
REMARK       I    between atoms: O3S_19  and  S1_25 
REMARK       I    between atoms: C6_20  and  C5_28 
REMARK       I    between atoms: C6_20  and  O6_74 
REMARK       I    between atoms: C4_21  and  O1_35 
REMARK       I    between atoms: S2_22  and  O6_74 
REMARK       I    between atoms: N_23  and  S1_25 
REMARK       I    between atoms: O1S_24  and  S1_25 
REMARK       I    between atoms: C4_27  and  O1_63 
REMARK       I    between atoms: O1_29  and  C4_49 
REMARK       I    between atoms: O1_29  and  C1_73 
REMARK       I    between atoms: O2_30  and  C2_78 
REMARK       I    between atoms: O3_33  and  C3_42 
REMARK       I    between atoms: O1_35  and  C1_77 
REMARK       I    between atoms: O3S_37  and  S1_50 
REMARK       I    between atoms: C2_38  and  O2_45 
REMARK       I    between atoms: C6_40  and  C5_51 
REMARK       I    between atoms: C3_41  and  O3_67 
REMARK       I    between atoms: N_46  and  S1_50 
REMARK       I    between atoms: O6_47  and  C6_71 
REMARK       I    between atoms: O6_47  and  S2_72 
REMARK       I    between atoms: S1_50  and  O1S_61 
REMARK       I    between atoms: S1_50  and  O2S_54 
REMARK       I    between atoms: O3_56  and  C3_75 
REMARK       I    between atoms: C1_58  and  O1_63 
ROOT
ATOM      1  O3  SGN d 502       9.812  16.657 -25.646  0.00  0.00    -0.391 OA
ATOM      2  C1  SGN d 502      13.103  15.287 -24.418  0.00  0.00     0.150 C 
ATOM      3  O6S SGN d 502      10.621  14.073 -18.624  0.00  0.00    -0.572 OA
ATOM      4  C2  SGN d 502      11.846  15.396 -25.324  0.00  0.00     0.081 C 
ATOM      5  O1  SGN d 502      13.931  16.424 -24.559  0.00  0.00    -0.348 OA
ATOM      6  O5  SGN d 502      12.719  15.121 -23.045  0.00  0.00    -0.349 OA
ATOM      7  C6  SGN d 502      11.583  15.779 -21.024  0.00  0.00     0.067 C 
ATOM      8  S2  SGN d 502      10.750  13.483 -19.925  0.00  0.00     0.251 S 
ATOM      9  C5  SGN d 502      11.828  16.131 -22.503  0.00  0.00     0.091 C 
ATOM     10  O3S SGN d 502      13.412  13.515 -27.297  0.00  0.00    -0.296 OA
ATOM     11  N   SGN d 502      12.286  15.598 -26.712  0.00  0.00    -0.210 NA
ATOM     12  C3  SGN d 502      10.964  16.559 -24.830  0.00  0.00     0.083 C 
ATOM     13  C4  SGN d 502      10.537  16.248 -23.377  0.00  0.00     0.095 C 
ATOM     14  S1  SGN d 502      12.313  14.323 -27.743  0.00  0.00     0.156 S 
ATOM     15  O2S SGN d 502      12.537  14.881 -29.046  0.00  0.00    -0.296 OA
ATOM     16  O4S SGN d 502       9.666  12.608 -20.250  0.00  0.00    -0.572 OA
ATOM     17  O1S SGN d 502      11.067  13.625 -27.642  0.00  0.00    -0.296 OA
ATOM     18  O5S SGN d 502      12.035  12.875 -20.125  0.00  0.00    -0.572 OA
ATOM     19  O6  SGN d 502      10.709  14.667 -20.947  0.00  0.00    -0.254 OA
ATOM     20  H   SGN d 502      10.077  16.852 -26.558  0.00  0.00     0.210 HD
ATOM     21  H   SGN d 502      13.660  14.428 -24.728  0.00  0.00     0.131 H 
ATOM     22  H   SGN d 502      11.262  14.501 -25.279  0.00  0.00     0.076 H 
ATOM     23  H   SGN d 502      11.141  16.615 -20.525  0.00  0.00     0.080 H 
ATOM     24  H   SGN d 502      12.513  15.537 -20.555  0.00  0.00     0.080 H 
ATOM     25  H   SGN d 502      12.256  17.111 -22.536  0.00  0.00     0.090 H 
ATOM     26  H   SGN d 502      13.217  13.161 -26.416  0.00  0.00     0.231 HD
ATOM     27  H   SGN d 502      13.236  15.966 -26.672  0.00  0.00     0.140 HD
ATOM     28  H   SGN d 502      11.503  17.482 -24.875  0.00  0.00     0.089 H 
ATOM     29  H   SGN d 502      10.015  15.329 -23.214  0.00  0.00     0.091 H 
ATOM     30  H   SGN d 502      13.391  15.341 -29.058  0.00  0.00     0.231 HD
ATOM     31  H   SGN d 502      10.968  13.270 -26.744  0.00  0.00     0.231 HD
ATOM     32  O62 IDS d 503       6.046  17.321 -26.370  0.00  0.00    -0.646 OA
ATOM     33  O2  IDS d 503       7.274  17.944 -20.502  0.00  0.00    -0.244 OA
ATOM     34  O5  IDS d 503       7.470  16.636 -23.246  0.00  0.00    -0.340 OA
ATOM     35  C5  IDS d 503       6.997  17.593 -24.204  0.00  0.00     0.152 C 
ATOM     36  C4  IDS d 503       6.273  18.736 -23.456  0.00  0.00     0.103 C 
ATOM     37  O61 IDS d 503       5.571  15.839 -25.000  0.00  0.00    -0.646 OA
ATOM     38  O1  IDS d 503       9.695  17.356 -23.062  0.00  0.00    -0.348 OA
ATOM     39  C6  IDS d 503       6.153  16.873 -25.252  0.00  0.00     0.206 C 
ATOM     40  O1S IDS d 503       7.956  19.125 -18.528  0.00  0.00    -0.572 OA
ATOM     41  O3S IDS d 503       8.886  16.976 -18.999  0.00  0.00    -0.572 OA
ATOM     42  C3  IDS d 503       7.248  19.387 -22.437  0.00  0.00     0.094 C 
ATOM     43  O2S IDS d 503       6.601  17.160 -18.359  0.00  0.00    -0.572 OA
ATOM     44  S   IDS d 503       7.712  17.797 -19.007  0.00  0.00     0.252 S 
ATOM     45  O3  IDS d 503       8.153  20.206 -23.156  0.00  0.00    -0.390 OA
ATOM     46  C1  IDS d 503       8.503  17.082 -22.375  0.00  0.00     0.161 C 
ATOM     47  C2  IDS d 503       8.061  18.356 -21.604  0.00  0.00     0.134 C 
ATOM     48  H   IDS d 503       7.797  18.056 -24.743  0.00  0.00     0.104 H 
ATOM     49  H   IDS d 503       5.947  19.414 -24.217  0.00  0.00     0.092 H 
ATOM     50  H   IDS d 503       6.657  19.946 -21.742  0.00  0.00     0.091 H 
ATOM     51  H   IDS d 503       8.665  19.659 -23.771  0.00  0.00     0.210 HD
ATOM     52  H   IDS d 503       8.687  16.284 -21.688  0.00  0.00     0.133 H 
ATOM     53  H   IDS d 503       8.959  18.863 -21.317  0.00  0.00     0.097 H 
ATOM     54  C4  IDS d 505      -2.410  13.900 -22.939  0.00  0.00    -0.005 C 
ATOM     55  C5  IDS d 505      -1.899  15.061 -22.022  0.00  0.00     0.127 C 
ATOM     56  O2  IDS d 505       0.314  14.375 -25.512  0.00  0.00    -0.388 OA
ATOM     57  O62 IDS d 505      -3.557  16.666 -21.355  0.00  0.00    -0.646 OA
ATOM     58  C1  IDS d 505      -0.219  15.826 -23.658  0.00  0.00     0.159 C 
ATOM     59  O5  IDS d 505      -1.360  16.128 -22.837  0.00  0.00    -0.343 OA
ATOM     60  O1  IDS d 505       0.979  15.965 -22.946  0.00  0.00    -0.348 OA
ATOM     61  O61 IDS d 505      -3.321  15.023 -20.110  0.00  0.00    -0.646 OA
ATOM     62  C6  IDS d 505      -2.990  15.621 -21.109  0.00  0.00     0.203 C 
ATOM     63  C3  IDS d 505      -1.721  13.901 -24.329  0.00  0.00     0.068 C 
ATOM     64  C2  IDS d 505      -0.266  14.382 -24.221  0.00  0.00     0.107 C 
ATOM     65  H   IDS d 505      -2.209  12.967 -22.456  0.00  0.00     0.041 H 
ATOM     66  H   IDS d 505      -3.459  14.043 -23.093  0.00  0.00     0.041 H 
ATOM     67  H   IDS d 505      -1.139  14.647 -21.393  0.00  0.00     0.100 H 
ATOM     68  H   IDS d 505       1.234  14.677 -25.455  0.00  0.00     0.210 HD
ATOM     69  H   IDS d 505      -0.255  16.527 -24.465  0.00  0.00     0.133 H 
ATOM     70  H   IDS d 505      -2.245  14.570 -24.980  0.00  0.00     0.087 H 
ATOM     71  H   IDS d 505       0.273  13.731 -23.564  0.00  0.00     0.094 H 
ATOM     72  O4S SGN d 504      -0.498  19.945 -26.677  0.00  0.00    -0.572 OA
ATOM     73  C2  SGN d 504       2.973  18.790 -21.642  0.00  0.00     0.081 C 
ATOM     74  O2S SGN d 504       3.332  20.321 -18.312  0.00  0.00    -0.296 OA
ATOM     75  C5  SGN d 504       2.725  17.500 -24.239  0.00  0.00     0.091 C 
ATOM     76  O3S SGN d 504       5.024  21.010 -19.844  0.00  0.00    -0.296 OA
ATOM     77  N   SGN d 504       3.689  19.032 -20.376  0.00  0.00    -0.210 NA
ATOM     78  O1S SGN d 504       2.739  21.360 -20.382  0.00  0.00    -0.296 OA
ATOM     79  S1  SGN d 504       3.679  20.529 -19.689  0.00  0.00     0.156 S 
ATOM     80  C4  SGN d 504       1.703  17.192 -23.092  0.00  0.00     0.095 C 
ATOM     81  O1  SGN d 504       5.129  18.309 -22.708  0.00  0.00    -0.348 OA
ATOM     82  O6S SGN d 504      -0.014  17.900 -27.819  0.00  0.00    -0.572 OA
ATOM     83  O6  SGN d 504       1.126  18.415 -25.774  0.00  0.00    -0.254 OA
ATOM     84  O5S SGN d 504       1.616  19.642 -27.751  0.00  0.00    -0.572 OA
ATOM     85  O3  SGN d 504       1.558  17.081 -20.679  0.00  0.00    -0.391 OA
ATOM     86  O5  SGN d 504       3.310  18.820 -24.072  0.00  0.00    -0.349 OA
ATOM     87  C6  SGN d 504       2.145  17.444 -25.660  0.00  0.00     0.067 C 
ATOM     88  S2  SGN d 504       0.512  19.012 -27.081  0.00  0.00     0.251 S 
ATOM     89  C3  SGN d 504       2.453  17.339 -21.744  0.00  0.00     0.083 C 
ATOM     90  C1  SGN d 504       3.948  19.075 -22.818  0.00  0.00     0.150 C 
ATOM     91  H   SGN d 504       2.124  19.439 -21.681  0.00  0.00     0.076 H 
ATOM     92  H   SGN d 504       3.998  19.755 -17.892  0.00  0.00     0.231 HD
ATOM     93  H   SGN d 504       3.451  16.718 -24.148  0.00  0.00     0.090 H 
ATOM     94  H   SGN d 504       5.633  20.427 -19.365  0.00  0.00     0.231 HD
ATOM     95  H   SGN d 504       4.667  18.792 -20.542  0.00  0.00     0.140 HD
ATOM     96  H   SGN d 504       2.730  22.243 -19.980  0.00  0.00     0.231 HD
ATOM     97  H   SGN d 504       0.937  17.880 -23.384  0.00  0.00     0.091 H 
ATOM     98  H   SGN d 504       2.025  17.172 -19.834  0.00  0.00     0.210 HD
ATOM     99  H   SGN d 504       1.738  16.471 -25.845  0.00  0.00     0.080 H 
ATOM    100  H   SGN d 504       2.917  17.640 -26.376  0.00  0.00     0.080 H 
ATOM    101  H   SGN d 504       3.267  16.647 -21.691  0.00  0.00     0.089 H 
ATOM    102  H   SGN d 504       4.220  20.109 -22.769  0.00  0.00     0.131 H 
ATOM    103  C1  IDS d 501      18.257  16.596 -23.850  0.00  0.00     0.156 C 
ATOM    104  O3  IDS d 501      15.957  15.360 -22.056  0.00  0.00    -0.390 OA
ATOM    105  C2  IDS d 501      17.611  15.183 -23.812  0.00  0.00     0.110 C 
ATOM    106  C4  IDS d 501      15.306  16.320 -24.165  0.00  0.00     0.103 C 
ATOM    107  C6  IDS d 501      15.413  18.864 -24.682  0.00  0.00     0.206 C 
ATOM    108  C3  IDS d 501      16.099  15.186 -23.452  0.00  0.00     0.092 C 
ATOM    109  O5  IDS d 501      17.409  17.504 -24.550  0.00  0.00    -0.340 OA
ATOM    110  O2  IDS d 501      17.767  14.597 -25.092  0.00  0.00    -0.388 OA
ATOM    111  C5  IDS d 501      16.080  17.659 -24.020  0.00  0.00     0.152 C 
ATOM    112  O62 IDS d 501      14.752  19.637 -24.030  0.00  0.00    -0.646 OA
ATOM    113  O61 IDS d 501      15.524  19.075 -25.870  0.00  0.00    -0.646 OA
ATOM    114  O1  IDS d 501      18.511  17.015 -22.535  0.00  0.00    -0.368 OA
ATOM    115  H   IDS d 501      19.187  16.566 -24.378  0.00  0.00     0.133 H 
ATOM    116  H   IDS d 501      16.445  14.662 -21.592  0.00  0.00     0.210 HD
ATOM    117  H   IDS d 501      18.107  14.632 -23.041  0.00  0.00     0.094 H 
ATOM    118  H   IDS d 501      15.155  15.688 -25.014  0.00  0.00     0.092 H 
ATOM    119  H   IDS d 501      15.700  14.250 -23.781  0.00  0.00     0.091 H 
ATOM    120  H   IDS d 501      17.301  15.132 -25.752  0.00  0.00     0.210 HD
ATOM    121  H   IDS d 501      16.093  17.871 -22.970  0.00  0.00     0.104 H 
ATOM    122  H   IDS d 501      17.678  17.047 -22.039  0.00  0.00     0.212 HD
ATOM    123  O3  IDS d 535      -1.746  12.585 -24.840  0.00  0.00    -0.393 OA
ATOM    124  H   IDS d 535      -2.665  12.282 -24.908  0.00  0.00     0.210 HD
ENDROOT
TORSDOF 37
ENDMDL
MODEL 64
REMARK VINA RESULT:      -5.2      4.072      7.803
REMARK  0 active torsions:
REMARK  status: ('A' for Active; 'I' for Inactive)
REMARK       I    between atoms: O3_1  and  C3_48 
REMARK       I    between atoms: C1_2  and  O1_8 
REMARK       I    between atoms: O2_5  and  C2_76 
REMARK       I    between atoms: O2_5  and  S_66 
REMARK       I    between atoms: C2_7  and  N_46 
REMARK       I    between atoms: O1_8  and  C4_39 
REMARK       I    between atoms: C2_12  and  N_23 
REMARK       I    between atoms: O2S_13  and  S1_25 
REMARK       I    between atoms: C1_14  and  O1_65 
REMARK       I    between atoms: O3_15  and  C3_69 
REMARK       I    between atoms: C5_16  and  C6_31 
REMARK       I    between atoms: C5_17  and  C6_68 
REMARK       I    between atoms: C5_18  and  C6_71 
REMARK       I    between atoms: O3S_19  and  S1_25 
REMARK       I    between atoms: C6_20  and  C5_28 
REMARK       I    between atoms: C6_20  and  O6_74 
REMARK       I    between atoms: C4_21  and  O1_35 
REMARK       I    between atoms: S2_22  and  O6_74 
REMARK       I    between atoms: N_23  and  S1_25 
REMARK       I    between atoms: O1S_24  and  S1_25 
REMARK       I    between atoms: C4_27  and  O1_63 
REMARK       I    between atoms: O1_29  and  C4_49 
REMARK       I    between atoms: O1_29  and  C1_73 
REMARK       I    between atoms: O2_30  and  C2_78 
REMARK       I    between atoms: O3_33  and  C3_42 
REMARK       I    between atoms: O1_35  and  C1_77 
REMARK       I    between atoms: O3S_37  and  S1_50 
REMARK       I    between atoms: C2_38  and  O2_45 
REMARK       I    between atoms: C6_40  and  C5_51 
REMARK       I    between atoms: C3_41  and  O3_67 
REMARK       I    between atoms: N_46  and  S1_50 
REMARK       I    between atoms: O6_47  and  C6_71 
REMARK       I    between atoms: O6_47  and  S2_72 
REMARK       I    between atoms: S1_50  and  O1S_61 
REMARK       I    between atoms: S1_50  and  O2S_54 
REMARK       I    between atoms: O3_56  and  C3_75 
REMARK       I    between atoms: C1_58  and  O1_63 
ROOT
ATOM      1  O3  SGN d 502       0.886  16.267 -21.091  0.00  0.00    -0.391 OA
ATOM      2  C1  SGN d 502      -0.640  14.464 -24.029  0.00  0.00     0.150 C 
ATOM      3  O6S SGN d 502       4.551  15.601 -27.630  0.00  0.00    -0.572 OA
ATOM      4  C2  SGN d 502      -0.112  14.650 -22.581  0.00  0.00     0.081 C 
ATOM      5  O1  SGN d 502      -1.790  15.254 -24.256  0.00  0.00    -0.348 OA
ATOM      6  O5  SGN d 502       0.382  14.791 -24.982  0.00  0.00    -0.349 OA
ATOM      7  C6  SGN d 502       2.006  16.259 -25.991  0.00  0.00     0.067 C 
ATOM      8  S2  SGN d 502       4.047  14.663 -26.669  0.00  0.00     0.251 S 
ATOM      9  C5  SGN d 502       0.974  16.111 -24.856  0.00  0.00     0.091 C 
ATOM     10  O3S SGN d 502      -1.600  11.951 -21.958  0.00  0.00    -0.296 OA
ATOM     11  N   SGN d 502      -1.199  14.335 -21.642  0.00  0.00    -0.210 NA
ATOM     12  C3  SGN d 502       0.393  16.095 -22.406  0.00  0.00     0.083 C 
ATOM     13  C4  SGN d 502       1.542  16.322 -23.415  0.00  0.00     0.095 C 
ATOM     14  S1  SGN d 502      -1.238  12.867 -20.914  0.00  0.00     0.156 S 
ATOM     15  O2S SGN d 502      -2.245  12.963 -19.897  0.00  0.00    -0.296 OA
ATOM     16  O4S SGN d 502       5.082  14.054 -25.890  0.00  0.00    -0.572 OA
ATOM     17  O1S SGN d 502       0.062  12.582 -20.387  0.00  0.00    -0.296 OA
ATOM     18  O5S SGN d 502       3.155  13.704 -27.256  0.00  0.00    -0.572 OA
ATOM     19  O6  SGN d 502       3.152  15.486 -25.684  0.00  0.00    -0.254 OA
ATOM     20  H   SGN d 502       0.167  16.125 -20.455  0.00  0.00     0.210 HD
ATOM     21  H   SGN d 502      -0.912  13.437 -24.152  0.00  0.00     0.131 H 
ATOM     22  H   SGN d 502       0.708  13.991 -22.383  0.00  0.00     0.076 H 
ATOM     23  H   SGN d 502       2.285  17.287 -26.090  0.00  0.00     0.080 H 
ATOM     24  H   SGN d 502       1.579  15.917 -26.910  0.00  0.00     0.080 H 
ATOM     25  H   SGN d 502       0.253  16.893 -24.971  0.00  0.00     0.090 H 
ATOM     26  H   SGN d 502      -0.893  11.919 -22.621  0.00  0.00     0.231 HD
ATOM     27  H   SGN d 502      -2.073  14.434 -22.158  0.00  0.00     0.140 HD
ATOM     28  H   SGN d 502      -0.401  16.791 -22.576  0.00  0.00     0.089 H 
ATOM     29  H   SGN d 502       2.378  15.657 -23.354  0.00  0.00     0.091 H 
ATOM     30  H   SGN d 502      -3.102  13.157 -20.308  0.00  0.00     0.231 HD
ATOM     31  H   SGN d 502       0.701  12.528 -21.115  0.00  0.00     0.231 HD
ATOM     32  O62 IDS d 503       3.293  17.683 -18.379  0.00  0.00    -0.646 OA
ATOM     33  O2  IDS d 503       4.880  19.549 -23.886  0.00  0.00    -0.244 OA
ATOM     34  O5  IDS d 503       3.903  17.533 -21.824  0.00  0.00    -0.340 OA
ATOM     35  C5  IDS d 503       3.467  18.278 -20.678  0.00  0.00     0.152 C 
ATOM     36  C4  IDS d 503       3.975  19.733 -20.803  0.00  0.00     0.103 C 
ATOM     37  O61 IDS d 503       4.875  16.819 -19.402  0.00  0.00    -0.646 OA
ATOM     38  O1  IDS d 503       1.951  17.656 -23.119  0.00  0.00    -0.348 OA
ATOM     39  C6  IDS d 503       3.907  17.549 -19.413  0.00  0.00     0.206 C 
ATOM     40  O1S IDS d 503       4.840  21.003 -25.794  0.00  0.00    -0.572 OA
ATOM     41  O3S IDS d 503       4.673  18.641 -26.106  0.00  0.00    -0.572 OA
ATOM     42  C3  IDS d 503       3.441  20.356 -22.123  0.00  0.00     0.094 C 
ATOM     43  O2S IDS d 503       6.730  19.596 -25.382  0.00  0.00    -0.572 OA
ATOM     44  S   IDS d 503       5.300  19.710 -25.385  0.00  0.00     0.252 S 
ATOM     45  O3  IDS d 503       2.074  20.673 -21.939  0.00  0.00    -0.390 OA
ATOM     46  C1  IDS d 503       3.329  17.910 -23.070  0.00  0.00     0.161 C 
ATOM     47  C2  IDS d 503       3.575  19.417 -23.355  0.00  0.00     0.134 C 
ATOM     48  H   IDS d 503       2.400  18.344 -20.620  0.00  0.00     0.104 H 
ATOM     49  H   IDS d 503       3.619  20.236 -19.928  0.00  0.00     0.092 H 
ATOM     50  H   IDS d 503       4.036  21.221 -22.330  0.00  0.00     0.091 H 
ATOM     51  H   IDS d 503       1.576  19.862 -21.754  0.00  0.00     0.210 HD
ATOM     52  H   IDS d 503       3.808  17.313 -23.818  0.00  0.00     0.133 H 
ATOM     53  H   IDS d 503       2.809  19.725 -24.036  0.00  0.00     0.097 H 
ATOM     54  C4  IDS d 505      12.935  17.722 -16.969  0.00  0.00    -0.005 C 
ATOM     55  C5  IDS d 505      12.534  18.910 -17.904  0.00  0.00     0.127 C 
ATOM     56  O2  IDS d 505       9.362  16.725 -16.256  0.00  0.00    -0.388 OA
ATOM     57  O62 IDS d 505      13.575  21.019 -17.412  0.00  0.00    -0.646 OA
ATOM     58  C1  IDS d 505      10.132  18.719 -17.380  0.00  0.00     0.159 C 
ATOM     59  O5  IDS d 505      11.319  19.528 -17.418  0.00  0.00    -0.343 OA
ATOM     60  O1  IDS d 505       9.465  18.725 -18.612  0.00  0.00    -0.348 OA
ATOM     61  O61 IDS d 505      14.592  19.782 -18.731  0.00  0.00    -0.646 OA
ATOM     62  C6  IDS d 505      13.630  19.970 -18.021  0.00  0.00     0.203 C 
ATOM     63  C3  IDS d 505      11.723  17.156 -16.183  0.00  0.00     0.068 C 
ATOM     64  C2  IDS d 505      10.437  17.242 -17.018  0.00  0.00     0.107 C 
ATOM     65  H   IDS d 505      13.353  16.940 -17.567  0.00  0.00     0.041 H 
ATOM     66  H   IDS d 505      13.644  18.090 -16.257  0.00  0.00     0.041 H 
ATOM     67  H   IDS d 505      12.382  18.500 -18.880  0.00  0.00     0.100 H 
ATOM     68  H   IDS d 505       8.545  16.775 -16.776  0.00  0.00     0.210 HD
ATOM     69  H   IDS d 505       9.514  19.154 -16.621  0.00  0.00     0.133 H 
ATOM     70  H   IDS d 505      11.581  17.733 -15.293  0.00  0.00     0.087 H 
ATOM     71  H   IDS d 505      10.563  16.678 -17.919  0.00  0.00     0.094 H 
ATOM     72  O4S SGN d 504       7.381  21.764 -14.327  0.00  0.00    -0.572 OA
ATOM     73  C2  SGN d 504       7.447  21.162 -20.521  0.00  0.00     0.081 C 
ATOM     74  O2S SGN d 504       8.180  23.399 -23.353  0.00  0.00    -0.296 OA
ATOM     75  C5  SGN d 504       6.887  19.320 -18.339  0.00  0.00     0.091 C 
ATOM     76  O3S SGN d 504       5.845  23.162 -22.929  0.00  0.00    -0.296 OA
ATOM     77  N   SGN d 504       7.391  21.544 -21.944  0.00  0.00    -0.210 NA
ATOM     78  O1S SGN d 504       7.279  23.945 -21.207  0.00  0.00    -0.296 OA
ATOM     79  S1  SGN d 504       7.170  23.119 -22.373  0.00  0.00     0.156 S 
ATOM     80  C4  SGN d 504       8.362  19.625 -18.769  0.00  0.00     0.095 C 
ATOM     81  O1  SGN d 504       5.401  19.850 -20.846  0.00  0.00    -0.348 OA
ATOM     82  O6S SGN d 504       7.212  19.432 -13.826  0.00  0.00    -0.572 OA
ATOM     83  O6  SGN d 504       7.088  20.168 -16.104  0.00  0.00    -0.254 OA
ATOM     84  O5S SGN d 504       5.298  20.626 -14.606  0.00  0.00    -0.572 OA
ATOM     85  O3  SGN d 504       9.670  20.226 -20.714  0.00  0.00    -0.391 OA
ATOM     86  O5  SGN d 504       6.010  20.430 -18.673  0.00  0.00    -0.349 OA
ATOM     87  C6  SGN d 504       6.692  19.031 -16.842  0.00  0.00     0.067 C 
ATOM     88  S2  SGN d 504       6.732  20.522 -14.624  0.00  0.00     0.251 S 
ATOM     89  C3  SGN d 504       8.353  19.932 -20.287  0.00  0.00     0.083 C 
ATOM     90  C1  SGN d 504       6.004  20.841 -20.043  0.00  0.00     0.150 C 
ATOM     91  H   SGN d 504       7.864  21.977 -19.967  0.00  0.00     0.076 H 
ATOM     92  H   SGN d 504       8.060  22.815 -24.118  0.00  0.00     0.231 HD
ATOM     93  H   SGN d 504       6.642  18.430 -18.881  0.00  0.00     0.090 H 
ATOM     94  H   SGN d 504       5.806  22.594 -23.714  0.00  0.00     0.231 HD
ATOM     95  H   SGN d 504       6.623  21.017 -22.358  0.00  0.00     0.140 HD
ATOM     96  H   SGN d 504       7.149  24.874 -21.456  0.00  0.00     0.231 HD
ATOM     97  H   SGN d 504       8.577  20.383 -18.046  0.00  0.00     0.091 H 
ATOM     98  H   SGN d 504       9.667  20.419 -21.665  0.00  0.00     0.210 HD
ATOM     99  H   SGN d 504       7.290  18.190 -16.557  0.00  0.00     0.080 H 
ATOM    100  H   SGN d 504       5.663  18.809 -16.646  0.00  0.00     0.080 H 
ATOM    101  H   SGN d 504       7.987  19.092 -20.839  0.00  0.00     0.089 H 
ATOM    102  H   SGN d 504       5.427  21.737 -20.135  0.00  0.00     0.131 H 
ATOM    103  C1  IDS d 501      -4.961  14.456 -27.180  0.00  0.00     0.156 C 
ATOM    104  O3  IDS d 501      -1.814  14.422 -27.543  0.00  0.00    -0.390 OA
ATOM    105  C2  IDS d 501      -3.903  13.334 -26.992  0.00  0.00     0.110 C 
ATOM    106  C4  IDS d 501      -2.658  14.901 -25.341  0.00  0.00     0.103 C 
ATOM    107  C6  IDS d 501      -3.937  17.079 -24.732  0.00  0.00     0.206 C 
ATOM    108  C3  IDS d 501      -2.528  13.839 -26.472  0.00  0.00     0.092 C 
ATOM    109  O5  IDS d 501      -4.957  15.328 -26.051  0.00  0.00    -0.340 OA
ATOM    110  O2  IDS d 501      -4.419  12.398 -26.064  0.00  0.00    -0.388 OA
ATOM    111  C5  IDS d 501      -3.704  15.971 -25.758  0.00  0.00     0.152 C 
ATOM    112  O62 IDS d 501      -3.387  18.149 -24.846  0.00  0.00    -0.646 OA
ATOM    113  O61 IDS d 501      -4.670  16.917 -23.781  0.00  0.00    -0.646 OA
ATOM    114  O1  IDS d 501      -4.692  15.138 -28.377  0.00  0.00    -0.368 OA
ATOM    115  H   IDS d 501      -5.943  14.036 -27.248  0.00  0.00     0.133 H 
ATOM    116  H   IDS d 501      -1.721  13.776 -28.260  0.00  0.00     0.210 HD
ATOM    117  H   IDS d 501      -3.725  12.906 -27.957  0.00  0.00     0.094 H 
ATOM    118  H   IDS d 501      -2.707  14.123 -24.609  0.00  0.00     0.092 H 
ATOM    119  H   IDS d 501      -2.018  12.990 -26.067  0.00  0.00     0.091 H 
ATOM    120  H   IDS d 501      -4.562  12.835 -25.210  0.00  0.00     0.210 HD
ATOM    121  H   IDS d 501      -3.293  16.453 -26.622  0.00  0.00     0.104 H 
ATOM    122  H   IDS d 501      -3.804  15.527 -28.335  0.00  0.00     0.212 HD
ATOM    123  O3  IDS d 535      11.989  15.806 -15.864  0.00  0.00    -0.393 OA
ATOM    124  H   IDS d 535      12.802  15.752 -15.337  0.00  0.00     0.210 HD
ENDROOT
TORSDOF 37
ENDMDL
MODEL 65
REMARK VINA RESULT:      -5.2      4.671     13.381
REMARK  0 active torsions:
REMARK  status: ('A' for Active; 'I' for Inactive)
REMARK       I    between atoms: O3_1  and  C3_48 
REMARK       I    between atoms: C1_2  and  O1_8 
REMARK       I    between atoms: O2_5  and  C2_76 
REMARK       I    between atoms: O2_5  and  S_66 
REMARK       I    between atoms: C2_7  and  N_46 
REMARK       I    between atoms: O1_8  and  C4_39 
REMARK       I    between atoms: C2_12  and  N_23 
REMARK       I    between atoms: O2S_13  and  S1_25 
REMARK       I    between atoms: C1_14  and  O1_65 
REMARK       I    between atoms: O3_15  and  C3_69 
REMARK       I    between atoms: C5_16  and  C6_31 
REMARK       I    between atoms: C5_17  and  C6_68 
REMARK       I    between atoms: C5_18  and  C6_71 
REMARK       I    between atoms: O3S_19  and  S1_25 
REMARK       I    between atoms: C6_20  and  C5_28 
REMARK       I    between atoms: C6_20  and  O6_74 
REMARK       I    between atoms: C4_21  and  O1_35 
REMARK       I    between atoms: S2_22  and  O6_74 
REMARK       I    between atoms: N_23  and  S1_25 
REMARK       I    between atoms: O1S_24  and  S1_25 
REMARK       I    between atoms: C4_27  and  O1_63 
REMARK       I    between atoms: O1_29  and  C4_49 
REMARK       I    between atoms: O1_29  and  C1_73 
REMARK       I    between atoms: O2_30  and  C2_78 
REMARK       I    between atoms: O3_33  and  C3_42 
REMARK       I    between atoms: O1_35  and  C1_77 
REMARK       I    between atoms: O3S_37  and  S1_50 
REMARK       I    between atoms: C2_38  and  O2_45 
REMARK       I    between atoms: C6_40  and  C5_51 
REMARK       I    between atoms: C3_41  and  O3_67 
REMARK       I    between atoms: N_46  and  S1_50 
REMARK       I    between atoms: O6_47  and  C6_71 
REMARK       I    between atoms: O6_47  and  S2_72 
REMARK       I    between atoms: S1_50  and  O1S_61 
REMARK       I    between atoms: S1_50  and  O2S_54 
REMARK       I    between atoms: O3_56  and  C3_75 
REMARK       I    between atoms: C1_58  and  O1_63 
ROOT
ATOM      1  O3  SGN d 502      11.695  17.944 -21.872  0.00  0.00    -0.391 OA
ATOM      2  C1  SGN d 502      13.368  17.051 -18.613  0.00  0.00     0.150 C 
ATOM      3  O6S SGN d 502       8.051  14.145 -16.494  0.00  0.00    -0.572 OA
ATOM      4  C2  SGN d 502      13.158  17.090 -20.152  0.00  0.00     0.081 C 
ATOM      5  O1  SGN d 502      13.666  18.337 -18.108  0.00  0.00    -0.348 OA
ATOM      6  O5  SGN d 502      12.204  16.521 -17.962  0.00  0.00    -0.349 OA
ATOM      7  C6  SGN d 502       9.854  16.484 -17.428  0.00  0.00     0.067 C 
ATOM      8  S2  SGN d 502       9.223  13.886 -17.279  0.00  0.00     0.251 S 
ATOM      9  C5  SGN d 502      10.947  17.187 -18.255  0.00  0.00     0.091 C 
ATOM     10  O3S SGN d 502      16.116  16.037 -20.329  0.00  0.00    -0.296 OA
ATOM     11  N   SGN d 502      14.359  17.669 -20.772  0.00  0.00    -0.210 NA
ATOM     12  C3  SGN d 502      11.896  17.914 -20.471  0.00  0.00     0.083 C 
ATOM     13  C4  SGN d 502      10.691  17.219 -19.797  0.00  0.00     0.095 C 
ATOM     14  S1  SGN d 502      15.478  16.677 -21.444  0.00  0.00     0.156 S 
ATOM     15  O2S SGN d 502      16.373  17.534 -22.167  0.00  0.00    -0.296 OA
ATOM     16  O4S SGN d 502       9.009  12.896 -18.290  0.00  0.00    -0.572 OA
ATOM     17  O1S SGN d 502      14.808  15.733 -22.286  0.00  0.00    -0.296 OA
ATOM     18  O5S SGN d 502      10.375  13.612 -16.467  0.00  0.00    -0.572 OA
ATOM     19  O6  SGN d 502       9.564  15.226 -18.010  0.00  0.00    -0.254 OA
ATOM     20  H   SGN d 502      12.450  18.380 -22.297  0.00  0.00     0.210 HD
ATOM     21  H   SGN d 502      14.200  16.411 -18.409  0.00  0.00     0.131 H 
ATOM     22  H   SGN d 502      13.014  16.106 -20.544  0.00  0.00     0.076 H 
ATOM     23  H   SGN d 502       8.969  17.086 -17.420  0.00  0.00     0.080 H 
ATOM     24  H   SGN d 502      10.198  16.345 -16.425  0.00  0.00     0.080 H 
ATOM     25  H   SGN d 502      10.957  18.218 -17.969  0.00  0.00     0.090 H 
ATOM     26  H   SGN d 502      15.475  15.471 -19.872  0.00  0.00     0.231 HD
ATOM     27  H   SGN d 502      14.836  18.208 -20.049  0.00  0.00     0.140 HD
ATOM     28  H   SGN d 502      12.004  18.916 -20.112  0.00  0.00     0.089 H 
ATOM     29  H   SGN d 502      10.511  16.199 -20.063  0.00  0.00     0.091 H 
ATOM     30  H   SGN d 502      16.798  18.152 -21.551  0.00  0.00     0.231 HD
ATOM     31  H   SGN d 502      14.218  15.182 -21.747  0.00  0.00     0.231 HD
ATOM     32  O62 IDS d 503       9.571  17.958 -25.133  0.00  0.00    -0.646 OA
ATOM     33  O2  IDS d 503       6.059  17.554 -20.252  0.00  0.00    -0.244 OA
ATOM     34  O5  IDS d 503       8.500  16.931 -21.962  0.00  0.00    -0.340 OA
ATOM     35  C5  IDS d 503       8.584  17.952 -22.966  0.00  0.00     0.152 C 
ATOM     36  C4  IDS d 503       7.251  18.735 -22.998  0.00  0.00     0.103 C 
ATOM     37  O61 IDS d 503       8.740  16.153 -24.542  0.00  0.00    -0.646 OA
ATOM     38  O1  IDS d 503       9.597  18.037 -20.208  0.00  0.00    -0.348 OA
ATOM     39  C6  IDS d 503       8.987  17.314 -24.292  0.00  0.00     0.206 C 
ATOM     40  O1S IDS d 503       4.763  18.401 -18.419  0.00  0.00    -0.572 OA
ATOM     41  O3S IDS d 503       6.332  16.641 -18.041  0.00  0.00    -0.572 OA
ATOM     42  C3  IDS d 503       6.974  19.340 -21.594  0.00  0.00     0.094 C 
ATOM     43  O2S IDS d 503       4.349  16.210 -19.286  0.00  0.00    -0.572 OA
ATOM     44  S   IDS d 503       5.334  17.185 -18.915  0.00  0.00     0.252 S 
ATOM     45  O3  IDS d 503       7.821  20.462 -21.423  0.00  0.00    -0.390 OA
ATOM     46  C1  IDS d 503       8.425  17.384 -20.615  0.00  0.00     0.161 C 
ATOM     47  C2  IDS d 503       7.219  18.345 -20.425  0.00  0.00     0.134 C 
ATOM     48  H   IDS d 503       9.343  18.674 -22.747  0.00  0.00     0.104 H 
ATOM     49  H   IDS d 503       7.374  19.478 -23.758  0.00  0.00     0.092 H 
ATOM     50  H   IDS d 503       5.937  19.604 -21.560  0.00  0.00     0.091 H 
ATOM     51  H   IDS d 503       8.747  20.176 -21.461  0.00  0.00     0.210 HD
ATOM     52  H   IDS d 503       8.297  16.512 -20.008  0.00  0.00     0.133 H 
ATOM     53  H   IDS d 503       7.448  18.952 -19.574  0.00  0.00     0.097 H 
ATOM     54  C4  IDS d 505       2.703  12.220 -28.990  0.00  0.00    -0.005 C 
ATOM     55  C5  IDS d 505       2.045  13.238 -28.000  0.00  0.00     0.127 C 
ATOM     56  O2  IDS d 505       6.133  13.783 -28.740  0.00  0.00    -0.388 OA
ATOM     57  O62 IDS d 505       0.028  14.288 -28.775  0.00  0.00    -0.646 OA
ATOM     58  C1  IDS d 505       4.055  14.663 -27.882  0.00  0.00     0.159 C 
ATOM     59  O5  IDS d 505       2.650  14.542 -28.164  0.00  0.00    -0.343 OA
ATOM     60  O1  IDS d 505       4.289  14.891 -26.519  0.00  0.00    -0.348 OA
ATOM     61  O61 IDS d 505      -0.207  12.502 -27.746  0.00  0.00    -0.646 OA
ATOM     62  C6  IDS d 505       0.532  13.354 -28.185  0.00  0.00     0.203 C 
ATOM     63  C3  IDS d 505       4.125  12.660 -29.428  0.00  0.00     0.068 C 
ATOM     64  C2  IDS d 505       4.848  13.395 -28.289  0.00  0.00     0.107 C 
ATOM     65  H   IDS d 505       2.770  11.267 -28.509  0.00  0.00     0.041 H 
ATOM     66  H   IDS d 505       2.090  12.173 -29.866  0.00  0.00     0.041 H 
ATOM     67  H   IDS d 505       2.218  12.865 -27.012  0.00  0.00     0.100 H 
ATOM     68  H   IDS d 505       6.598  14.248 -28.028  0.00  0.00     0.210 HD
ATOM     69  H   IDS d 505       4.391  15.498 -28.462  0.00  0.00     0.133 H 
ATOM     70  H   IDS d 505       4.045  13.329 -30.259  0.00  0.00     0.087 H 
ATOM     71  H   IDS d 505       4.929  12.744 -27.443  0.00  0.00     0.094 H 
ATOM     72  O4S SGN d 504       4.776  19.184 -30.163  0.00  0.00    -0.572 OA
ATOM     73  C2  SGN d 504       3.826  17.721 -24.189  0.00  0.00     0.081 C 
ATOM     74  O2S SGN d 504       1.264  18.547 -21.675  0.00  0.00    -0.296 OA
ATOM     75  C5  SGN d 504       5.872  16.992 -26.126  0.00  0.00     0.091 C 
ATOM     76  O3S SGN d 504       3.232  19.880 -21.477  0.00  0.00    -0.296 OA
ATOM     77  N   SGN d 504       3.328  17.830 -22.806  0.00  0.00    -0.210 NA
ATOM     78  O1S SGN d 504       2.028  19.858 -23.522  0.00  0.00    -0.296 OA
ATOM     79  S1  SGN d 504       2.395  19.110 -22.356  0.00  0.00     0.156 S 
ATOM     80  C4  SGN d 504       4.496  16.243 -26.095  0.00  0.00     0.095 C 
ATOM     81  O1  SGN d 504       6.112  17.933 -23.327  0.00  0.00    -0.348 OA
ATOM     82  O6S SGN d 504       6.497  17.574 -30.570  0.00  0.00    -0.572 OA
ATOM     83  O6  SGN d 504       5.645  17.864 -28.348  0.00  0.00    -0.254 OA
ATOM     84  O5S SGN d 504       6.988  19.559 -29.338  0.00  0.00    -0.572 OA
ATOM     85  O3  SGN d 504       2.740  15.592 -24.564  0.00  0.00    -0.391 OA
ATOM     86  O5  SGN d 504       5.742  18.337 -25.591  0.00  0.00    -0.349 OA
ATOM     87  C6  SGN d 504       6.512  17.122 -27.516  0.00  0.00     0.067 C 
ATOM     88  S2  SGN d 504       5.989  18.587 -29.690  0.00  0.00     0.251 S 
ATOM     89  C3  SGN d 504       3.991  16.250 -24.631  0.00  0.00     0.083 C 
ATOM     90  C1  SGN d 504       5.198  18.445 -24.273  0.00  0.00     0.150 C 
ATOM     91  H   SGN d 504       3.111  18.174 -24.844  0.00  0.00     0.076 H 
ATOM     92  H   SGN d 504       1.568  18.053 -20.897  0.00  0.00     0.231 HD
ATOM     93  H   SGN d 504       6.510  16.375 -25.526  0.00  0.00     0.090 H 
ATOM     94  H   SGN d 504       3.462  19.346 -20.701  0.00  0.00     0.231 HD
ATOM     95  H   SGN d 504       4.148  17.837 -22.199  0.00  0.00     0.140 HD
ATOM     96  H   SGN d 504       1.478  20.614 -23.262  0.00  0.00     0.231 HD
ATOM     97  H   SGN d 504       4.002  16.804 -26.861  0.00  0.00     0.091 H 
ATOM     98  H   SGN d 504       2.421  15.595 -23.647  0.00  0.00     0.210 HD
ATOM     99  H   SGN d 504       6.666  16.149 -27.934  0.00  0.00     0.080 H 
ATOM    100  H   SGN d 504       7.456  17.620 -27.437  0.00  0.00     0.080 H 
ATOM    101  H   SGN d 504       4.685  15.746 -23.992  0.00  0.00     0.089 H 
ATOM    102  H   SGN d 504       5.033  19.477 -24.048  0.00  0.00     0.131 H 
ATOM    103  C1  IDS d 501      15.915  19.240 -14.452  0.00  0.00     0.156 C 
ATOM    104  O3  IDS d 501      13.533  17.204 -14.915  0.00  0.00    -0.390 OA
ATOM    105  C2  IDS d 501      15.889  17.750 -14.891  0.00  0.00     0.110 C 
ATOM    106  C4  IDS d 501      14.309  18.437 -16.830  0.00  0.00     0.103 C 
ATOM    107  C6  IDS d 501      13.988  20.999 -17.119  0.00  0.00     0.206 C 
ATOM    108  C3  IDS d 501      14.657  17.365 -15.757  0.00  0.00     0.092 C 
ATOM    109  O5  IDS d 501      15.590  20.082 -15.556  0.00  0.00    -0.340 OA
ATOM    110  O2  IDS d 501      17.063  17.495 -15.641  0.00  0.00    -0.388 OA
ATOM    111  C5  IDS d 501      14.311  19.844 -16.172  0.00  0.00     0.152 C 
ATOM    112  O62 IDS d 501      12.873  21.462 -17.167  0.00  0.00    -0.646 OA
ATOM    113  O61 IDS d 501      14.831  21.477 -17.846  0.00  0.00    -0.646 OA
ATOM    114  O1  IDS d 501      15.032  19.412 -13.375  0.00  0.00    -0.368 OA
ATOM    115  H   IDS d 501      16.897  19.516 -14.127  0.00  0.00     0.133 H 
ATOM    116  H   IDS d 501      13.729  16.538 -14.237  0.00  0.00     0.210 HD
ATOM    117  H   IDS d 501      15.832  17.161 -13.999  0.00  0.00     0.094 H 
ATOM    118  H   IDS d 501      14.995  17.983 -17.514  0.00  0.00     0.092 H 
ATOM    119  H   IDS d 501      14.907  16.459 -16.267  0.00  0.00     0.091 H 
ATOM    120  H   IDS d 501      17.067  18.051 -16.435  0.00  0.00     0.210 HD
ATOM    121  H   IDS d 501      13.520  19.826 -15.451  0.00  0.00     0.104 H 
ATOM    122  H   IDS d 501      14.135  19.166 -13.651  0.00  0.00     0.212 HD
ATOM    123  O3  IDS d 535       4.858  11.506 -29.785  0.00  0.00    -0.393 OA
ATOM    124  H   IDS d 535       4.400  11.042 -30.503  0.00  0.00     0.210 HD
ENDROOT
TORSDOF 37
ENDMDL
MODEL 66
REMARK VINA RESULT:      -5.0      4.926      9.160
REMARK  0 active torsions:
REMARK  status: ('A' for Active; 'I' for Inactive)
REMARK       I    between atoms: O3_1  and  C3_48 
REMARK       I    between atoms: C1_2  and  O1_8 
REMARK       I    between atoms: O2_5  and  C2_76 
REMARK       I    between atoms: O2_5  and  S_66 
REMARK       I    between atoms: C2_7  and  N_46 
REMARK       I    between atoms: O1_8  and  C4_39 
REMARK       I    between atoms: C2_12  and  N_23 
REMARK       I    between atoms: O2S_13  and  S1_25 
REMARK       I    between atoms: C1_14  and  O1_65 
REMARK       I    between atoms: O3_15  and  C3_69 
REMARK       I    between atoms: C5_16  and  C6_31 
REMARK       I    between atoms: C5_17  and  C6_68 
REMARK       I    between atoms: C5_18  and  C6_71 
REMARK       I    between atoms: O3S_19  and  S1_25 
REMARK       I    between atoms: C6_20  and  C5_28 
REMARK       I    between atoms: C6_20  and  O6_74 
REMARK       I    between atoms: C4_21  and  O1_35 
REMARK       I    between atoms: S2_22  and  O6_74 
REMARK       I    between atoms: N_23  and  S1_25 
REMARK       I    between atoms: O1S_24  and  S1_25 
REMARK       I    between atoms: C4_27  and  O1_63 
REMARK       I    between atoms: O1_29  and  C4_49 
REMARK       I    between atoms: O1_29  and  C1_73 
REMARK       I    between atoms: O2_30  and  C2_78 
REMARK       I    between atoms: O3_33  and  C3_42 
REMARK       I    between atoms: O1_35  and  C1_77 
REMARK       I    between atoms: O3S_37  and  S1_50 
REMARK       I    between atoms: C2_38  and  O2_45 
REMARK       I    between atoms: C6_40  and  C5_51 
REMARK       I    between atoms: C3_41  and  O3_67 
REMARK       I    between atoms: N_46  and  S1_50 
REMARK       I    between atoms: O6_47  and  C6_71 
REMARK       I    between atoms: O6_47  and  S2_72 
REMARK       I    between atoms: S1_50  and  O1S_61 
REMARK       I    between atoms: S1_50  and  O2S_54 
REMARK       I    between atoms: O3_56  and  C3_75 
REMARK       I    between atoms: C1_58  and  O1_63 
ROOT
ATOM      1  O3  SGN d 502       2.596  18.453 -19.653  0.00  0.00    -0.391 OA
ATOM      2  C1  SGN d 502       0.609  15.504 -20.906  0.00  0.00     0.150 C 
ATOM      3  O6S SGN d 502       1.383  17.366 -27.000  0.00  0.00    -0.572 OA
ATOM      4  C2  SGN d 502       1.751  16.249 -20.163  0.00  0.00     0.081 C 
ATOM      5  O1  SGN d 502      -0.640  15.747 -20.293  0.00  0.00    -0.348 OA
ATOM      6  O5  SGN d 502       0.570  15.897 -22.286  0.00  0.00    -0.349 OA
ATOM      7  C6  SGN d 502       0.390  17.507 -24.070  0.00  0.00     0.067 C 
ATOM      8  S2  SGN d 502       2.043  16.610 -25.976  0.00  0.00     0.251 S 
ATOM      9  C5  SGN d 502       0.454  17.322 -22.542  0.00  0.00     0.091 C 
ATOM     10  O3S SGN d 502       2.332  13.477 -18.796  0.00  0.00    -0.296 OA
ATOM     11  N   SGN d 502       1.734  15.841 -18.750  0.00  0.00    -0.210 NA
ATOM     12  C3  SGN d 502       1.552  17.769 -20.320  0.00  0.00     0.083 C 
ATOM     13  C4  SGN d 502       1.606  18.101 -21.829  0.00  0.00     0.095 C 
ATOM     14  S1  SGN d 502       2.797  14.709 -18.224  0.00  0.00     0.156 S 
ATOM     15  O2S SGN d 502       2.698  14.718 -16.793  0.00  0.00    -0.296 OA
ATOM     16  O4S SGN d 502       3.469  16.638 -26.094  0.00  0.00    -0.572 OA
ATOM     17  O1S SGN d 502       4.104  15.053 -18.696  0.00  0.00    -0.296 OA
ATOM     18  O5S SGN d 502       1.521  15.278 -25.857  0.00  0.00    -0.572 OA
ATOM     19  O6  SGN d 502       1.678  17.301 -24.620  0.00  0.00    -0.254 OA
ATOM     20  H   SGN d 502       2.564  18.246 -18.706  0.00  0.00     0.210 HD
ATOM     21  H   SGN d 502       0.810  14.454 -20.851  0.00  0.00     0.131 H 
ATOM     22  H   SGN d 502       2.706  16.000 -20.576  0.00  0.00     0.076 H 
ATOM     23  H   SGN d 502       0.060  18.500 -24.296  0.00  0.00     0.080 H 
ATOM     24  H   SGN d 502      -0.297  16.802 -24.488  0.00  0.00     0.080 H 
ATOM     25  H   SGN d 502      -0.440  17.738 -22.127  0.00  0.00     0.090 H 
ATOM     26  H   SGN d 502       2.417  13.517 -19.762  0.00  0.00     0.231 HD
ATOM     27  H   SGN d 502       0.799  15.482 -18.557  0.00  0.00     0.140 HD
ATOM     28  H   SGN d 502       0.614  18.068 -19.902  0.00  0.00     0.089 H 
ATOM     29  H   SGN d 502       2.492  17.815 -22.355  0.00  0.00     0.091 H 
ATOM     30  H   SGN d 502       1.796  14.480 -16.529  0.00  0.00     0.231 HD
ATOM     31  H   SGN d 502       4.113  15.031 -19.666  0.00  0.00     0.231 HD
ATOM     32  O62 IDS d 503       5.201  21.303 -19.164  0.00  0.00    -0.646 OA
ATOM     33  O2  IDS d 503       2.110  22.037 -24.287  0.00  0.00    -0.244 OA
ATOM     34  O5  IDS d 503       3.597  20.447 -22.156  0.00  0.00    -0.340 OA
ATOM     35  C5  IDS d 503       3.667  21.273 -20.986  0.00  0.00     0.152 C 
ATOM     36  C4  IDS d 503       3.285  22.721 -21.370  0.00  0.00     0.103 C 
ATOM     37  O61 IDS d 503       6.018  20.806 -21.004  0.00  0.00    -0.646 OA
ATOM     38  O1  IDS d 503       1.465  19.521 -21.835  0.00  0.00    -0.348 OA
ATOM     39  C6  IDS d 503       5.045  21.118 -20.350  0.00  0.00     0.206 C 
ATOM     40  O1S IDS d 503       0.290  22.807 -25.646  0.00  0.00    -0.572 OA
ATOM     41  O3S IDS d 503       1.037  20.547 -25.843  0.00  0.00    -0.572 OA
ATOM     42  C3  IDS d 503       1.860  22.734 -21.989  0.00  0.00     0.094 C 
ATOM     43  O2S IDS d 503       2.416  22.321 -26.629  0.00  0.00    -0.572 OA
ATOM     44  S   IDS d 503       1.414  21.921 -25.683  0.00  0.00     0.252 S 
ATOM     45  O3  IDS d 503       0.923  22.588 -20.938  0.00  0.00    -0.390 OA
ATOM     46  C1  IDS d 503       2.298  20.245 -22.701  0.00  0.00     0.161 C 
ATOM     47  C2  IDS d 503       1.622  21.604 -23.031  0.00  0.00     0.134 C 
ATOM     48  H   IDS d 503       2.965  20.974 -20.236  0.00  0.00     0.104 H 
ATOM     49  H   IDS d 503       3.354  23.285 -20.463  0.00  0.00     0.092 H 
ATOM     50  H   IDS d 503       1.747  23.661 -22.510  0.00  0.00     0.091 H 
ATOM     51  H   IDS d 503       1.063  21.737 -20.495  0.00  0.00     0.210 HD
ATOM     52  H   IDS d 503       2.429  19.675 -23.597  0.00  0.00     0.133 H 
ATOM     53  H   IDS d 503       0.567  21.426 -23.025  0.00  0.00     0.097 H 
ATOM     54  C4  IDS d 505      12.436  25.104 -24.472  0.00  0.00    -0.005 C 
ATOM     55  C5  IDS d 505      11.080  25.775 -24.872  0.00  0.00     0.127 C 
ATOM     56  O2  IDS d 505      10.934  23.151 -21.609  0.00  0.00    -0.388 OA
ATOM     57  O62 IDS d 505      11.134  28.163 -25.125  0.00  0.00    -0.646 OA
ATOM     58  C1  IDS d 505       9.885  24.903 -22.898  0.00  0.00     0.159 C 
ATOM     59  O5  IDS d 505      10.292  26.034 -23.686  0.00  0.00    -0.343 OA
ATOM     60  O1  IDS d 505       8.697  24.339 -23.382  0.00  0.00    -0.348 OA
ATOM     61  O61 IDS d 505      11.562  27.053 -26.824  0.00  0.00    -0.646 OA
ATOM     62  C6  IDS d 505      11.267  27.077 -25.651  0.00  0.00     0.203 C 
ATOM     63  C3  IDS d 505      12.356  24.386 -23.100  0.00  0.00     0.068 C 
ATOM     64  C2  IDS d 505      10.960  23.785 -22.874  0.00  0.00     0.107 C 
ATOM     65  H   IDS d 505      12.699  24.387 -25.222  0.00  0.00     0.041 H 
ATOM     66  H   IDS d 505      13.172  25.877 -24.395  0.00  0.00     0.041 H 
ATOM     67  H   IDS d 505      10.573  25.088 -25.517  0.00  0.00     0.100 H 
ATOM     68  H   IDS d 505      10.056  22.768 -21.457  0.00  0.00     0.210 HD
ATOM     69  H   IDS d 505       9.740  25.282 -21.908  0.00  0.00     0.133 H 
ATOM     70  H   IDS d 505      12.542  25.095 -22.320  0.00  0.00     0.087 H 
ATOM     71  H   IDS d 505      10.750  23.079 -23.652  0.00  0.00     0.094 H 
ATOM     72  O4S SGN d 504       8.551  27.496 -18.697  0.00  0.00    -0.572 OA
ATOM     73  C2  SGN d 504       5.128  25.297 -23.407  0.00  0.00     0.081 C 
ATOM     74  O2S SGN d 504       2.918  26.789 -25.946  0.00  0.00    -0.296 OA
ATOM     75  C5  SGN d 504       6.887  24.042 -21.456  0.00  0.00     0.091 C 
ATOM     76  O3S SGN d 504       1.728  25.873 -24.094  0.00  0.00    -0.296 OA
ATOM     77  N   SGN d 504       4.064  25.233 -24.425  0.00  0.00    -0.210 NA
ATOM     78  O1S SGN d 504       3.371  27.545 -23.724  0.00  0.00    -0.296 OA
ATOM     79  S1  SGN d 504       2.962  26.450 -24.553  0.00  0.00     0.156 S 
ATOM     80  C4  SGN d 504       7.472  24.716 -22.744  0.00  0.00     0.095 C 
ATOM     81  O1  SGN d 504       4.155  23.315 -22.340  0.00  0.00    -0.348 OA
ATOM     82  O6S SGN d 504       9.773  25.483 -18.282  0.00  0.00    -0.572 OA
ATOM     83  O6  SGN d 504       7.992  25.480 -19.886  0.00  0.00    -0.254 OA
ATOM     84  O5S SGN d 504       7.504  25.669 -17.567  0.00  0.00    -0.572 OA
ATOM     85  O3  SGN d 504       6.902  25.185 -25.049  0.00  0.00    -0.391 OA
ATOM     86  O5  SGN d 504       5.612  24.639 -21.094  0.00  0.00    -0.349 OA
ATOM     87  C6  SGN d 504       7.787  24.121 -20.214  0.00  0.00     0.067 C 
ATOM     88  S2  SGN d 504       8.490  26.075 -18.530  0.00  0.00     0.251 S 
ATOM     89  C3  SGN d 504       6.415  24.576 -23.868  0.00  0.00     0.083 C 
ATOM     90  C1  SGN d 504       4.601  24.633 -22.105  0.00  0.00     0.150 C 
ATOM     91  H   SGN d 504       5.379  26.324 -23.241  0.00  0.00     0.076 H 
ATOM     92  H   SGN d 504       2.636  26.016 -26.459  0.00  0.00     0.231 HD
ATOM     93  H   SGN d 504       6.792  23.012 -21.729  0.00  0.00     0.090 H 
ATOM     94  H   SGN d 504       1.481  25.137 -24.674  0.00  0.00     0.231 HD
ATOM     95  H   SGN d 504       3.538  24.378 -24.245  0.00  0.00     0.140 HD
ATOM     96  H   SGN d 504       2.724  28.265 -23.796  0.00  0.00     0.231 HD
ATOM     97  H   SGN d 504       7.715  25.668 -22.320  0.00  0.00     0.091 H 
ATOM     98  H   SGN d 504       6.241  25.099 -25.754  0.00  0.00     0.210 HD
ATOM     99  H   SGN d 504       8.728  23.656 -20.421  0.00  0.00     0.080 H 
ATOM    100  H   SGN d 504       7.321  23.615 -19.394  0.00  0.00     0.080 H 
ATOM    101  H   SGN d 504       6.212  23.545 -24.066  0.00  0.00     0.089 H 
ATOM    102  H   SGN d 504       3.765  25.209 -21.765  0.00  0.00     0.131 H 
ATOM    103  C1  IDS d 501      -4.155  13.125 -20.418  0.00  0.00     0.156 C 
ATOM    104  O3  IDS d 501      -2.269  14.100 -22.769  0.00  0.00    -0.390 OA
ATOM    105  C2  IDS d 501      -2.843  12.541 -21.010  0.00  0.00     0.110 C 
ATOM    106  C4  IDS d 501      -1.715  14.831 -20.545  0.00  0.00     0.103 C 
ATOM    107  C6  IDS d 501      -3.160  16.500 -19.176  0.00  0.00     0.206 C 
ATOM    108  C3  IDS d 501      -1.840  13.618 -21.511  0.00  0.00     0.092 C 
ATOM    109  O5  IDS d 501      -3.858  14.214 -19.546  0.00  0.00    -0.340 OA
ATOM    110  O2  IDS d 501      -2.211  11.774 -20.002  0.00  0.00    -0.388 OA
ATOM    111  C5  IDS d 501      -3.134  15.310 -20.134  0.00  0.00     0.152 C 
ATOM    112  O62 IDS d 501      -3.338  17.621 -19.591  0.00  0.00    -0.646 OA
ATOM    113  O61 IDS d 501      -3.003  16.356 -17.983  0.00  0.00    -0.646 OA
ATOM    114  O1  IDS d 501      -5.000  13.505 -21.472  0.00  0.00    -0.368 OA
ATOM    115  H   IDS d 501      -4.662  12.385 -19.833  0.00  0.00     0.133 H 
ATOM    116  H   IDS d 501      -2.353  13.358 -23.388  0.00  0.00     0.210 HD
ATOM    117  H   IDS d 501      -3.116  11.958 -21.865  0.00  0.00     0.094 H 
ATOM    118  H   IDS d 501      -0.962  14.316 -19.987  0.00  0.00     0.092 H 
ATOM    119  H   IDS d 501      -0.881  13.146 -21.571  0.00  0.00     0.091 H 
ATOM    120  H   IDS d 501      -1.985  12.347 -19.253  0.00  0.00     0.210 HD
ATOM    121  H   IDS d 501      -3.595  15.651 -21.038  0.00  0.00     0.104 H 
ATOM    122  H   IDS d 501      -4.557  14.176 -22.015  0.00  0.00     0.212 HD
ATOM    123  O3  IDS d 535      13.322  23.356 -23.078  0.00  0.00    -0.393 OA
ATOM    124  H   IDS d 535      14.203  23.736 -23.221  0.00  0.00     0.210 HD
ENDROOT
TORSDOF 37
ENDMDL
MODEL 67
REMARK VINA RESULT:      -2.6      4.744      8.388
REMARK  0 active torsions:
REMARK  status: ('A' for Active; 'I' for Inactive)
REMARK       I    between atoms: O3_1  and  C3_48 
REMARK       I    between atoms: C1_2  and  O1_8 
REMARK       I    between atoms: O2_5  and  C2_76 
REMARK       I    between atoms: O2_5  and  S_66 
REMARK       I    between atoms: C2_7  and  N_46 
REMARK       I    between atoms: O1_8  and  C4_39 
REMARK       I    between atoms: C2_12  and  N_23 
REMARK       I    between atoms: O2S_13  and  S1_25 
REMARK       I    between atoms: C1_14  and  O1_65 
REMARK       I    between atoms: O3_15  and  C3_69 
REMARK       I    between atoms: C5_16  and  C6_31 
REMARK       I    between atoms: C5_17  and  C6_68 
REMARK       I    between atoms: C5_18  and  C6_71 
REMARK       I    between atoms: O3S_19  and  S1_25 
REMARK       I    between atoms: C6_20  and  C5_28 
REMARK       I    between atoms: C6_20  and  O6_74 
REMARK       I    between atoms: C4_21  and  O1_35 
REMARK       I    between atoms: S2_22  and  O6_74 
REMARK       I    between atoms: N_23  and  S1_25 
REMARK       I    between atoms: O1S_24  and  S1_25 
REMARK       I    between atoms: C4_27  and  O1_63 
REMARK       I    between atoms: O1_29  and  C4_49 
REMARK       I    between atoms: O1_29  and  C1_73 
REMARK       I    between atoms: O2_30  and  C2_78 
REMARK       I    between atoms: O3_33  and  C3_42 
REMARK       I    between atoms: O1_35  and  C1_77 
REMARK       I    between atoms: O3S_37  and  S1_50 
REMARK       I    between atoms: C2_38  and  O2_45 
REMARK       I    between atoms: C6_40  and  C5_51 
REMARK       I    between atoms: C3_41  and  O3_67 
REMARK       I    between atoms: N_46  and  S1_50 
REMARK       I    between atoms: O6_47  and  C6_71 
REMARK       I    between atoms: O6_47  and  S2_72 
REMARK       I    between atoms: S1_50  and  O1S_61 
REMARK       I    between atoms: S1_50  and  O2S_54 
REMARK       I    between atoms: O3_56  and  C3_75 
REMARK       I    between atoms: C1_58  and  O1_63 
ROOT
ATOM      1  O3  SGN d 502       2.478  17.951 -21.075  0.00  0.00    -0.391 OA
ATOM      2  C1  SGN d 502       1.911  15.532 -23.910  0.00  0.00     0.150 C 
ATOM      3  O6S SGN d 502       7.346  17.375 -26.784  0.00  0.00    -0.572 OA
ATOM      4  C2  SGN d 502       2.115  15.994 -22.441  0.00  0.00     0.081 C 
ATOM      5  O1  SGN d 502       0.689  16.015 -24.430  0.00  0.00    -0.348 OA
ATOM      6  O5  SGN d 502       3.006  15.967 -24.729  0.00  0.00    -0.349 OA
ATOM      7  C6  SGN d 502       4.463  17.634 -25.682  0.00  0.00     0.067 C 
ATOM      8  S2  SGN d 502       6.871  16.465 -25.784  0.00  0.00     0.251 S 
ATOM      9  C5  SGN d 502       3.290  17.391 -24.714  0.00  0.00     0.091 C 
ATOM     10  O3S SGN d 502       1.104  13.121 -21.660  0.00  0.00    -0.296 OA
ATOM     11  N   SGN d 502       0.958  15.555 -21.648  0.00  0.00    -0.210 NA
ATOM     12  C3  SGN d 502       2.281  17.525 -22.410  0.00  0.00     0.083 C 
ATOM     13  C4  SGN d 502       3.528  17.886 -23.250  0.00  0.00     0.095 C 
ATOM     14  S1  SGN d 502       1.078  14.208 -20.722  0.00  0.00     0.156 S 
ATOM     15  O2S SGN d 502      -0.099  14.193 -19.901  0.00  0.00    -0.296 OA
ATOM     16  O4S SGN d 502       7.843  16.194 -24.770  0.00  0.00    -0.572 OA
ATOM     17  O1S SGN d 502       2.288  14.280 -19.961  0.00  0.00    -0.296 OA
ATOM     18  O5S SGN d 502       6.311  15.271 -26.352  0.00  0.00    -0.572 OA
ATOM     19  O6  SGN d 502       5.663  17.175 -25.087  0.00  0.00    -0.254 OA
ATOM     20  H   SGN d 502       1.697  17.727 -20.546  0.00  0.00     0.210 HD
ATOM     21  H   SGN d 502       1.877  14.463 -23.918  0.00  0.00     0.131 H 
ATOM     22  H   SGN d 502       2.998  15.560 -22.022  0.00  0.00     0.076 H 
ATOM     23  H   SGN d 502       4.545  18.680 -25.890  0.00  0.00     0.080 H 
ATOM     24  H   SGN d 502       4.290  17.103 -26.595  0.00  0.00     0.080 H 
ATOM     25  H   SGN d 502       2.462  17.975 -25.056  0.00  0.00     0.090 H 
ATOM     26  H   SGN d 502       1.914  13.172 -22.191  0.00  0.00     0.231 HD
ATOM     27  H   SGN d 502       0.192  15.397 -22.303  0.00  0.00     0.140 HD
ATOM     28  H   SGN d 502       1.410  18.004 -22.805  0.00  0.00     0.089 H 
ATOM     29  H   SGN d 502       4.453  17.434 -22.959  0.00  0.00     0.091 H 
ATOM     30  H   SGN d 502      -0.886  14.143 -20.466  0.00  0.00     0.231 HD
ATOM     31  H   SGN d 502       3.049  14.287 -20.564  0.00  0.00     0.231 HD
ATOM     32  O62 IDS d 503       4.011  20.166 -18.266  0.00  0.00    -0.646 OA
ATOM     33  O2  IDS d 503       6.186  21.699 -23.674  0.00  0.00    -0.244 OA
ATOM     34  O5  IDS d 503       5.265  19.764 -21.510  0.00  0.00    -0.340 OA
ATOM     35  C5  IDS d 503       4.485  20.520 -20.573  0.00  0.00     0.152 C 
ATOM     36  C4  IDS d 503       4.708  22.027 -20.835  0.00  0.00     0.103 C 
ATOM     37  O61 IDS d 503       5.895  19.565 -18.887  0.00  0.00    -0.646 OA
ATOM     38  O1  IDS d 503       3.601  19.302 -23.098  0.00  0.00    -0.348 OA
ATOM     39  C6  IDS d 503       4.820  20.055 -19.158  0.00  0.00     0.206 C 
ATOM     40  O1S IDS d 503       6.210  22.880 -25.762  0.00  0.00    -0.572 OA
ATOM     41  O3S IDS d 503       6.577  20.520 -25.736  0.00  0.00    -0.572 OA
ATOM     42  C3  IDS d 503       4.315  22.361 -22.300  0.00  0.00     0.094 C 
ATOM     43  O2S IDS d 503       8.233  21.984 -24.852  0.00  0.00    -0.572 OA
ATOM     44  S   IDS d 503       6.834  21.776 -25.096  0.00  0.00     0.252 S 
ATOM     45  O3  IDS d 503       2.901  22.385 -22.382  0.00  0.00    -0.390 OA
ATOM     46  C1  IDS d 503       4.868  19.859 -22.873  0.00  0.00     0.161 C 
ATOM     47  C2  IDS d 503       4.858  21.341 -23.340  0.00  0.00     0.134 C 
ATOM     48  H   IDS d 503       3.435  20.353 -20.692  0.00  0.00     0.104 H 
ATOM     49  H   IDS d 503       4.104  22.535 -20.112  0.00  0.00     0.092 H 
ATOM     50  H   IDS d 503       4.753  23.307 -22.540  0.00  0.00     0.091 H 
ATOM     51  H   IDS d 503       2.549  21.510 -22.157  0.00  0.00     0.210 HD
ATOM     52  H   IDS d 503       5.586  19.303 -23.438  0.00  0.00     0.133 H 
ATOM     53  H   IDS d 503       4.185  21.391 -24.171  0.00  0.00     0.097 H 
ATOM     54  C4  IDS d 505      13.022  22.507 -15.387  0.00  0.00    -0.005 C 
ATOM     55  C5  IDS d 505      12.573  23.462 -16.542  0.00  0.00     0.127 C 
ATOM     56  O2  IDS d 505       9.650  20.829 -15.100  0.00  0.00    -0.388 OA
ATOM     57  O62 IDS d 505      13.064  25.791 -16.217  0.00  0.00    -0.646 OA
ATOM     58  C1  IDS d 505      10.202  22.803 -16.377  0.00  0.00     0.159 C 
ATOM     59  O5  IDS d 505      11.190  23.846 -16.351  0.00  0.00    -0.343 OA
ATOM     60  O1  IDS d 505       9.787  22.520 -17.685  0.00  0.00    -0.348 OA
ATOM     61  O61 IDS d 505      14.532  24.669 -17.159  0.00  0.00    -0.646 OA
ATOM     62  C6  IDS d 505      13.438  24.718 -16.645  0.00  0.00     0.203 C 
ATOM     63  C3  IDS d 505      11.823  21.780 -14.724  0.00  0.00     0.068 C 
ATOM     64  C2  IDS d 505      10.723  21.482 -15.754  0.00  0.00     0.107 C 
ATOM     65  H   IDS d 505      13.691  21.774 -15.788  0.00  0.00     0.041 H 
ATOM     66  H   IDS d 505      13.500  23.102 -14.637  0.00  0.00     0.041 H 
ATOM     67  H   IDS d 505      12.689  22.919 -17.456  0.00  0.00     0.100 H 
ATOM     68  H   IDS d 505       8.950  20.637 -15.742  0.00  0.00     0.210 HD
ATOM     69  H   IDS d 505       9.381  23.173 -15.799  0.00  0.00     0.133 H 
ATOM     70  H   IDS d 505      11.407  22.409 -13.965  0.00  0.00     0.087 H 
ATOM     71  H   IDS d 505      11.123  20.861 -16.529  0.00  0.00     0.094 H 
ATOM     72  O4S SGN d 504       6.385  25.489 -14.286  0.00  0.00    -0.572 OA
ATOM     73  C2  SGN d 504       7.713  24.214 -20.231  0.00  0.00     0.081 C 
ATOM     74  O2S SGN d 504       8.497  26.220 -23.219  0.00  0.00    -0.296 OA
ATOM     75  C5  SGN d 504       7.136  22.555 -17.911  0.00  0.00     0.091 C 
ATOM     76  O3S SGN d 504       6.219  25.520 -23.134  0.00  0.00    -0.296 OA
ATOM     77  N   SGN d 504       7.846  24.410 -21.687  0.00  0.00    -0.210 NA
ATOM     78  O1S SGN d 504       7.124  26.793 -21.347  0.00  0.00    -0.296 OA
ATOM     79  S1  SGN d 504       7.399  25.836 -22.378  0.00  0.00     0.156 S 
ATOM     80  C4  SGN d 504       8.575  23.128 -18.147  0.00  0.00     0.095 C 
ATOM     81  O1  SGN d 504       6.065  22.452 -20.671  0.00  0.00    -0.348 OA
ATOM     82  O6S SGN d 504       6.593  23.250 -13.472  0.00  0.00    -0.572 OA
ATOM     83  O6  SGN d 504       6.748  23.676 -15.826  0.00  0.00    -0.254 OA
ATOM     84  O5S SGN d 504       4.658  23.892 -14.713  0.00  0.00    -0.572 OA
ATOM     85  O3  SGN d 504      10.074  23.779 -19.932  0.00  0.00    -0.391 OA
ATOM     86  O5  SGN d 504       6.133  23.397 -18.542  0.00  0.00    -0.349 OA
ATOM     87  C6  SGN d 504       6.730  22.402 -16.437  0.00  0.00     0.067 C 
ATOM     88  S2  SGN d 504       6.061  24.108 -14.491  0.00  0.00     0.251 S 
ATOM     89  C3  SGN d 504       8.786  23.251 -19.676  0.00  0.00     0.083 C 
ATOM     90  C1  SGN d 504       6.299  23.638 -19.942  0.00  0.00     0.150 C 
ATOM     91  H   SGN d 504       7.850  25.159 -19.748  0.00  0.00     0.076 H 
ATOM     92  H   SGN d 504       8.639  25.540 -23.896  0.00  0.00     0.231 HD
ATOM     93  H   SGN d 504       7.179  21.577 -18.344  0.00  0.00     0.090 H 
ATOM     94  H   SGN d 504       6.439  24.872 -23.821  0.00  0.00     0.231 HD
ATOM     95  H   SGN d 504       7.288  23.681 -22.132  0.00  0.00     0.140 HD
ATOM     96  H   SGN d 504       6.860  27.636 -21.751  0.00  0.00     0.231 HD
ATOM     97  H   SGN d 504       8.498  23.994 -17.521  0.00  0.00     0.091 H 
ATOM     98  H   SGN d 504      10.208  23.857 -20.889  0.00  0.00     0.210 HD
ATOM     99  H   SGN d 504       7.420  21.754 -15.939  0.00  0.00     0.080 H 
ATOM    100  H   SGN d 504       5.748  21.981 -16.373  0.00  0.00     0.080 H 
ATOM    101  H   SGN d 504       8.703  22.293 -20.145  0.00  0.00     0.089 H 
ATOM    102  H   SGN d 504       5.583  24.367 -20.257  0.00  0.00     0.131 H 
ATOM    103  C1  IDS d 501      -1.663  14.205 -27.660  0.00  0.00     0.156 C 
ATOM    104  O3  IDS d 501       1.439  14.830 -27.517  0.00  0.00    -0.390 OA
ATOM    105  C2  IDS d 501      -0.456  13.375 -27.142  0.00  0.00     0.110 C 
ATOM    106  C4  IDS d 501       0.125  15.357 -25.572  0.00  0.00     0.103 C 
ATOM    107  C6  IDS d 501      -1.652  17.251 -25.506  0.00  0.00     0.206 C 
ATOM    108  C3  IDS d 501       0.670  14.229 -26.495  0.00  0.00     0.092 C 
ATOM    109  O5  IDS d 501      -2.041  15.179 -26.689  0.00  0.00    -0.340 OA
ATOM    110  O2  IDS d 501      -0.938  12.460 -26.175  0.00  0.00    -0.388 OA
ATOM    111  C5  IDS d 501      -1.017  16.114 -26.304  0.00  0.00     0.152 C 
ATOM    112  O62 IDS d 501      -1.315  18.397 -25.692  0.00  0.00    -0.646 OA
ATOM    113  O61 IDS d 501      -2.501  17.041 -24.668  0.00  0.00    -0.646 OA
ATOM    114  O1  IDS d 501      -1.319  14.789 -28.890  0.00  0.00    -0.368 OA
ATOM    115  H   IDS d 501      -2.512  13.572 -27.816  0.00  0.00     0.133 H 
ATOM    116  H   IDS d 501       1.790  14.142 -28.105  0.00  0.00     0.210 HD
ATOM    117  H   IDS d 501      -0.022  12.889 -27.991  0.00  0.00     0.094 H 
ATOM    118  H   IDS d 501       0.097  14.676 -24.748  0.00  0.00     0.092 H 
ATOM    119  H   IDS d 501       1.255  13.566 -25.893  0.00  0.00     0.091 H 
ATOM    120  H   IDS d 501      -1.321  12.948 -25.430  0.00  0.00     0.210 HD
ATOM    121  H   IDS d 501      -0.558  16.573 -27.155  0.00  0.00     0.104 H 
ATOM    122  H   IDS d 501      -0.550  15.367 -28.769  0.00  0.00     0.212 HD
ATOM    123  O3  IDS d 535      12.289  20.568 -14.168  0.00  0.00    -0.393 OA
ATOM    124  H   IDS d 535      12.984  20.756 -13.518  0.00  0.00     0.210 HD
ENDROOT
TORSDOF 37
ENDMDL
MODEL 68
REMARK VINA RESULT:      -2.6      3.418      4.893
REMARK  0 active torsions:
REMARK  status: ('A' for Active; 'I' for Inactive)
REMARK       I    between atoms: O3_1  and  C3_48 
REMARK       I    between atoms: C1_2  and  O1_8 
REMARK       I    between atoms: O2_5  and  C2_76 
REMARK       I    between atoms: O2_5  and  S_66 
REMARK       I    between atoms: C2_7  and  N_46 
REMARK       I    between atoms: O1_8  and  C4_39 
REMARK       I    between atoms: C2_12  and  N_23 
REMARK       I    between atoms: O2S_13  and  S1_25 
REMARK       I    between atoms: C1_14  and  O1_65 
REMARK       I    between atoms: O3_15  and  C3_69 
REMARK       I    between atoms: C5_16  and  C6_31 
REMARK       I    between atoms: C5_17  and  C6_68 
REMARK       I    between atoms: C5_18  and  C6_71 
REMARK       I    between atoms: O3S_19  and  S1_25 
REMARK       I    between atoms: C6_20  and  C5_28 
REMARK       I    between atoms: C6_20  and  O6_74 
REMARK       I    between atoms: C4_21  and  O1_35 
REMARK       I    between atoms: S2_22  and  O6_74 
REMARK       I    between atoms: N_23  and  S1_25 
REMARK       I    between atoms: O1S_24  and  S1_25 
REMARK       I    between atoms: C4_27  and  O1_63 
REMARK       I    between atoms: O1_29  and  C4_49 
REMARK       I    between atoms: O1_29  and  C1_73 
REMARK       I    between atoms: O2_30  and  C2_78 
REMARK       I    between atoms: O3_33  and  C3_42 
REMARK       I    between atoms: O1_35  and  C1_77 
REMARK       I    between atoms: O3S_37  and  S1_50 
REMARK       I    between atoms: C2_38  and  O2_45 
REMARK       I    between atoms: C6_40  and  C5_51 
REMARK       I    between atoms: C3_41  and  O3_67 
REMARK       I    between atoms: N_46  and  S1_50 
REMARK       I    between atoms: O6_47  and  C6_71 
REMARK       I    between atoms: O6_47  and  S2_72 
REMARK       I    between atoms: S1_50  and  O1S_61 
REMARK       I    between atoms: S1_50  and  O2S_54 
REMARK       I    between atoms: O3_56  and  C3_75 
REMARK       I    between atoms: C1_58  and  O1_63 
ROOT
ATOM      1  O3  SGN d 502       1.292  19.239 -19.997  0.00  0.00    -0.391 OA
ATOM      2  C1  SGN d 502      -0.856  16.287 -19.054  0.00  0.00     0.150 C 
ATOM      3  O6S SGN d 502       3.703  14.007 -15.154  0.00  0.00    -0.572 OA
ATOM      4  C2  SGN d 502      -0.468  17.783 -19.214  0.00  0.00     0.081 C 
ATOM      5  O1  SGN d 502      -1.022  15.668 -20.314  0.00  0.00    -0.348 OA
ATOM      6  O5  SGN d 502       0.135  15.591 -18.285  0.00  0.00    -0.349 OA
ATOM      7  C6  SGN d 502       2.378  14.836 -17.828  0.00  0.00     0.067 C 
ATOM      8  S2  SGN d 502       2.604  14.929 -15.161  0.00  0.00     0.251 S 
ATOM      9  C5  SGN d 502       1.500  15.679 -18.773  0.00  0.00     0.091 C 
ATOM     10  O3S SGN d 502      -3.506  18.373 -18.660  0.00  0.00    -0.296 OA
ATOM     11  N   SGN d 502      -1.492  18.447 -20.033  0.00  0.00    -0.210 NA
ATOM     12  C3  SGN d 502       0.929  17.878 -19.858  0.00  0.00     0.083 C 
ATOM     13  C4  SGN d 502       1.934  17.174 -18.919  0.00  0.00     0.095 C 
ATOM     14  S1  SGN d 502      -2.658  19.338 -19.301  0.00  0.00     0.156 S 
ATOM     15  O2S SGN d 502      -3.331  20.040 -20.356  0.00  0.00    -0.296 OA
ATOM     16  O4S SGN d 502       2.788  16.022 -14.257  0.00  0.00    -0.572 OA
ATOM     17  O1S SGN d 502      -2.040  20.213 -18.352  0.00  0.00    -0.296 OA
ATOM     18  O5S SGN d 502       1.339  14.272 -14.991  0.00  0.00    -0.572 OA
ATOM     19  O6  SGN d 502       2.548  15.529 -16.605  0.00  0.00    -0.254 OA
ATOM     20  H   SGN d 502       0.663  19.683 -20.586  0.00  0.00     0.210 HD
ATOM     21  H   SGN d 502      -1.791  16.243 -18.535  0.00  0.00     0.131 H 
ATOM     22  H   SGN d 502      -0.424  18.272 -18.264  0.00  0.00     0.076 H 
ATOM     23  H   SGN d 502       3.333  14.670 -18.280  0.00  0.00     0.080 H 
ATOM     24  H   SGN d 502       1.904  13.894 -17.644  0.00  0.00     0.080 H 
ATOM     25  H   SGN d 502       1.607  15.277 -19.759  0.00  0.00     0.090 H 
ATOM     26  H   SGN d 502      -3.011  17.924 -17.957  0.00  0.00     0.231 HD
ATOM     27  H   SGN d 502      -1.966  17.717 -20.565  0.00  0.00     0.140 HD
ATOM     28  H   SGN d 502       0.927  17.417 -20.823  0.00  0.00     0.089 H 
ATOM     29  H   SGN d 502       1.994  17.538 -17.915  0.00  0.00     0.091 H 
ATOM     30  H   SGN d 502      -3.730  19.402 -20.967  0.00  0.00     0.231 HD
ATOM     31  H   SGN d 502      -1.602  19.686 -17.665  0.00  0.00     0.231 HD
ATOM     32  O62 IDS d 503       3.758  22.251 -20.005  0.00  0.00    -0.646 OA
ATOM     33  O2  IDS d 503       6.588  17.127 -18.568  0.00  0.00    -0.244 OA
ATOM     34  O5  IDS d 503       4.296  19.131 -18.510  0.00  0.00    -0.340 OA
ATOM     35  C5  IDS d 503       4.477  20.012 -19.627  0.00  0.00     0.152 C 
ATOM     36  C4  IDS d 503       5.904  19.821 -20.191  0.00  0.00     0.103 C 
ATOM     37  O61 IDS d 503       4.245  21.795 -18.042  0.00  0.00    -0.646 OA
ATOM     38  O1  IDS d 503       3.176  17.377 -19.592  0.00  0.00    -0.348 OA
ATOM     39  C6  IDS d 503       4.141  21.437 -19.196  0.00  0.00     0.206 C 
ATOM     40  O1S IDS d 503       7.773  15.089 -19.014  0.00  0.00    -0.572 OA
ATOM     41  O3S IDS d 503       5.933  15.076 -17.493  0.00  0.00    -0.572 OA
ATOM     42  C3  IDS d 503       6.102  18.335 -20.601  0.00  0.00     0.094 C 
ATOM     43  O2S IDS d 503       7.962  16.160 -16.883  0.00  0.00    -0.572 OA
ATOM     44  S   IDS d 503       7.092  15.777 -17.958  0.00  0.00     0.252 S 
ATOM     45  O3  IDS d 503       5.412  18.119 -21.818  0.00  0.00    -0.390 OA
ATOM     46  C1  IDS d 503       4.280  17.740 -18.808  0.00  0.00     0.161 C 
ATOM     47  C2  IDS d 503       5.582  17.320 -19.544  0.00  0.00     0.134 C 
ATOM     48  H   IDS d 503       3.810  19.787 -20.433  0.00  0.00     0.104 H 
ATOM     49  H   IDS d 503       5.978  20.497 -21.016  0.00  0.00     0.092 H 
ATOM     50  H   IDS d 503       7.155  18.169 -20.694  0.00  0.00     0.091 H 
ATOM     51  H   IDS d 503       4.465  18.281 -21.687  0.00  0.00     0.210 HD
ATOM     52  H   IDS d 503       4.209  17.229 -17.871  0.00  0.00     0.133 H 
ATOM     53  H   IDS d 503       5.346  16.431 -20.092  0.00  0.00     0.097 H 
ATOM     54  C4  IDS d 505      10.120  26.053 -13.678  0.00  0.00    -0.005 C 
ATOM     55  C5  IDS d 505      10.800  24.891 -14.476  0.00  0.00     0.127 C 
ATOM     56  O2  IDS d 505       6.947  25.962 -15.726  0.00  0.00    -0.388 OA
ATOM     57  O62 IDS d 505      13.023  25.335 -15.270  0.00  0.00    -0.646 OA
ATOM     58  C1  IDS d 505       9.018  24.807 -16.179  0.00  0.00     0.159 C 
ATOM     59  O5  IDS d 505      10.413  24.961 -15.869  0.00  0.00    -0.343 OA
ATOM     60  O1  IDS d 505       8.664  23.457 -16.303  0.00  0.00    -0.348 OA
ATOM     61  O61 IDS d 505      12.877  24.504 -13.375  0.00  0.00    -0.646 OA
ATOM     62  C6  IDS d 505      12.325  24.911 -14.371  0.00  0.00     0.203 C 
ATOM     63  C3  IDS d 505       8.837  26.575 -14.376  0.00  0.00     0.068 C 
ATOM     64  C2  IDS d 505       8.101  25.435 -15.098  0.00  0.00     0.107 C 
ATOM     65  H   IDS d 505       9.861  25.695 -12.704  0.00  0.00     0.041 H 
ATOM     66  H   IDS d 505      10.816  26.864 -13.624  0.00  0.00     0.041 H 
ATOM     67  H   IDS d 505      10.462  23.975 -14.038  0.00  0.00     0.100 H 
ATOM     68  H   IDS d 505       6.475  25.250 -16.184  0.00  0.00     0.210 HD
ATOM     69  H   IDS d 505       8.875  25.315 -17.110  0.00  0.00     0.133 H 
ATOM     70  H   IDS d 505       9.108  27.310 -15.105  0.00  0.00     0.087 H 
ATOM     71  H   IDS d 505       7.831  24.683 -14.386  0.00  0.00     0.094 H 
ATOM     72  O4S SGN d 504       9.227  26.605 -20.962  0.00  0.00    -0.572 OA
ATOM     73  C2  SGN d 504       9.260  20.778 -18.778  0.00  0.00     0.081 C 
ATOM     74  O2S SGN d 504      11.607  17.944 -18.936  0.00  0.00    -0.296 OA
ATOM     75  C5  SGN d 504       7.367  22.979 -18.575  0.00  0.00     0.091 C 
ATOM     76  O3S SGN d 504       9.844  17.788 -20.534  0.00  0.00    -0.296 OA
ATOM     77  N   SGN d 504       9.606  19.349 -18.667  0.00  0.00    -0.210 NA
ATOM     78  O1S SGN d 504      11.260  19.693 -20.529  0.00  0.00    -0.296 OA
ATOM     79  S1  SGN d 504      10.656  18.663 -19.735  0.00  0.00     0.156 S 
ATOM     80  C4  SGN d 504       8.607  22.900 -17.621  0.00  0.00     0.095 C 
ATOM     81  O1  SGN d 504       6.945  20.127 -19.257  0.00  0.00    -0.348 OA
ATOM     82  O6S SGN d 504       7.349  27.365 -19.691  0.00  0.00    -0.572 OA
ATOM     83  O6  SGN d 504       7.973  25.051 -19.620  0.00  0.00    -0.254 OA
ATOM     84  O5S SGN d 504       7.013  25.965 -21.595  0.00  0.00    -0.572 OA
ATOM     85  O3  SGN d 504      10.062  21.289 -16.553  0.00  0.00    -0.391 OA
ATOM     86  O5  SGN d 504       7.628  22.281 -19.824  0.00  0.00    -0.349 OA
ATOM     87  C6  SGN d 504       6.917  24.401 -18.943  0.00  0.00     0.067 C 
ATOM     88  S2  SGN d 504       7.894  26.327 -20.518  0.00  0.00     0.251 S 
ATOM     89  C3  SGN d 504       8.936  21.403 -17.402  0.00  0.00     0.083 C 
ATOM     90  C1  SGN d 504       8.026  20.912 -19.712  0.00  0.00     0.150 C 
ATOM     91  H   SGN d 504      10.103  21.302 -19.176  0.00  0.00     0.076 H 
ATOM     92  H   SGN d 504      11.147  17.263 -18.420  0.00  0.00     0.231 HD
ATOM     93  H   SGN d 504       6.582  22.521 -18.010  0.00  0.00     0.090 H 
ATOM     94  H   SGN d 504       9.451  17.105 -19.968  0.00  0.00     0.231 HD
ATOM     95  H   SGN d 504       8.731  18.829 -18.742  0.00  0.00     0.140 HD
ATOM     96  H   SGN d 504      11.879  19.293 -21.160  0.00  0.00     0.231 HD
ATOM     97  H   SGN d 504       9.263  23.543 -18.172  0.00  0.00     0.091 H 
ATOM     98  H   SGN d 504      10.270  20.352 -16.414  0.00  0.00     0.210 HD
ATOM     99  H   SGN d 504       6.673  24.943 -18.053  0.00  0.00     0.080 H 
ATOM    100  H   SGN d 504       6.053  24.358 -19.573  0.00  0.00     0.080 H 
ATOM    101  H   SGN d 504       8.107  20.898 -16.951  0.00  0.00     0.089 H 
ATOM    102  H   SGN d 504       8.312  20.553 -20.678  0.00  0.00     0.131 H 
ATOM    103  C1  IDS d 501      -3.523  12.172 -21.186  0.00  0.00     0.156 C 
ATOM    104  O3  IDS d 501      -1.423  12.631 -18.860  0.00  0.00    -0.390 OA
ATOM    105  C2  IDS d 501      -3.663  12.777 -19.763  0.00  0.00     0.110 C 
ATOM    106  C4  IDS d 501      -1.786  14.457 -20.385  0.00  0.00     0.103 C 
ATOM    107  C6  IDS d 501      -1.067  14.412 -22.880  0.00  0.00     0.206 C 
ATOM    108  C3  IDS d 501      -2.408  13.555 -19.279  0.00  0.00     0.092 C 
ATOM    109  O5  IDS d 501      -2.953  13.132 -22.074  0.00  0.00    -0.340 OA
ATOM    110  O2  IDS d 501      -4.766  13.664 -19.771  0.00  0.00    -0.388 OA
ATOM    111  C5  IDS d 501      -1.661  13.643 -21.701  0.00  0.00     0.152 C 
ATOM    112  O62 IDS d 501       0.102  14.295 -23.166  0.00  0.00    -0.646 OA
ATOM    113  O61 IDS d 501      -1.742  15.158 -23.555  0.00  0.00    -0.646 OA
ATOM    114  O1  IDS d 501      -2.754  11.000 -21.109  0.00  0.00    -0.368 OA
ATOM    115  H   IDS d 501      -4.485  11.915 -21.579  0.00  0.00     0.133 H 
ATOM    116  H   IDS d 501      -1.791  12.058 -18.168  0.00  0.00     0.210 HD
ATOM    117  H   IDS d 501      -3.794  11.958 -19.085  0.00  0.00     0.094 H 
ATOM    118  H   IDS d 501      -2.447  15.253 -20.115  0.00  0.00     0.092 H 
ATOM    119  H   IDS d 501      -2.725  14.190 -18.478  0.00  0.00     0.091 H 
ATOM    120  H   IDS d 501      -4.598  14.384 -20.398  0.00  0.00     0.210 HD
ATOM    121  H   IDS d 501      -0.969  12.855 -21.487  0.00  0.00     0.104 H 
ATOM    122  H   IDS d 501      -1.876  11.213 -20.755  0.00  0.00     0.212 HD
ATOM    123  O3  IDS d 535       7.991  27.134 -13.393  0.00  0.00    -0.393 OA
ATOM    124  H   IDS d 535       8.456  27.853 -12.938  0.00  0.00     0.210 HD
ENDROOT
TORSDOF 37
ENDMDL
MODEL 69
REMARK VINA RESULT:      -2.5      5.485     12.503
REMARK  0 active torsions:
REMARK  status: ('A' for Active; 'I' for Inactive)
REMARK       I    between atoms: O3_1  and  C3_48 
REMARK       I    between atoms: C1_2  and  O1_8 
REMARK       I    between atoms: O2_5  and  C2_76 
REMARK       I    between atoms: O2_5  and  S_66 
REMARK       I    between atoms: C2_7  and  N_46 
REMARK       I    between atoms: O1_8  and  C4_39 
REMARK       I    between atoms: C2_12  and  N_23 
REMARK       I    between atoms: O2S_13  and  S1_25 
REMARK       I    between atoms: C1_14  and  O1_65 
REMARK       I    between atoms: O3_15  and  C3_69 
REMARK       I    between atoms: C5_16  and  C6_31 
REMARK       I    between atoms: C5_17  and  C6_68 
REMARK       I    between atoms: C5_18  and  C6_71 
REMARK       I    between atoms: O3S_19  and  S1_25 
REMARK       I    between atoms: C6_20  and  C5_28 
REMARK       I    between atoms: C6_20  and  O6_74 
REMARK       I    between atoms: C4_21  and  O1_35 
REMARK       I    between atoms: S2_22  and  O6_74 
REMARK       I    between atoms: N_23  and  S1_25 
REMARK       I    between atoms: O1S_24  and  S1_25 
REMARK       I    between atoms: C4_27  and  O1_63 
REMARK       I    between atoms: O1_29  and  C4_49 
REMARK       I    between atoms: O1_29  and  C1_73 
REMARK       I    between atoms: O2_30  and  C2_78 
REMARK       I    between atoms: O3_33  and  C3_42 
REMARK       I    between atoms: O1_35  and  C1_77 
REMARK       I    between atoms: O3S_37  and  S1_50 
REMARK       I    between atoms: C2_38  and  O2_45 
REMARK       I    between atoms: C6_40  and  C5_51 
REMARK       I    between atoms: C3_41  and  O3_67 
REMARK       I    between atoms: N_46  and  S1_50 
REMARK       I    between atoms: O6_47  and  C6_71 
REMARK       I    between atoms: O6_47  and  S2_72 
REMARK       I    between atoms: S1_50  and  O1S_61 
REMARK       I    between atoms: S1_50  and  O2S_54 
REMARK       I    between atoms: O3_56  and  C3_75 
REMARK       I    between atoms: C1_58  and  O1_63 
ROOT
ATOM      1  O3  SGN d 502       3.079  16.870 -20.774  0.00  0.00    -0.391 OA
ATOM      2  C1  SGN d 502       5.148  16.407 -17.656  0.00  0.00     0.150 C 
ATOM      3  O6S SGN d 502       6.983  22.557 -17.766  0.00  0.00    -0.572 OA
ATOM      4  C2  SGN d 502       3.871  16.405 -18.541  0.00  0.00     0.081 C 
ATOM      5  O1  SGN d 502       6.072  15.432 -18.094  0.00  0.00    -0.348 OA
ATOM      6  O5  SGN d 502       5.758  17.706 -17.660  0.00  0.00    -0.349 OA
ATOM      7  C6  SGN d 502       6.755  19.622 -18.729  0.00  0.00     0.067 C 
ATOM      8  S2  SGN d 502       5.915  21.723 -17.297  0.00  0.00     0.251 S 
ATOM      9  C5  SGN d 502       6.082  18.256 -18.964  0.00  0.00     0.091 C 
ATOM     10  O3S SGN d 502       2.575  14.713 -16.229  0.00  0.00    -0.296 OA
ATOM     11  N   SGN d 502       3.300  15.050 -18.533  0.00  0.00    -0.210 NA
ATOM     12  C3  SGN d 502       4.241  16.860 -19.966  0.00  0.00     0.083 C 
ATOM     13  C4  SGN d 502       4.811  18.294 -19.873  0.00  0.00     0.095 C 
ATOM     14  S1  SGN d 502       2.026  14.717 -17.556  0.00  0.00     0.156 S 
ATOM     15  O2S SGN d 502       1.556  13.423 -17.957  0.00  0.00    -0.296 OA
ATOM     16  O4S SGN d 502       4.657  22.404 -17.250  0.00  0.00    -0.572 OA
ATOM     17  O1S SGN d 502       1.042  15.744 -17.718  0.00  0.00    -0.296 OA
ATOM     18  O5S SGN d 502       6.237  21.062 -16.064  0.00  0.00    -0.572 OA
ATOM     19  O6  SGN d 502       5.774  20.566 -18.342  0.00  0.00    -0.254 OA
ATOM     20  H   SGN d 502       2.720  15.971 -20.834  0.00  0.00     0.210 HD
ATOM     21  H   SGN d 502       4.856  16.165 -16.656  0.00  0.00     0.131 H 
ATOM     22  H   SGN d 502       3.139  17.084 -18.160  0.00  0.00     0.076 H 
ATOM     23  H   SGN d 502       7.228  19.948 -19.632  0.00  0.00     0.080 H 
ATOM     24  H   SGN d 502       7.490  19.531 -17.957  0.00  0.00     0.080 H 
ATOM     25  H   SGN d 502       6.772  17.643 -19.504  0.00  0.00     0.090 H 
ATOM     26  H   SGN d 502       2.879  15.605 -16.002  0.00  0.00     0.231 HD
ATOM     27  H   SGN d 502       4.050  14.413 -18.269  0.00  0.00     0.140 HD
ATOM     28  H   SGN d 502       4.960  16.195 -20.395  0.00  0.00     0.089 H 
ATOM     29  H   SGN d 502       4.181  19.036 -19.428  0.00  0.00     0.091 H 
ATOM     30  H   SGN d 502       2.259  12.768 -17.826  0.00  0.00     0.231 HD
ATOM     31  H   SGN d 502       1.412  16.594 -17.434  0.00  0.00     0.231 HD
ATOM     32  O62 IDS d 503       0.735  18.226 -23.570  0.00  0.00    -0.646 OA
ATOM     33  O2  IDS d 503       5.637  21.682 -22.975  0.00  0.00    -0.244 OA
ATOM     34  O5  IDS d 503       3.308  19.990 -21.981  0.00  0.00    -0.340 OA
ATOM     35  C5  IDS d 503       2.852  19.205 -23.092  0.00  0.00     0.152 C 
ATOM     36  C4  IDS d 503       3.472  19.768 -24.391  0.00  0.00     0.103 C 
ATOM     37  O61 IDS d 503       0.668  20.039 -22.566  0.00  0.00    -0.646 OA
ATOM     38  O1  IDS d 503       5.059  18.614 -21.241  0.00  0.00    -0.348 OA
ATOM     39  C6  IDS d 503       1.328  19.157 -23.074  0.00  0.00     0.206 C 
ATOM     40  O1S IDS d 503       7.901  22.350 -23.400  0.00  0.00    -0.572 OA
ATOM     41  O3S IDS d 503       7.108  22.232 -21.151  0.00  0.00    -0.572 OA
ATOM     42  C3  IDS d 503       5.021  19.745 -24.278  0.00  0.00     0.094 C 
ATOM     43  O2S IDS d 503       6.299  23.937 -22.602  0.00  0.00    -0.572 OA
ATOM     44  S   IDS d 503       6.813  22.601 -22.504  0.00  0.00     0.252 S 
ATOM     45  O3  IDS d 503       5.456  18.409 -24.452  0.00  0.00    -0.390 OA
ATOM     46  C1  IDS d 503       4.695  19.896 -21.677  0.00  0.00     0.161 C 
ATOM     47  C2  IDS d 503       5.556  20.271 -22.915  0.00  0.00     0.134 C 
ATOM     48  H   IDS d 503       3.177  18.188 -23.029  0.00  0.00     0.104 H 
ATOM     49  H   IDS d 503       3.100  19.146 -25.178  0.00  0.00     0.092 H 
ATOM     50  H   IDS d 503       5.406  20.400 -25.031  0.00  0.00     0.091 H 
ATOM     51  H   IDS d 503       5.084  17.854 -23.749  0.00  0.00     0.210 HD
ATOM     52  H   IDS d 503       4.880  20.587 -20.881  0.00  0.00     0.133 H 
ATOM     53  H   IDS d 503       6.506  19.798 -22.777  0.00  0.00     0.097 H 
ATOM     54  C4  IDS d 505      -3.498  26.774 -25.563  0.00  0.00    -0.005 C 
ATOM     55  C5  IDS d 505      -2.043  26.758 -26.140  0.00  0.00     0.127 C 
ATOM     56  O2  IDS d 505      -3.406  23.148 -24.509  0.00  0.00    -0.388 OA
ATOM     57  O62 IDS d 505      -1.797  27.626 -28.367  0.00  0.00    -0.646 OA
ATOM     58  C1  IDS d 505      -1.795  24.319 -25.874  0.00  0.00     0.159 C 
ATOM     59  O5  IDS d 505      -1.766  25.469 -26.736  0.00  0.00    -0.343 OA
ATOM     60  O1  IDS d 505      -0.563  24.122 -25.236  0.00  0.00    -0.348 OA
ATOM     61  O61 IDS d 505      -1.614  29.000 -26.824  0.00  0.00    -0.646 OA
ATOM     62  C6  IDS d 505      -1.802  27.858 -27.175  0.00  0.00     0.203 C 
ATOM     63  C3  IDS d 505      -4.022  25.349 -25.248  0.00  0.00     0.068 C 
ATOM     64  C2  IDS d 505      -2.881  24.436 -24.773  0.00  0.00     0.107 C 
ATOM     65  H   IDS d 505      -3.504  27.351 -24.662  0.00  0.00     0.041 H 
ATOM     66  H   IDS d 505      -4.139  27.202 -26.305  0.00  0.00     0.041 H 
ATOM     67  H   IDS d 505      -1.382  26.943 -25.320  0.00  0.00     0.100 H 
ATOM     68  H   IDS d 505      -2.693  22.564 -24.208  0.00  0.00     0.210 HD
ATOM     69  H   IDS d 505      -2.020  23.490 -26.513  0.00  0.00     0.133 H 
ATOM     70  H   IDS d 505      -4.440  24.923 -26.137  0.00  0.00     0.087 H 
ATOM     71  H   IDS d 505      -2.442  24.850 -23.889  0.00  0.00     0.094 H 
ATOM     72  O4S SGN d 504      -2.008  20.771 -29.552  0.00  0.00    -0.572 OA
ATOM     73  C2  SGN d 504       2.795  22.967 -26.259  0.00  0.00     0.081 C 
ATOM     74  O2S SGN d 504       5.939  24.704 -27.070  0.00  0.00    -0.296 OA
ATOM     75  C5  SGN d 504       0.315  21.629 -25.530  0.00  0.00     0.091 C 
ATOM     76  O3S SGN d 504       6.227  22.362 -26.728  0.00  0.00    -0.296 OA
ATOM     77  N   SGN d 504       4.164  23.420 -25.952  0.00  0.00    -0.210 NA
ATOM     78  O1S SGN d 504       4.714  23.130 -28.388  0.00  0.00    -0.296 OA
ATOM     79  S1  SGN d 504       5.324  23.409 -27.121  0.00  0.00     0.156 S 
ATOM     80  C4  SGN d 504       0.340  23.170 -25.810  0.00  0.00     0.095 C 
ATOM     81  O1  SGN d 504       3.105  21.123 -24.672  0.00  0.00    -0.348 OA
ATOM     82  O6S SGN d 504      -3.456  20.369 -27.692  0.00  0.00    -0.572 OA
ATOM     83  O6  SGN d 504      -1.195  21.066 -27.307  0.00  0.00    -0.254 OA
ATOM     84  O5S SGN d 504      -1.642  18.882 -28.134  0.00  0.00    -0.572 OA
ATOM     85  O3  SGN d 504       1.805  25.090 -25.651  0.00  0.00    -0.391 OA
ATOM     86  O5  SGN d 504       1.390  20.956 -26.240  0.00  0.00    -0.349 OA
ATOM     87  C6  SGN d 504      -0.991  20.918 -25.917  0.00  0.00     0.067 C 
ATOM     88  S2  SGN d 504      -2.135  20.229 -28.232  0.00  0.00     0.251 S 
ATOM     89  C3  SGN d 504       1.738  23.698 -25.401  0.00  0.00     0.083 C 
ATOM     90  C1  SGN d 504       2.713  21.439 -25.991  0.00  0.00     0.150 C 
ATOM     91  H   SGN d 504       2.585  23.190 -27.284  0.00  0.00     0.076 H 
ATOM     92  H   SGN d 504       6.334  24.840 -26.195  0.00  0.00     0.231 HD
ATOM     93  H   SGN d 504       0.425  21.562 -24.467  0.00  0.00     0.090 H 
ATOM     94  H   SGN d 504       6.621  22.581 -25.870  0.00  0.00     0.231 HD
ATOM     95  H   SGN d 504       4.505  22.828 -25.195  0.00  0.00     0.140 HD
ATOM     96  H   SGN d 504       5.395  23.123 -29.080  0.00  0.00     0.231 HD
ATOM     97  H   SGN d 504       0.029  23.143 -26.834  0.00  0.00     0.091 H 
ATOM     98  H   SGN d 504       2.680  25.422 -25.396  0.00  0.00     0.210 HD
ATOM     99  H   SGN d 504      -1.810  21.354 -25.384  0.00  0.00     0.080 H 
ATOM    100  H   SGN d 504      -0.927  19.879 -25.667  0.00  0.00     0.080 H 
ATOM    101  H   SGN d 504       1.916  23.522 -24.361  0.00  0.00     0.089 H 
ATOM    102  H   SGN d 504       3.392  20.956 -26.661  0.00  0.00     0.131 H 
ATOM    103  C1  IDS d 501       9.125  13.452 -15.644  0.00  0.00     0.156 C 
ATOM    104  O3  IDS d 501       8.400  16.526 -15.886  0.00  0.00    -0.390 OA
ATOM    105  C2  IDS d 501       8.107  14.345 -14.883  0.00  0.00     0.110 C 
ATOM    106  C4  IDS d 501       7.080  14.984 -17.177  0.00  0.00     0.103 C 
ATOM    107  C6  IDS d 501       8.004  13.639 -19.198  0.00  0.00     0.206 C 
ATOM    108  C3  IDS d 501       7.474  15.467 -15.751  0.00  0.00     0.092 C 
ATOM    109  O5  IDS d 501       8.600  13.089 -16.920  0.00  0.00    -0.340 OA
ATOM    110  O2  IDS d 501       7.070  13.511 -14.400  0.00  0.00    -0.388 OA
ATOM    111  C5  IDS d 501       8.258  14.181 -17.792  0.00  0.00     0.152 C 
ATOM    112  O62 IDS d 501       8.422  14.226 -20.169  0.00  0.00    -0.646 OA
ATOM    113  O61 IDS d 501       7.380  12.617 -19.380  0.00  0.00    -0.646 OA
ATOM    114  O1  IDS d 501      10.344  14.140 -15.749  0.00  0.00    -0.368 OA
ATOM    115  H   IDS d 501       9.299  12.543 -15.107  0.00  0.00     0.133 H 
ATOM    116  H   IDS d 501       8.659  16.843 -15.006  0.00  0.00     0.210 HD
ATOM    117  H   IDS d 501       8.645  14.834 -14.097  0.00  0.00     0.094 H 
ATOM    118  H   IDS d 501       6.128  14.661 -16.811  0.00  0.00     0.092 H 
ATOM    119  H   IDS d 501       6.580  15.780 -15.252  0.00  0.00     0.091 H 
ATOM    120  H   IDS d 501       6.616  13.093 -15.148  0.00  0.00     0.210 HD
ATOM    121  H   IDS d 501       9.063  14.881 -17.889  0.00  0.00     0.104 H 
ATOM    122  H   IDS d 501      10.207  14.969 -16.234  0.00  0.00     0.212 HD
ATOM    123  O3  IDS d 535      -5.000  25.447 -24.234  0.00  0.00    -0.393 OA
ATOM    124  H   IDS d 535      -5.720  26.024 -24.534  0.00  0.00     0.210 HD
ENDROOT
TORSDOF 37
ENDMDL
