MODEL 1
REMARK VINA RESULT:      -6.7      0.000      0.000
REMARK  0 active torsions:
REMARK  status: ('A' for Active; 'I' for Inactive)
REMARK       I    between atoms: C2_2  and  O2_34 
REMARK       I    between atoms: O4_3  and  C4_29 
REMARK       I    between atoms: O6_4  and  C6_17 
REMARK       I    between atoms: O6_4  and  S2_35 
REMARK       I    between atoms: C2_6  and  N_15 
REMARK       I    between atoms: O1_8  and  C1_19 
REMARK       I    between atoms: O1_8  and  C7_24 
REMARK       I    between atoms: C4_9  and  O4_22 
REMARK       I    between atoms: C3_10  and  O3_13 
REMARK       I    between atoms: O1S_14  and  S1_21 
REMARK       I    between atoms: N_15  and  S1_21 
REMARK       I    between atoms: C1_16  and  O4_22 
REMARK       I    between atoms: C6_17  and  C5_36 
REMARK       I    between atoms: O2S_18  and  S1_21 
REMARK       I    between atoms: O3S_20  and  S1_21 
REMARK       I    between atoms: O3_23  and  C3_25 
REMARK       I    between atoms: S_28  and  O2_34 
REMARK       I    between atoms: C6_32  and  C5_33 
ROOT
ATOM      1  OS3 IDY d 142     -39.444   0.744  20.754  0.00  0.00    -0.572 OA
ATOM      2  C2  IDY d 142     -38.757  -1.952  19.911  0.00  0.00     0.134 C 
ATOM      3  O61 IDY d 142     -40.786  -5.864  22.859  0.00  0.00    -0.646 OA
ATOM      4  O1  IDY d 142     -37.911  -1.803  22.038  0.00  0.00    -0.363 OA
ATOM      5  C4  IDY d 142     -39.443  -4.380  20.058  0.00  0.00     0.103 C 
ATOM      6  OS2 IDY d 142     -38.901   0.815  18.404  0.00  0.00    -0.572 OA
ATOM      7  O62 IDY d 142     -42.063  -4.191  21.859  0.00  0.00    -0.646 OA
ATOM      8  C1  IDY d 142     -38.966  -1.898  21.402  0.00  0.00     0.160 C 
ATOM      9  O4  IDY d 142     -40.773  -4.577  19.376  0.00  0.00    -0.348 OA
ATOM     10  O3  IDY d 142     -37.211  -3.715  19.357  0.00  0.00    -0.390 OA
ATOM     11  C7  IDY d 142     -36.551  -1.869  22.425  0.00  0.00     0.007 C 
ATOM     12  C3  IDY d 142     -38.648  -3.335  19.353  0.00  0.00     0.094 C 
ATOM     13  S   IDY d 142     -39.868   0.284  19.389  0.00  0.00     0.252 S 
ATOM     14  O5  IDY d 142     -39.915  -2.806  21.922  0.00  0.00    -0.340 OA
ATOM     15  C6  IDY d 142     -40.926  -4.902  21.983  0.00  0.00     0.206 C 
ATOM     16  C5  IDY d 142     -39.677  -4.172  21.546  0.00  0.00     0.152 C 
ATOM     17  O2  IDY d 142     -39.849  -1.225  19.307  0.00  0.00    -0.244 OA
ATOM     18  OS1 IDY d 142     -41.221   0.756  19.054  0.00  0.00    -0.572 OA
ATOM     19  H   IDY d 142     -37.812  -1.507  19.682  0.00  0.00     0.097 H 
ATOM     20  H   IDY d 142     -38.826  -5.251  19.991  0.00  0.00     0.092 H 
ATOM     21  H   IDY d 142     -39.463  -0.965  21.568  0.00  0.00     0.133 H 
ATOM     22  H   IDY d 142     -36.695  -3.033  18.897  0.00  0.00     0.210 HD
ATOM     23  H   IDY d 142     -36.440  -1.462  23.408  0.00  0.00     0.066 H 
ATOM     24  H   IDY d 142     -35.957  -1.306  21.736  0.00  0.00     0.066 H 
ATOM     25  H   IDY d 142     -36.229  -2.889  22.423  0.00  0.00     0.066 H 
ATOM     26  H   IDY d 142     -39.066  -3.297  18.369  0.00  0.00     0.091 H 
ATOM     27  H   IDY d 142     -38.777  -4.526  22.004  0.00  0.00     0.104 H 
ATOM     28  O4  SGN d 141     -45.000  -5.155  19.430  0.00  0.00    -0.390 OA
ATOM     29  O6  SGN d 141     -42.895  -8.489  18.128  0.00  0.00    -0.254 OA
ATOM     30  O5S SGN d 141     -44.031 -10.431  18.798  0.00  0.00    -0.572 OA
ATOM     31  C2  SGN d 141     -42.142  -4.192  17.438  0.00  0.00     0.081 C 
ATOM     32  C3  SGN d 141     -43.404  -4.058  18.267  0.00  0.00     0.083 C 
ATOM     33  O3  SGN d 141     -44.438  -3.367  17.604  0.00  0.00    -0.391 OA
ATOM     34  O1S SGN d 141     -41.072  -1.009  15.772  0.00  0.00    -0.296 OA
ATOM     35  N   SGN d 141     -41.527  -2.901  17.263  0.00  0.00    -0.210 NA
ATOM     36  C1  SGN d 141     -41.176  -5.137  18.153  0.00  0.00     0.150 C 
ATOM     37  C6  SGN d 141     -43.458  -7.779  19.206  0.00  0.00     0.067 C 
ATOM     38  O2S SGN d 141     -42.165  -2.944  14.990  0.00  0.00    -0.296 OA
ATOM     39  O3S SGN d 141     -39.870  -3.057  15.478  0.00  0.00    -0.296 OA
ATOM     40  S1  SGN d 141     -41.118  -2.439  15.813  0.00  0.00     0.156 S 
ATOM     41  O4S SGN d 141     -42.447 -10.601  17.008  0.00  0.00    -0.572 OA
ATOM     42  O5  SGN d 141     -41.754  -6.405  18.404  0.00  0.00    -0.349 OA
ATOM     43  C4  SGN d 141     -43.950  -5.431  18.550  0.00  0.00     0.089 C 
ATOM     44  O6S SGN d 141     -41.700 -10.278  19.279  0.00  0.00    -0.572 OA
ATOM     45  S2  SGN d 141     -42.746 -10.018  18.299  0.00  0.00     0.251 S 
ATOM     46  C5  SGN d 141     -42.922  -6.366  19.176  0.00  0.00     0.090 C 
ATOM     47  H   SGN d 141     -45.634  -4.559  19.001  0.00  0.00     0.210 HD
ATOM     48  H   SGN d 141     -42.385  -4.588  16.474  0.00  0.00     0.076 H 
ATOM     49  H   SGN d 141     -43.125  -3.516  19.145  0.00  0.00     0.089 H 
ATOM     50  H   SGN d 141     -44.694  -3.855  16.805  0.00  0.00     0.210 HD
ATOM     51  H   SGN d 141     -41.943  -0.651  16.007  0.00  0.00     0.231 HD
ATOM     52  H   SGN d 141     -40.679  -2.895  17.829  0.00  0.00     0.140 HD
ATOM     53  H   SGN d 141     -40.335  -5.273  17.506  0.00  0.00     0.131 H 
ATOM     54  H   SGN d 141     -43.187  -8.249  20.129  0.00  0.00     0.080 H 
ATOM     55  H   SGN d 141     -44.524  -7.771  19.125  0.00  0.00     0.080 H 
ATOM     56  H   SGN d 141     -43.001  -2.515  15.230  0.00  0.00     0.231 HD
ATOM     57  H   SGN d 141     -39.170  -2.702  16.048  0.00  0.00     0.231 HD
ATOM     58  H   SGN d 141     -44.247  -5.947  17.662  0.00  0.00     0.091 H 
ATOM     59  H   SGN d 141     -42.719  -6.001  20.161  0.00  0.00     0.090 H 
ENDROOT
TORSDOF 18
ENDMDL
MODEL 2
REMARK VINA RESULT:      -6.2      3.094      5.406
REMARK  0 active torsions:
REMARK  status: ('A' for Active; 'I' for Inactive)
REMARK       I    between atoms: C2_2  and  O2_34 
REMARK       I    between atoms: O4_3  and  C4_29 
REMARK       I    between atoms: O6_4  and  C6_17 
REMARK       I    between atoms: O6_4  and  S2_35 
REMARK       I    between atoms: C2_6  and  N_15 
REMARK       I    between atoms: O1_8  and  C1_19 
REMARK       I    between atoms: O1_8  and  C7_24 
REMARK       I    between atoms: C4_9  and  O4_22 
REMARK       I    between atoms: C3_10  and  O3_13 
REMARK       I    between atoms: O1S_14  and  S1_21 
REMARK       I    between atoms: N_15  and  S1_21 
REMARK       I    between atoms: C1_16  and  O4_22 
REMARK       I    between atoms: C6_17  and  C5_36 
REMARK       I    between atoms: O2S_18  and  S1_21 
REMARK       I    between atoms: O3S_20  and  S1_21 
REMARK       I    between atoms: O3_23  and  C3_25 
REMARK       I    between atoms: S_28  and  O2_34 
REMARK       I    between atoms: C6_32  and  C5_33 
ROOT
ATOM      1  OS3 IDY d 142     -36.344  -1.527  20.751  0.00  0.00    -0.572 OA
ATOM      2  C2  IDY d 142     -39.020  -2.590  20.357  0.00  0.00     0.134 C 
ATOM      3  O61 IDY d 142     -41.296  -1.409  15.716  0.00  0.00    -0.646 OA
ATOM      4  O1  IDY d 142     -39.299  -0.317  20.216  0.00  0.00    -0.363 OA
ATOM      5  C4  IDY d 142     -40.750  -3.187  18.613  0.00  0.00     0.103 C 
ATOM      6  OS2 IDY d 142     -36.592  -3.462  22.171  0.00  0.00    -0.572 OA
ATOM      7  O62 IDY d 142     -39.218  -2.444  15.922  0.00  0.00    -0.646 OA
ATOM      8  C1  IDY d 142     -38.847  -1.294  19.608  0.00  0.00     0.160 C 
ATOM      9  O4  IDY d 142     -40.245  -4.324  17.762  0.00  0.00    -0.348 OA
ATOM     10  O3  IDY d 142     -41.334  -2.894  20.956  0.00  0.00    -0.390 OA
ATOM     11  C7  IDY d 142     -40.048   0.509  21.087  0.00  0.00     0.007 C 
ATOM     12  C3  IDY d 142     -40.270  -3.335  20.017  0.00  0.00     0.094 C 
ATOM     13  S   IDY d 142     -36.538  -3.015  20.761  0.00  0.00     0.252 S 
ATOM     14  O5  IDY d 142     -39.132  -1.340  18.226  0.00  0.00    -0.340 OA
ATOM     15  C6  IDY d 142     -40.411  -2.065  16.421  0.00  0.00     0.206 C 
ATOM     16  C5  IDY d 142     -40.431  -1.871  17.920  0.00  0.00     0.152 C 
ATOM     17  O2  IDY d 142     -37.844  -3.386  20.096  0.00  0.00    -0.244 OA
ATOM     18  OS1 IDY d 142     -35.443  -3.710  20.067  0.00  0.00    -0.572 OA
ATOM     19  H   IDY d 142     -39.127  -2.371  21.399  0.00  0.00     0.097 H 
ATOM     20  H   IDY d 142     -41.815  -3.200  18.710  0.00  0.00     0.092 H 
ATOM     21  H   IDY d 142     -37.789  -1.133  19.594  0.00  0.00     0.133 H 
ATOM     22  H   IDY d 142     -41.020  -2.992  21.869  0.00  0.00     0.210 HD
ATOM     23  H   IDY d 142     -39.743   1.528  20.963  0.00  0.00     0.066 H 
ATOM     24  H   IDY d 142     -39.880   0.206  22.099  0.00  0.00     0.066 H 
ATOM     25  H   IDY d 142     -41.089   0.419  20.856  0.00  0.00     0.066 H 
ATOM     26  H   IDY d 142     -40.037  -4.376  20.112  0.00  0.00     0.091 H 
ATOM     27  H   IDY d 142     -41.191  -1.202  18.266  0.00  0.00     0.104 H 
ATOM     28  O4  SGN d 141     -38.570  -5.902  14.170  0.00  0.00    -0.390 OA
ATOM     29  O6  SGN d 141     -42.528  -7.004  14.768  0.00  0.00    -0.254 OA
ATOM     30  O5S SGN d 141     -43.603  -7.188  12.689  0.00  0.00    -0.572 OA
ATOM     31  C2  SGN d 141     -39.238  -6.504  17.671  0.00  0.00     0.081 C 
ATOM     32  C3  SGN d 141     -38.463  -6.174  16.410  0.00  0.00     0.083 C 
ATOM     33  O3  SGN d 141     -37.348  -7.010  16.202  0.00  0.00    -0.391 OA
ATOM     34  O1S SGN d 141     -37.077  -7.004  20.693  0.00  0.00    -0.296 OA
ATOM     35  N   SGN d 141     -38.447  -6.185  18.833  0.00  0.00    -0.210 NA
ATOM     36  C1  SGN d 141     -40.535  -5.695  17.684  0.00  0.00     0.150 C 
ATOM     37  C6  SGN d 141     -41.616  -6.080  14.223  0.00  0.00     0.067 C 
ATOM     38  O2S SGN d 141     -38.187  -8.496  19.246  0.00  0.00    -0.296 OA
ATOM     39  O3S SGN d 141     -39.456  -7.251  20.783  0.00  0.00    -0.296 OA
ATOM     40  S1  SGN d 141     -38.280  -7.269  19.965  0.00  0.00     0.156 S 
ATOM     41  O4S SGN d 141     -44.586  -8.288  14.578  0.00  0.00    -0.572 OA
ATOM     42  O5  SGN d 141     -41.322  -5.927  16.531  0.00  0.00    -0.349 OA
ATOM     43  C4  SGN d 141     -39.357  -6.385  15.219  0.00  0.00     0.089 C 
ATOM     44  O6S SGN d 141     -44.662  -5.884  14.382  0.00  0.00    -0.572 OA
ATOM     45  S2  SGN d 141     -43.915  -7.101  14.091  0.00  0.00     0.251 S 
ATOM     46  C5  SGN d 141     -40.679  -5.634  15.321  0.00  0.00     0.090 C 
ATOM     47  H   SGN d 141     -37.739  -6.401  14.133  0.00  0.00     0.210 HD
ATOM     48  H   SGN d 141     -39.465  -7.550  17.689  0.00  0.00     0.076 H 
ATOM     49  H   SGN d 141     -38.131  -5.164  16.524  0.00  0.00     0.089 H 
ATOM     50  H   SGN d 141     -37.647  -7.927  16.098  0.00  0.00     0.210 HD
ATOM     51  H   SGN d 141     -36.320  -7.030  20.087  0.00  0.00     0.231 HD
ATOM     52  H   SGN d 141     -38.870  -5.364  19.265  0.00  0.00     0.140 HD
ATOM     53  H   SGN d 141     -41.092  -6.012  18.541  0.00  0.00     0.131 H 
ATOM     54  H   SGN d 141     -42.146  -5.236  13.834  0.00  0.00     0.080 H 
ATOM     55  H   SGN d 141     -41.063  -6.534  13.428  0.00  0.00     0.080 H 
ATOM     56  H   SGN d 141     -37.386  -8.490  18.699  0.00  0.00     0.231 HD
ATOM     57  H   SGN d 141     -39.503  -6.410  21.263  0.00  0.00     0.231 HD
ATOM     58  H   SGN d 141     -39.660  -7.404  15.107  0.00  0.00     0.091 H 
ATOM     59  H   SGN d 141     -40.457  -4.589  15.249  0.00  0.00     0.090 H 
ENDROOT
TORSDOF 18
ENDMDL
MODEL 3
REMARK VINA RESULT:      -6.1      3.391      4.591
REMARK  0 active torsions:
REMARK  status: ('A' for Active; 'I' for Inactive)
REMARK       I    between atoms: C2_2  and  O2_34 
REMARK       I    between atoms: O4_3  and  C4_29 
REMARK       I    between atoms: O6_4  and  C6_17 
REMARK       I    between atoms: O6_4  and  S2_35 
REMARK       I    between atoms: C2_6  and  N_15 
REMARK       I    between atoms: O1_8  and  C1_19 
REMARK       I    between atoms: O1_8  and  C7_24 
REMARK       I    between atoms: C4_9  and  O4_22 
REMARK       I    between atoms: C3_10  and  O3_13 
REMARK       I    between atoms: O1S_14  and  S1_21 
REMARK       I    between atoms: N_15  and  S1_21 
REMARK       I    between atoms: C1_16  and  O4_22 
REMARK       I    between atoms: C6_17  and  C5_36 
REMARK       I    between atoms: O2S_18  and  S1_21 
REMARK       I    between atoms: O3S_20  and  S1_21 
REMARK       I    between atoms: O3_23  and  C3_25 
REMARK       I    between atoms: S_28  and  O2_34 
REMARK       I    between atoms: C6_32  and  C5_33 
ROOT
ATOM      1  OS3 IDY d 142     -41.458  -1.398  21.702  0.00  0.00    -0.572 OA
ATOM      2  C2  IDY d 142     -39.160  -1.709  19.950  0.00  0.00     0.134 C 
ATOM      3  O61 IDY d 142     -35.911  -5.732  21.119  0.00  0.00    -0.646 OA
ATOM      4  O1  IDY d 142     -38.235  -1.348  22.018  0.00  0.00    -0.363 OA
ATOM      5  C4  IDY d 142     -37.404  -3.339  19.145  0.00  0.00     0.103 C 
ATOM      6  OS2 IDY d 142     -42.000  -0.387  19.579  0.00  0.00    -0.572 OA
ATOM      7  O62 IDY d 142     -38.199  -5.970  20.752  0.00  0.00    -0.646 OA
ATOM      8  C1  IDY d 142     -38.836  -2.189  21.340  0.00  0.00     0.160 C 
ATOM      9  O4  IDY d 142     -38.060  -4.455  18.372  0.00  0.00    -0.348 OA
ATOM     10  O3  IDY d 142     -37.156  -0.936  18.856  0.00  0.00    -0.390 OA
ATOM     11  C7  IDY d 142     -37.439  -0.250  22.420  0.00  0.00     0.007 C 
ATOM     12  C3  IDY d 142     -38.130  -2.056  18.923  0.00  0.00     0.094 C 
ATOM     13  S   IDY d 142     -41.693  -1.672  20.245  0.00  0.00     0.252 S 
ATOM     14  O5  IDY d 142     -38.352  -3.512  21.436  0.00  0.00    -0.340 OA
ATOM     15  C6  IDY d 142     -37.048  -5.277  20.659  0.00  0.00     0.206 C 
ATOM     16  C5  IDY d 142     -37.222  -3.778  20.589  0.00  0.00     0.152 C 
ATOM     17  O2  IDY d 142     -40.452  -2.253  19.606  0.00  0.00    -0.244 OA
ATOM     18  OS1 IDY d 142     -42.809  -2.609  20.043  0.00  0.00    -0.572 OA
ATOM     19  H   IDY d 142     -39.170  -0.639  19.951  0.00  0.00     0.097 H 
ATOM     20  H   IDY d 142     -36.416  -3.132  18.790  0.00  0.00     0.092 H 
ATOM     21  H   IDY d 142     -39.790  -2.285  21.817  0.00  0.00     0.133 H 
ATOM     22  H   IDY d 142     -37.631  -0.102  18.711  0.00  0.00     0.210 HD
ATOM     23  H   IDY d 142     -37.422  -0.194  23.489  0.00  0.00     0.066 H 
ATOM     24  H   IDY d 142     -37.850   0.654  22.022  0.00  0.00     0.066 H 
ATOM     25  H   IDY d 142     -36.442  -0.379  22.054  0.00  0.00     0.066 H 
ATOM     26  H   IDY d 142     -38.659  -2.203  18.003  0.00  0.00     0.091 H 
ATOM     27  H   IDY d 142     -36.373  -3.220  20.927  0.00  0.00     0.104 H 
ATOM     28  O4  SGN d 141     -39.493  -8.455  17.995  0.00  0.00    -0.390 OA
ATOM     29  O6  SGN d 141     -36.158  -7.670  15.650  0.00  0.00    -0.254 OA
ATOM     30  O5S SGN d 141     -34.850  -9.612  15.488  0.00  0.00    -0.572 OA
ATOM     31  C2  SGN d 141     -39.608  -5.102  16.652  0.00  0.00     0.081 C 
ATOM     32  C3  SGN d 141     -40.040  -6.344  17.406  0.00  0.00     0.083 C 
ATOM     33  O3  SGN d 141     -41.294  -6.839  16.998  0.00  0.00    -0.391 OA
ATOM     34  O1S SGN d 141     -42.290  -2.500  16.351  0.00  0.00    -0.296 OA
ATOM     35  N   SGN d 141     -40.458  -3.992  17.003  0.00  0.00    -0.210 NA
ATOM     36  C1  SGN d 141     -38.157  -4.781  17.011  0.00  0.00     0.150 C 
ATOM     37  C6  SGN d 141     -36.671  -8.109  16.885  0.00  0.00     0.067 C 
ATOM     38  O2S SGN d 141     -41.420  -4.093  14.849  0.00  0.00    -0.296 OA
ATOM     39  O3S SGN d 141     -40.125  -2.204  15.375  0.00  0.00    -0.296 OA
ATOM     40  S1  SGN d 141     -41.107  -3.132  15.853  0.00  0.00     0.156 S 
ATOM     41  O4S SGN d 141     -34.541  -7.895  13.847  0.00  0.00    -0.572 OA
ATOM     42  O5  SGN d 141     -37.287  -5.865  16.741  0.00  0.00    -0.349 OA
ATOM     43  C4  SGN d 141     -39.057  -7.448  17.129  0.00  0.00     0.089 C 
ATOM     44  O6S SGN d 141     -33.763  -7.582  16.109  0.00  0.00    -0.572 OA
ATOM     45  S2  SGN d 141     -34.762  -8.197  15.245  0.00  0.00     0.251 S 
ATOM     46  C5  SGN d 141     -37.613  -7.051  17.411  0.00  0.00     0.090 C 
ATOM     47  H   SGN d 141     -40.413  -8.684  17.788  0.00  0.00     0.210 HD
ATOM     48  H   SGN d 141     -39.689  -5.274  15.599  0.00  0.00     0.076 H 
ATOM     49  H   SGN d 141     -40.090  -6.062  18.437  0.00  0.00     0.089 H 
ATOM     50  H   SGN d 141     -41.252  -7.096  16.063  0.00  0.00     0.210 HD
ATOM     51  H   SGN d 141     -42.913  -3.177  16.658  0.00  0.00     0.231 HD
ATOM     52  H   SGN d 141     -39.899  -3.356  17.572  0.00  0.00     0.140 HD
ATOM     53  H   SGN d 141     -37.861  -3.952  16.403  0.00  0.00     0.131 H 
ATOM     54  H   SGN d 141     -35.869  -8.256  17.578  0.00  0.00     0.080 H 
ATOM     55  H   SGN d 141     -37.191  -9.035  16.760  0.00  0.00     0.080 H 
ATOM     56  H   SGN d 141     -42.085  -4.711  15.189  0.00  0.00     0.231 HD
ATOM     57  H   SGN d 141     -39.924  -1.559  16.071  0.00  0.00     0.231 HD
ATOM     58  H   SGN d 141     -39.038  -7.734  16.099  0.00  0.00     0.091 H 
ATOM     59  H   SGN d 141     -37.519  -6.931  18.470  0.00  0.00     0.090 H 
ENDROOT
TORSDOF 18
ENDMDL
MODEL 4
REMARK VINA RESULT:      -6.0      2.619      5.052
REMARK  0 active torsions:
REMARK  status: ('A' for Active; 'I' for Inactive)
REMARK       I    between atoms: C2_2  and  O2_34 
REMARK       I    between atoms: O4_3  and  C4_29 
REMARK       I    between atoms: O6_4  and  C6_17 
REMARK       I    between atoms: O6_4  and  S2_35 
REMARK       I    between atoms: C2_6  and  N_15 
REMARK       I    between atoms: O1_8  and  C1_19 
REMARK       I    between atoms: O1_8  and  C7_24 
REMARK       I    between atoms: C4_9  and  O4_22 
REMARK       I    between atoms: C3_10  and  O3_13 
REMARK       I    between atoms: O1S_14  and  S1_21 
REMARK       I    between atoms: N_15  and  S1_21 
REMARK       I    between atoms: C1_16  and  O4_22 
REMARK       I    between atoms: C6_17  and  C5_36 
REMARK       I    between atoms: O2S_18  and  S1_21 
REMARK       I    between atoms: O3S_20  and  S1_21 
REMARK       I    between atoms: O3_23  and  C3_25 
REMARK       I    between atoms: S_28  and  O2_34 
REMARK       I    between atoms: C6_32  and  C5_33 
ROOT
ATOM      1  OS3 IDY d 142     -42.509  -2.391  23.776  0.00  0.00    -0.572 OA
ATOM      2  C2  IDY d 142     -40.872  -4.219  22.218  0.00  0.00     0.134 C 
ATOM      3  O61 IDY d 142     -43.355  -6.703  18.246  0.00  0.00    -0.646 OA
ATOM      4  O1  IDY d 142     -42.524  -5.554  23.086  0.00  0.00    -0.363 OA
ATOM      5  C4  IDY d 142     -40.686  -5.418  20.001  0.00  0.00     0.103 C 
ATOM      6  OS2 IDY d 142     -40.207  -1.701  23.999  0.00  0.00    -0.572 OA
ATOM      7  O62 IDY d 142     -43.300  -4.387  18.502  0.00  0.00    -0.646 OA
ATOM      8  C1  IDY d 142     -42.307  -4.678  22.242  0.00  0.00     0.160 C 
ATOM      9  O4  IDY d 142     -40.503  -4.414  18.891  0.00  0.00    -0.348 OA
ATOM     10  O3  IDY d 142     -39.404  -6.110  21.949  0.00  0.00    -0.390 OA
ATOM     11  C7  IDY d 142     -42.368  -6.623  24.000  0.00  0.00     0.007 C 
ATOM     12  C3  IDY d 142     -40.007  -4.950  21.243  0.00  0.00     0.094 C 
ATOM     13  S   IDY d 142     -41.322  -1.845  23.037  0.00  0.00     0.252 S 
ATOM     14  O5  IDY d 142     -42.907  -4.881  20.979  0.00  0.00    -0.340 OA
ATOM     15  C6  IDY d 142     -42.838  -5.623  18.774  0.00  0.00     0.206 C 
ATOM     16  C5  IDY d 142     -42.163  -5.759  20.120  0.00  0.00     0.152 C 
ATOM     17  O2  IDY d 142     -40.889  -2.800  21.948  0.00  0.00    -0.244 OA
ATOM     18  OS1 IDY d 142     -41.616  -0.539  22.427  0.00  0.00    -0.572 OA
ATOM     19  H   IDY d 142     -40.429  -4.435  23.168  0.00  0.00     0.097 H 
ATOM     20  H   IDY d 142     -40.201  -6.347  19.786  0.00  0.00     0.092 H 
ATOM     21  H   IDY d 142     -42.853  -3.827  22.593  0.00  0.00     0.133 H 
ATOM     22  H   IDY d 142     -38.963  -5.804  22.757  0.00  0.00     0.210 HD
ATOM     23  H   IDY d 142     -43.311  -6.843  24.455  0.00  0.00     0.066 H 
ATOM     24  H   IDY d 142     -41.663  -6.347  24.755  0.00  0.00     0.066 H 
ATOM     25  H   IDY d 142     -42.013  -7.488  23.480  0.00  0.00     0.066 H 
ATOM     26  H   IDY d 142     -39.277  -4.246  20.900  0.00  0.00     0.091 H 
ATOM     27  H   IDY d 142     -42.171  -6.754  20.517  0.00  0.00     0.104 H 
ATOM     28  O4  SGN d 141     -41.939  -2.126  15.590  0.00  0.00    -0.390 OA
ATOM     29  O6  SGN d 141     -39.229  -5.076  14.499  0.00  0.00    -0.254 OA
ATOM     30  O5S SGN d 141     -39.790  -5.894  12.371  0.00  0.00    -0.572 OA
ATOM     31  C2  SGN d 141     -39.334  -2.481  18.071  0.00  0.00     0.081 C 
ATOM     32  C3  SGN d 141     -40.569  -1.940  17.376  0.00  0.00     0.083 C 
ATOM     33  O3  SGN d 141     -40.503  -0.556  17.115  0.00  0.00    -0.391 OA
ATOM     34  O1S SGN d 141     -38.186  -0.398  20.968  0.00  0.00    -0.296 OA
ATOM     35  N   SGN d 141     -39.256  -1.961  19.413  0.00  0.00    -0.210 NA
ATOM     36  C1  SGN d 141     -39.413  -4.007  18.106  0.00  0.00     0.150 C 
ATOM     37  C6  SGN d 141     -40.570  -4.711  14.721  0.00  0.00     0.067 C 
ATOM     38  O2S SGN d 141     -37.422  -0.628  18.751  0.00  0.00    -0.296 OA
ATOM     39  O3S SGN d 141     -37.011  -2.366  20.279  0.00  0.00    -0.296 OA
ATOM     40  S1  SGN d 141     -37.906  -1.312  19.903  0.00  0.00     0.156 S 
ATOM     41  O4S SGN d 141     -37.563  -6.258  13.177  0.00  0.00    -0.572 OA
ATOM     42  O5  SGN d 141     -39.553  -4.567  16.813  0.00  0.00    -0.349 OA
ATOM     43  C4  SGN d 141     -40.701  -2.602  16.032  0.00  0.00     0.089 C 
ATOM     44  O6S SGN d 141     -39.421  -7.478  14.116  0.00  0.00    -0.572 OA
ATOM     45  S2  SGN d 141     -38.973  -6.233  13.506  0.00  0.00     0.251 S 
ATOM     46  C5  SGN d 141     -40.679  -4.123  16.109  0.00  0.00     0.090 C 
ATOM     47  H   SGN d 141     -41.918  -1.156  15.552  0.00  0.00     0.210 HD
ATOM     48  H   SGN d 141     -38.459  -2.177  17.535  0.00  0.00     0.076 H 
ATOM     49  H   SGN d 141     -41.388  -2.136  18.035  0.00  0.00     0.089 H 
ATOM     50  H   SGN d 141     -39.760  -0.375  16.517  0.00  0.00     0.210 HD
ATOM     51  H   SGN d 141     -38.795   0.289  20.653  0.00  0.00     0.231 HD
ATOM     52  H   SGN d 141     -39.463  -2.734  20.045  0.00  0.00     0.140 HD
ATOM     53  H   SGN d 141     -38.494  -4.357  18.527  0.00  0.00     0.131 H 
ATOM     54  H   SGN d 141     -41.197  -5.575  14.644  0.00  0.00     0.080 H 
ATOM     55  H   SGN d 141     -40.883  -3.994  13.991  0.00  0.00     0.080 H 
ATOM     56  H   SGN d 141     -38.040   0.080  18.512  0.00  0.00     0.231 HD
ATOM     57  H   SGN d 141     -37.356  -2.819  21.064  0.00  0.00     0.231 HD
ATOM     58  H   SGN d 141     -39.886  -2.375  15.379  0.00  0.00     0.091 H 
ATOM     59  H   SGN d 141     -41.581  -4.430  16.596  0.00  0.00     0.090 H 
ENDROOT
TORSDOF 18
ENDMDL
MODEL 5
REMARK VINA RESULT:      -5.9      3.167      4.392
REMARK  0 active torsions:
REMARK  status: ('A' for Active; 'I' for Inactive)
REMARK       I    between atoms: C2_2  and  O2_34 
REMARK       I    between atoms: O4_3  and  C4_29 
REMARK       I    between atoms: O6_4  and  C6_17 
REMARK       I    between atoms: O6_4  and  S2_35 
REMARK       I    between atoms: C2_6  and  N_15 
REMARK       I    between atoms: O1_8  and  C1_19 
REMARK       I    between atoms: O1_8  and  C7_24 
REMARK       I    between atoms: C4_9  and  O4_22 
REMARK       I    between atoms: C3_10  and  O3_13 
REMARK       I    between atoms: O1S_14  and  S1_21 
REMARK       I    between atoms: N_15  and  S1_21 
REMARK       I    between atoms: C1_16  and  O4_22 
REMARK       I    between atoms: C6_17  and  C5_36 
REMARK       I    between atoms: O2S_18  and  S1_21 
REMARK       I    between atoms: O3S_20  and  S1_21 
REMARK       I    between atoms: O3_23  and  C3_25 
REMARK       I    between atoms: S_28  and  O2_34 
REMARK       I    between atoms: C6_32  and  C5_33 
ROOT
ATOM      1  OS3 IDY d 142     -42.093  -1.845  21.790  0.00  0.00    -0.572 OA
ATOM      2  C2  IDY d 142     -40.447  -1.975  19.399  0.00  0.00     0.134 C 
ATOM      3  O61 IDY d 142     -36.533  -5.551  19.500  0.00  0.00    -0.646 OA
ATOM      4  O1  IDY d 142     -38.967  -1.420  21.061  0.00  0.00    -0.363 OA
ATOM      5  C4  IDY d 142     -38.851  -3.433  18.088  0.00  0.00     0.103 C 
ATOM      6  OS2 IDY d 142     -43.396  -1.000  19.944  0.00  0.00    -0.572 OA
ATOM      7  O62 IDY d 142     -38.774  -6.062  19.884  0.00  0.00    -0.646 OA
ATOM      8  C1  IDY d 142     -39.645  -2.353  20.617  0.00  0.00     0.160 C 
ATOM      9  O4  IDY d 142     -39.577  -4.650  17.573  0.00  0.00    -0.348 OA
ATOM     10  O3  IDY d 142     -39.000  -1.034  17.717  0.00  0.00    -0.390 OA
ATOM     11  C7  IDY d 142     -38.223  -0.222  21.180  0.00  0.00     0.007 C 
ATOM     12  C3  IDY d 142     -39.760  -2.252  18.100  0.00  0.00     0.094 C 
ATOM     13  S   IDY d 142     -42.742  -2.211  20.487  0.00  0.00     0.252 S 
ATOM     14  O5  IDY d 142     -38.999  -3.608  20.563  0.00  0.00    -0.340 OA
ATOM     15  C6  IDY d 142     -37.804  -5.249  19.424  0.00  0.00     0.206 C 
ATOM     16  C5  IDY d 142     -38.171  -3.783  19.402  0.00  0.00     0.152 C 
ATOM     17  O2  IDY d 142     -41.705  -2.677  19.490  0.00  0.00    -0.244 OA
ATOM     18  OS1 IDY d 142     -43.742  -3.275  20.658  0.00  0.00    -0.572 OA
ATOM     19  H   IDY d 142     -40.585  -0.914  19.395  0.00  0.00     0.097 H 
ATOM     20  H   IDY d 142     -38.059  -3.133  17.434  0.00  0.00     0.092 H 
ATOM     21  H   IDY d 142     -40.380  -2.533  21.374  0.00  0.00     0.133 H 
ATOM     22  H   IDY d 142     -39.594  -0.266  17.725  0.00  0.00     0.210 HD
ATOM     23  H   IDY d 142     -37.876  -0.115  22.187  0.00  0.00     0.066 H 
ATOM     24  H   IDY d 142     -38.846   0.611  20.927  0.00  0.00     0.066 H 
ATOM     25  H   IDY d 142     -37.385  -0.255  20.516  0.00  0.00     0.066 H 
ATOM     26  H   IDY d 142     -40.530  -2.499  17.398  0.00  0.00     0.091 H 
ATOM     27  H   IDY d 142     -37.332  -3.118  19.447  0.00  0.00     0.104 H 
ATOM     28  O4  SGN d 141     -40.562  -8.799  17.703  0.00  0.00    -0.390 OA
ATOM     29  O6  SGN d 141     -38.258  -7.751  14.411  0.00  0.00    -0.254 OA
ATOM     30  O5S SGN d 141     -36.844  -9.540  13.854  0.00  0.00    -0.572 OA
ATOM     31  C2  SGN d 141     -41.500  -5.544  16.442  0.00  0.00     0.081 C 
ATOM     32  C3  SGN d 141     -41.517  -6.792  17.304  0.00  0.00     0.083 C 
ATOM     33  O3  SGN d 141     -42.767  -7.443  17.321  0.00  0.00    -0.391 OA
ATOM     34  O1S SGN d 141     -44.433  -3.277  16.993  0.00  0.00    -0.296 OA
ATOM     35  N   SGN d 141     -42.323  -4.522  17.037  0.00  0.00    -0.210 NA
ATOM     36  C1  SGN d 141     -40.060  -5.047  16.316  0.00  0.00     0.150 C 
ATOM     37  C6  SGN d 141     -38.298  -8.189  15.748  0.00  0.00     0.067 C 
ATOM     38  O2S SGN d 141     -43.897  -4.829  15.304  0.00  0.00    -0.296 OA
ATOM     39  O3S SGN d 141     -42.740  -2.785  15.375  0.00  0.00    -0.296 OA
ATOM     40  S1  SGN d 141     -43.401  -3.794  16.148  0.00  0.00     0.156 S 
ATOM     41  O4S SGN d 141     -37.279  -7.876  12.187  0.00  0.00    -0.572 OA
ATOM     42  O5  SGN d 141     -39.195  -6.037  15.792  0.00  0.00    -0.349 OA
ATOM     43  C4  SGN d 141     -40.547  -7.790  16.736  0.00  0.00     0.089 C 
ATOM     44  O6S SGN d 141     -35.870  -7.375  14.081  0.00  0.00    -0.572 OA
ATOM     45  S2  SGN d 141     -37.009  -8.137  13.585  0.00  0.00     0.251 S 
ATOM     46  C5  SGN d 141     -39.147  -7.220  16.540  0.00  0.00     0.090 C 
ATOM     47  H   SGN d 141     -41.465  -9.139  17.801  0.00  0.00     0.210 HD
ATOM     48  H   SGN d 141     -41.888  -5.773  15.471  0.00  0.00     0.076 H 
ATOM     49  H   SGN d 141     -41.273  -6.470  18.294  0.00  0.00     0.089 H 
ATOM     50  H   SGN d 141     -42.992  -7.736  16.423  0.00  0.00     0.210 HD
ATOM     51  H   SGN d 141     -44.841  -4.005  17.488  0.00  0.00     0.231 HD
ATOM     52  H   SGN d 141     -41.694  -3.803  17.394  0.00  0.00     0.140 HD
ATOM     53  H   SGN d 141     -40.073  -4.218  15.640  0.00  0.00     0.131 H 
ATOM     54  H   SGN d 141     -37.307  -8.213  16.150  0.00  0.00     0.080 H 
ATOM     55  H   SGN d 141     -38.715  -9.173  15.802  0.00  0.00     0.080 H 
ATOM     56  H   SGN d 141     -44.340  -5.502  15.843  0.00  0.00     0.231 HD
ATOM     57  H   SGN d 141     -42.409  -2.090  15.965  0.00  0.00     0.231 HD
ATOM     58  H   SGN d 141     -40.820  -8.118  15.755  0.00  0.00     0.091 H 
ATOM     59  H   SGN d 141     -38.738  -7.042  17.512  0.00  0.00     0.090 H 
ENDROOT
TORSDOF 18
ENDMDL
MODEL 6
REMARK VINA RESULT:      -5.9      2.859      6.565
REMARK  0 active torsions:
REMARK  status: ('A' for Active; 'I' for Inactive)
REMARK       I    between atoms: C2_2  and  O2_34 
REMARK       I    between atoms: O4_3  and  C4_29 
REMARK       I    between atoms: O6_4  and  C6_17 
REMARK       I    between atoms: O6_4  and  S2_35 
REMARK       I    between atoms: C2_6  and  N_15 
REMARK       I    between atoms: O1_8  and  C1_19 
REMARK       I    between atoms: O1_8  and  C7_24 
REMARK       I    between atoms: C4_9  and  O4_22 
REMARK       I    between atoms: C3_10  and  O3_13 
REMARK       I    between atoms: O1S_14  and  S1_21 
REMARK       I    between atoms: N_15  and  S1_21 
REMARK       I    between atoms: C1_16  and  O4_22 
REMARK       I    between atoms: C6_17  and  C5_36 
REMARK       I    between atoms: O2S_18  and  S1_21 
REMARK       I    between atoms: O3S_20  and  S1_21 
REMARK       I    between atoms: O3_23  and  C3_25 
REMARK       I    between atoms: S_28  and  O2_34 
REMARK       I    between atoms: C6_32  and  C5_33 
ROOT
ATOM      1  OS3 IDY d 142     -37.499  -6.872  14.343  0.00  0.00    -0.572 OA
ATOM      2  C2  IDY d 142     -38.879  -6.821  16.901  0.00  0.00     0.134 C 
ATOM      3  O61 IDY d 142     -36.508  -4.026  20.731  0.00  0.00    -0.646 OA
ATOM      4  O1  IDY d 142     -36.852  -7.781  17.383  0.00  0.00    -0.363 OA
ATOM      5  C4  IDY d 142     -39.110  -5.559  19.078  0.00  0.00     0.103 C 
ATOM      6  OS2 IDY d 142     -39.838  -7.300  13.934  0.00  0.00    -0.572 OA
ATOM      7  O62 IDY d 142     -37.061  -3.161  18.639  0.00  0.00    -0.646 OA
ATOM      8  C1  IDY d 142     -37.390  -6.706  17.098  0.00  0.00     0.160 C 
ATOM      9  O4  IDY d 142     -39.685  -4.190  18.816  0.00  0.00    -0.348 OA
ATOM     10  O3  IDY d 142     -39.891  -7.850  18.831  0.00  0.00    -0.390 OA
ATOM     11  C7  IDY d 142     -36.617  -9.098  17.843  0.00  0.00     0.007 C 
ATOM     12  C3  IDY d 142     -39.686  -6.555  18.131  0.00  0.00     0.094 C 
ATOM     13  S   IDY d 142     -38.877  -6.280  14.408  0.00  0.00     0.252 S 
ATOM     14  O5  IDY d 142     -36.955  -5.586  17.841  0.00  0.00    -0.340 OA
ATOM     15  C6  IDY d 142     -37.178  -4.089  19.609  0.00  0.00     0.206 C 
ATOM     16  C5  IDY d 142     -37.594  -5.457  19.121  0.00  0.00     0.152 C 
ATOM     17  O2  IDY d 142     -39.234  -5.918  15.832  0.00  0.00    -0.244 OA
ATOM     18  OS1 IDY d 142     -38.989  -5.074  13.573  0.00  0.00    -0.572 OA
ATOM     19  H   IDY d 142     -39.114  -7.836  16.655  0.00  0.00     0.097 H 
ATOM     20  H   IDY d 142     -39.392  -5.935  20.039  0.00  0.00     0.092 H 
ATOM     21  H   IDY d 142     -37.011  -6.467  16.126  0.00  0.00     0.133 H 
ATOM     22  H   IDY d 142     -40.266  -8.496  18.213  0.00  0.00     0.210 HD
ATOM     23  H   IDY d 142     -35.591  -9.356  17.678  0.00  0.00     0.066 H 
ATOM     24  H   IDY d 142     -37.246  -9.780  17.311  0.00  0.00     0.066 H 
ATOM     25  H   IDY d 142     -36.835  -9.155  18.889  0.00  0.00     0.066 H 
ATOM     26  H   IDY d 142     -40.603  -6.112  17.800  0.00  0.00     0.091 H 
ATOM     27  H   IDY d 142     -37.296  -6.262  19.762  0.00  0.00     0.104 H 
ATOM     28  O4  SGN d 141     -39.330   0.039  18.380  0.00  0.00    -0.390 OA
ATOM     29  O6  SGN d 141     -41.411  -1.100  21.787  0.00  0.00    -0.254 OA
ATOM     30  O5S SGN d 141     -40.999   0.451  23.501  0.00  0.00    -0.572 OA
ATOM     31  C2  SGN d 141     -41.380  -2.868  17.741  0.00  0.00     0.081 C 
ATOM     32  C3  SGN d 141     -40.423  -1.721  17.481  0.00  0.00     0.083 C 
ATOM     33  O3  SGN d 141     -40.847  -0.862  16.447  0.00  0.00    -0.391 OA
ATOM     34  O1S SGN d 141     -42.536  -4.616  14.633  0.00  0.00    -0.296 OA
ATOM     35  N   SGN d 141     -41.376  -3.777  16.622  0.00  0.00    -0.210 NA
ATOM     36  C1  SGN d 141     -40.945  -3.601  19.010  0.00  0.00     0.150 C 
ATOM     37  C6  SGN d 141     -40.174  -0.786  21.195  0.00  0.00     0.067 C 
ATOM     38  O2S SGN d 141     -43.548  -3.038  16.059  0.00  0.00    -0.296 OA
ATOM     39  O3S SGN d 141     -43.311  -5.254  16.805  0.00  0.00    -0.296 OA
ATOM     40  S1  SGN d 141     -42.751  -4.217  15.990  0.00  0.00     0.156 S 
ATOM     41  O4S SGN d 141     -42.934  -0.951  23.678  0.00  0.00    -0.572 OA
ATOM     42  O5  SGN d 141     -40.873  -2.738  20.129  0.00  0.00    -0.349 OA
ATOM     43  C4  SGN d 141     -40.343  -0.865  18.714  0.00  0.00     0.089 C 
ATOM     44  O6S SGN d 141     -40.725  -1.865  24.000  0.00  0.00    -0.572 OA
ATOM     45  S2  SGN d 141     -41.536  -0.870  23.311  0.00  0.00     0.251 S 
ATOM     46  C5  SGN d 141     -39.999  -1.655  19.971  0.00  0.00     0.090 C 
ATOM     47  H   SGN d 141     -39.581   0.524  17.578  0.00  0.00     0.210 HD
ATOM     48  H   SGN d 141     -42.372  -2.487  17.867  0.00  0.00     0.076 H 
ATOM     49  H   SGN d 141     -39.492  -2.170  17.207  0.00  0.00     0.089 H 
ATOM     50  H   SGN d 141     -41.693  -0.453  16.692  0.00  0.00     0.210 HD
ATOM     51  H   SGN d 141     -42.157  -3.875  14.134  0.00  0.00     0.231 HD
ATOM     52  H   SGN d 141     -40.903  -4.626  16.929  0.00  0.00     0.140 HD
ATOM     53  H   SGN d 141     -41.684  -4.349  19.208  0.00  0.00     0.131 H 
ATOM     54  H   SGN d 141     -39.382  -0.975  21.890  0.00  0.00     0.080 H 
ATOM     55  H   SGN d 141     -40.149   0.248  20.919  0.00  0.00     0.080 H 
ATOM     56  H   SGN d 141     -43.154  -2.349  15.502  0.00  0.00     0.231 HD
ATOM     57  H   SGN d 141     -42.756  -6.047  16.746  0.00  0.00     0.231 HD
ATOM     58  H   SGN d 141     -41.277  -0.405  18.958  0.00  0.00     0.091 H 
ATOM     59  H   SGN d 141     -38.988  -1.991  19.868  0.00  0.00     0.090 H 
ENDROOT
TORSDOF 18
ENDMDL
MODEL 7
REMARK VINA RESULT:      -5.8      2.979      4.551
REMARK  0 active torsions:
REMARK  status: ('A' for Active; 'I' for Inactive)
REMARK       I    between atoms: C2_2  and  O2_34 
REMARK       I    between atoms: O4_3  and  C4_29 
REMARK       I    between atoms: O6_4  and  C6_17 
REMARK       I    between atoms: O6_4  and  S2_35 
REMARK       I    between atoms: C2_6  and  N_15 
REMARK       I    between atoms: O1_8  and  C1_19 
REMARK       I    between atoms: O1_8  and  C7_24 
REMARK       I    between atoms: C4_9  and  O4_22 
REMARK       I    between atoms: C3_10  and  O3_13 
REMARK       I    between atoms: O1S_14  and  S1_21 
REMARK       I    between atoms: N_15  and  S1_21 
REMARK       I    between atoms: C1_16  and  O4_22 
REMARK       I    between atoms: C6_17  and  C5_36 
REMARK       I    between atoms: O2S_18  and  S1_21 
REMARK       I    between atoms: O3S_20  and  S1_21 
REMARK       I    between atoms: O3_23  and  C3_25 
REMARK       I    between atoms: S_28  and  O2_34 
REMARK       I    between atoms: C6_32  and  C5_33 
ROOT
ATOM      1  OS3 IDY d 142     -36.563  -1.456  24.000  0.00  0.00    -0.572 OA
ATOM      2  C2  IDY d 142     -36.119  -1.690  21.137  0.00  0.00     0.134 C 
ATOM      3  O61 IDY d 142     -36.250  -6.620  19.192  0.00  0.00    -0.646 OA
ATOM      4  O1  IDY d 142     -34.410  -2.907  22.065  0.00  0.00    -0.363 OA
ATOM      5  C4  IDY d 142     -36.461  -3.185  19.128  0.00  0.00     0.103 C 
ATOM      6  OS2 IDY d 142     -37.161   0.648  22.980  0.00  0.00    -0.572 OA
ATOM      7  O62 IDY d 142     -37.975  -5.664  20.433  0.00  0.00    -0.646 OA
ATOM      8  C1  IDY d 142     -35.628  -2.921  21.854  0.00  0.00     0.160 C 
ATOM      9  O4  IDY d 142     -37.934  -3.329  18.843  0.00  0.00    -0.348 OA
ATOM     10  O3  IDY d 142     -34.858  -1.355  19.112  0.00  0.00    -0.390 OA
ATOM     11  C7  IDY d 142     -33.024  -2.636  21.984  0.00  0.00     0.007 C 
ATOM     12  C3  IDY d 142     -36.163  -1.820  19.648  0.00  0.00     0.094 C 
ATOM     13  S   IDY d 142     -37.525  -0.784  23.063  0.00  0.00     0.252 S 
ATOM     14  O5  IDY d 142     -36.157  -4.149  21.398  0.00  0.00    -0.340 OA
ATOM     15  C6  IDY d 142     -36.852  -5.573  19.694  0.00  0.00     0.206 C 
ATOM     16  C5  IDY d 142     -36.005  -4.355  19.985  0.00  0.00     0.152 C 
ATOM     17  O2  IDY d 142     -37.422  -1.380  21.678  0.00  0.00    -0.244 OA
ATOM     18  OS1 IDY d 142     -38.914  -0.912  23.528  0.00  0.00    -0.572 OA
ATOM     19  H   IDY d 142     -35.422  -0.895  21.305  0.00  0.00     0.097 H 
ATOM     20  H   IDY d 142     -35.872  -3.246  18.236  0.00  0.00     0.092 H 
ATOM     21  H   IDY d 142     -36.069  -2.856  22.827  0.00  0.00     0.133 H 
ATOM     22  H   IDY d 142     -34.666  -0.467  19.452  0.00  0.00     0.210 HD
ATOM     23  H   IDY d 142     -32.509  -3.172  22.754  0.00  0.00     0.066 H 
ATOM     24  H   IDY d 142     -32.858  -1.586  22.108  0.00  0.00     0.066 H 
ATOM     25  H   IDY d 142     -32.655  -2.944  21.028  0.00  0.00     0.066 H 
ATOM     26  H   IDY d 142     -36.986  -1.221  19.317  0.00  0.00     0.091 H 
ATOM     27  H   IDY d 142     -34.970  -4.471  19.740  0.00  0.00     0.104 H 
ATOM     28  O4  SGN d 141     -41.606  -5.499  18.937  0.00  0.00    -0.390 OA
ATOM     29  O6  SGN d 141     -40.063  -5.031  15.111  0.00  0.00    -0.254 OA
ATOM     30  O5S SGN d 141     -40.604  -6.916  13.822  0.00  0.00    -0.572 OA
ATOM     31  C2  SGN d 141     -40.063  -2.254  18.545  0.00  0.00     0.081 C 
ATOM     32  C3  SGN d 141     -40.814  -3.399  19.196  0.00  0.00     0.083 C 
ATOM     33  O3  SGN d 141     -42.089  -3.034  19.671  0.00  0.00    -0.391 OA
ATOM     34  O1S SGN d 141     -40.137   0.929  20.523  0.00  0.00    -0.296 OA
ATOM     35  N   SGN d 141     -39.704  -1.273  19.538  0.00  0.00    -0.210 NA
ATOM     36  C1  SGN d 141     -38.803  -2.803  17.875  0.00  0.00     0.150 C 
ATOM     37  C6  SGN d 141     -40.127  -5.805  16.285  0.00  0.00     0.067 C 
ATOM     38  O2S SGN d 141     -41.304   0.197  18.612  0.00  0.00    -0.296 OA
ATOM     39  O3S SGN d 141     -39.037   0.782  18.403  0.00  0.00    -0.296 OA
ATOM     40  S1  SGN d 141     -40.041   0.243  19.271  0.00  0.00     0.156 S 
ATOM     41  O4S SGN d 141     -40.004  -4.896  12.683  0.00  0.00    -0.572 OA
ATOM     42  O5  SGN d 141     -39.097  -3.817  16.931  0.00  0.00    -0.349 OA
ATOM     43  C4  SGN d 141     -41.055  -4.470  18.168  0.00  0.00     0.089 C 
ATOM     44  O6S SGN d 141     -38.332  -6.192  13.842  0.00  0.00    -0.572 OA
ATOM     45  S2  SGN d 141     -39.728  -5.776  13.798  0.00  0.00     0.251 S 
ATOM     46  C5  SGN d 141     -39.783  -4.918  17.459  0.00  0.00     0.090 C 
ATOM     47  H   SGN d 141     -42.413  -5.181  19.373  0.00  0.00     0.210 HD
ATOM     48  H   SGN d 141     -40.686  -1.786  17.812  0.00  0.00     0.076 H 
ATOM     49  H   SGN d 141     -40.209  -3.720  20.017  0.00  0.00     0.089 H 
ATOM     50  H   SGN d 141     -42.641  -2.742  18.928  0.00  0.00     0.210 HD
ATOM     51  H   SGN d 141     -40.830   0.519  21.065  0.00  0.00     0.231 HD
ATOM     52  H   SGN d 141     -38.694  -1.336  19.668  0.00  0.00     0.140 HD
ATOM     53  H   SGN d 141     -38.342  -1.986  17.359  0.00  0.00     0.131 H 
ATOM     54  H   SGN d 141     -39.428  -6.613  16.224  0.00  0.00     0.080 H 
ATOM     55  H   SGN d 141     -41.110  -6.211  16.405  0.00  0.00     0.080 H 
ATOM     56  H   SGN d 141     -41.970  -0.170  19.214  0.00  0.00     0.231 HD
ATOM     57  H   SGN d 141     -38.187   0.805  18.868  0.00  0.00     0.231 HD
ATOM     58  H   SGN d 141     -41.681  -4.139  17.367  0.00  0.00     0.091 H 
ATOM     59  H   SGN d 141     -39.183  -5.434  18.179  0.00  0.00     0.090 H 
ENDROOT
TORSDOF 18
ENDMDL
MODEL 8
REMARK VINA RESULT:      -5.8      3.021      5.375
REMARK  0 active torsions:
REMARK  status: ('A' for Active; 'I' for Inactive)
REMARK       I    between atoms: C2_2  and  O2_34 
REMARK       I    between atoms: O4_3  and  C4_29 
REMARK       I    between atoms: O6_4  and  C6_17 
REMARK       I    between atoms: O6_4  and  S2_35 
REMARK       I    between atoms: C2_6  and  N_15 
REMARK       I    between atoms: O1_8  and  C1_19 
REMARK       I    between atoms: O1_8  and  C7_24 
REMARK       I    between atoms: C4_9  and  O4_22 
REMARK       I    between atoms: C3_10  and  O3_13 
REMARK       I    between atoms: O1S_14  and  S1_21 
REMARK       I    between atoms: N_15  and  S1_21 
REMARK       I    between atoms: C1_16  and  O4_22 
REMARK       I    between atoms: C6_17  and  C5_36 
REMARK       I    between atoms: O2S_18  and  S1_21 
REMARK       I    between atoms: O3S_20  and  S1_21 
REMARK       I    between atoms: O3_23  and  C3_25 
REMARK       I    between atoms: S_28  and  O2_34 
REMARK       I    between atoms: C6_32  and  C5_33 
ROOT
ATOM      1  OS3 IDY d 142     -34.761  -0.672  21.928  0.00  0.00    -0.572 OA
ATOM      2  C2  IDY d 142     -37.465  -1.685  22.255  0.00  0.00     0.134 C 
ATOM      3  O61 IDY d 142     -41.129   0.500  19.107  0.00  0.00    -0.646 OA
ATOM      4  O1  IDY d 142     -37.645   0.548  22.751  0.00  0.00    -0.363 OA
ATOM      5  C4  IDY d 142     -39.721  -1.899  21.135  0.00  0.00     0.103 C 
ATOM      6  OS2 IDY d 142     -34.615  -2.895  22.856  0.00  0.00    -0.572 OA
ATOM      7  O62 IDY d 142     -39.171  -0.496  18.330  0.00  0.00    -0.646 OA
ATOM      8  C1  IDY d 142     -37.487  -0.244  21.816  0.00  0.00     0.160 C 
ATOM      9  O4  IDY d 142     -39.607  -2.787  19.923  0.00  0.00    -0.348 OA
ATOM     10  O3  IDY d 142     -39.444  -2.186  23.535  0.00  0.00    -0.390 OA
ATOM     11  C7  IDY d 142     -37.999   1.123  23.995  0.00  0.00     0.007 C 
ATOM     12  C3  IDY d 142     -38.797  -2.363  22.209  0.00  0.00     0.094 C 
ATOM     13  S   IDY d 142     -35.025  -2.126  21.660  0.00  0.00     0.252 S 
ATOM     14  O5  IDY d 142     -38.232   0.031  20.648  0.00  0.00    -0.340 OA
ATOM     15  C6  IDY d 142     -40.094  -0.280  19.286  0.00  0.00     0.206 C 
ATOM     16  C5  IDY d 142     -39.586  -0.448  20.700  0.00  0.00     0.152 C 
ATOM     17  O2  IDY d 142     -36.499  -2.364  21.425  0.00  0.00    -0.244 OA
ATOM     18  OS1 IDY d 142     -34.278  -2.606  20.487  0.00  0.00    -0.572 OA
ATOM     19  H   IDY d 142     -37.194  -1.722  23.290  0.00  0.00     0.097 H 
ATOM     20  H   IDY d 142     -40.687  -1.964  21.591  0.00  0.00     0.092 H 
ATOM     21  H   IDY d 142     -36.491  -0.056  21.472  0.00  0.00     0.133 H 
ATOM     22  H   IDY d 142     -38.841  -2.489  24.232  0.00  0.00     0.210 HD
ATOM     23  H   IDY d 142     -37.697   2.150  24.012  0.00  0.00     0.066 H 
ATOM     24  H   IDY d 142     -37.510   0.593  24.785  0.00  0.00     0.066 H 
ATOM     25  H   IDY d 142     -39.059   1.061  24.127  0.00  0.00     0.066 H 
ATOM     26  H   IDY d 142     -38.605  -3.389  21.973  0.00  0.00     0.091 H 
ATOM     27  H   IDY d 142     -40.140   0.099  21.434  0.00  0.00     0.104 H 
ATOM     28  O4  SGN d 141     -39.366  -3.421  15.711  0.00  0.00    -0.390 OA
ATOM     29  O6  SGN d 141     -42.932  -4.742  17.378  0.00  0.00    -0.254 OA
ATOM     30  O5S SGN d 141     -44.666  -4.458  15.821  0.00  0.00    -0.572 OA
ATOM     31  C2  SGN d 141     -38.820  -4.855  18.984  0.00  0.00     0.081 C 
ATOM     32  C3  SGN d 141     -38.510  -4.213  17.646  0.00  0.00     0.083 C 
ATOM     33  O3  SGN d 141     -37.585  -4.946  16.875  0.00  0.00    -0.391 OA
ATOM     34  O1S SGN d 141     -35.783  -5.998  20.861  0.00  0.00    -0.296 OA
ATOM     35  N   SGN d 141     -37.661  -4.799  19.838  0.00  0.00    -0.210 NA
ATOM     36  C1  SGN d 141     -39.984  -4.108  19.636  0.00  0.00     0.150 C 
ATOM     37  C6  SGN d 141     -42.212  -3.691  16.779  0.00  0.00     0.067 C 
ATOM     38  O2S SGN d 141     -37.408  -7.134  19.588  0.00  0.00    -0.296 OA
ATOM     39  O3S SGN d 141     -37.995  -6.325  21.714  0.00  0.00    -0.296 OA
ATOM     40  S1  SGN d 141     -37.177  -6.115  20.557  0.00  0.00     0.156 S 
ATOM     41  O4S SGN d 141     -45.000  -6.001  17.624  0.00  0.00    -0.572 OA
ATOM     42  O5  SGN d 141     -41.133  -4.081  18.809  0.00  0.00    -0.349 OA
ATOM     43  C4  SGN d 141     -39.770  -4.161  16.827  0.00  0.00     0.089 C 
ATOM     44  O6S SGN d 141     -45.000  -3.622  18.030  0.00  0.00    -0.572 OA
ATOM     45  S2  SGN d 141     -44.470  -4.714  17.223  0.00  0.00     0.251 S 
ATOM     46  C5  SGN d 141     -40.930  -3.492  17.554  0.00  0.00     0.090 C 
ATOM     47  H   SGN d 141     -38.629  -3.875  15.273  0.00  0.00     0.210 HD
ATOM     48  H   SGN d 141     -39.087  -5.881  18.837  0.00  0.00     0.076 H 
ATOM     49  H   SGN d 141     -38.101  -3.250  17.868  0.00  0.00     0.089 H 
ATOM     50  H   SGN d 141     -37.953  -5.820  16.672  0.00  0.00     0.210 HD
ATOM     51  H   SGN d 141     -35.284  -5.858  20.041  0.00  0.00     0.231 HD
ATOM     52  H   SGN d 141     -37.861  -4.116  20.569  0.00  0.00     0.140 HD
ATOM     53  H   SGN d 141     -40.229  -4.634  20.535  0.00  0.00     0.131 H 
ATOM     54  H   SGN d 141     -42.794  -2.793  16.806  0.00  0.00     0.080 H 
ATOM     55  H   SGN d 141     -41.994  -3.928  15.759  0.00  0.00     0.080 H 
ATOM     56  H   SGN d 141     -36.846  -6.976  18.813  0.00  0.00     0.231 HD
ATOM     57  H   SGN d 141     -37.825  -5.623  22.361  0.00  0.00     0.231 HD
ATOM     58  H   SGN d 141     -40.151  -5.132  16.594  0.00  0.00     0.091 H 
ATOM     59  H   SGN d 141     -40.687  -2.455  17.653  0.00  0.00     0.090 H 
ENDROOT
TORSDOF 18
ENDMDL
MODEL 9
REMARK VINA RESULT:      -5.8      3.061      3.736
REMARK  0 active torsions:
REMARK  status: ('A' for Active; 'I' for Inactive)
REMARK       I    between atoms: C2_2  and  O2_34 
REMARK       I    between atoms: O4_3  and  C4_29 
REMARK       I    between atoms: O6_4  and  C6_17 
REMARK       I    between atoms: O6_4  and  S2_35 
REMARK       I    between atoms: C2_6  and  N_15 
REMARK       I    between atoms: O1_8  and  C1_19 
REMARK       I    between atoms: O1_8  and  C7_24 
REMARK       I    between atoms: C4_9  and  O4_22 
REMARK       I    between atoms: C3_10  and  O3_13 
REMARK       I    between atoms: O1S_14  and  S1_21 
REMARK       I    between atoms: N_15  and  S1_21 
REMARK       I    between atoms: C1_16  and  O4_22 
REMARK       I    between atoms: C6_17  and  C5_36 
REMARK       I    between atoms: O2S_18  and  S1_21 
REMARK       I    between atoms: O3S_20  and  S1_21 
REMARK       I    between atoms: O3_23  and  C3_25 
REMARK       I    between atoms: S_28  and  O2_34 
REMARK       I    between atoms: C6_32  and  C5_33 
ROOT
ATOM      1  OS3 IDY d 142     -41.033  -0.505  21.448  0.00  0.00    -0.572 OA
ATOM      2  C2  IDY d 142     -38.809  -1.614  19.940  0.00  0.00     0.134 C 
ATOM      3  O61 IDY d 142     -36.669  -6.038  21.929  0.00  0.00    -0.646 OA
ATOM      4  O1  IDY d 142     -37.908  -1.150  21.998  0.00  0.00    -0.363 OA
ATOM      5  C4  IDY d 142     -37.466  -3.713  19.518  0.00  0.00     0.103 C 
ATOM      6  OS2 IDY d 142     -41.233   0.250  19.164  0.00  0.00    -0.572 OA
ATOM      7  O62 IDY d 142     -38.932  -5.797  21.428  0.00  0.00    -0.646 OA
ATOM      8  C1  IDY d 142     -38.666  -1.927  21.406  0.00  0.00     0.160 C 
ATOM      9  O4  IDY d 142     -38.340  -4.757  18.870  0.00  0.00    -0.348 OA
ATOM     10  O3  IDY d 142     -36.638  -1.511  18.901  0.00  0.00    -0.390 OA
ATOM     11  C7  IDY d 142     -36.887  -0.216  22.294  0.00  0.00     0.007 C 
ATOM     12  C3  IDY d 142     -37.854  -2.350  19.056  0.00  0.00     0.094 C 
ATOM     13  S   IDY d 142     -41.270  -0.947  20.033  0.00  0.00     0.252 S 
ATOM     14  O5  IDY d 142     -38.517  -3.294  21.731  0.00  0.00    -0.340 OA
ATOM     15  C6  IDY d 142     -37.646  -5.413  21.323  0.00  0.00     0.206 C 
ATOM     16  C5  IDY d 142     -37.452  -3.945  21.021  0.00  0.00     0.152 C 
ATOM     17  O2  IDY d 142     -40.180  -1.894  19.582  0.00  0.00    -0.244 OA
ATOM     18  OS1 IDY d 142     -42.569  -1.621  19.885  0.00  0.00    -0.572 OA
ATOM     19  H   IDY d 142     -38.562  -0.585  19.784  0.00  0.00     0.097 H 
ATOM     20  H   IDY d 142     -36.444  -3.799  19.213  0.00  0.00     0.092 H 
ATOM     21  H   IDY d 142     -39.632  -1.722  21.818  0.00  0.00     0.133 H 
ATOM     22  H   IDY d 142     -36.893  -0.624  18.600  0.00  0.00     0.210 HD
ATOM     23  H   IDY d 142     -36.899   0.005  23.341  0.00  0.00     0.066 H 
ATOM     24  H   IDY d 142     -37.054   0.683  21.738  0.00  0.00     0.066 H 
ATOM     25  H   IDY d 142     -35.937  -0.629  22.028  0.00  0.00     0.066 H 
ATOM     26  H   IDY d 142     -38.366  -2.517  18.131  0.00  0.00     0.091 H 
ATOM     27  H   IDY d 142     -36.507  -3.552  21.338  0.00  0.00     0.104 H 
ATOM     28  O4  SGN d 141     -40.675  -8.325  18.974  0.00  0.00    -0.390 OA
ATOM     29  O6  SGN d 141     -37.159  -8.717  16.801  0.00  0.00    -0.254 OA
ATOM     30  O5S SGN d 141     -36.350 -10.909  17.025  0.00  0.00    -0.572 OA
ATOM     31  C2  SGN d 141     -39.929  -5.295  17.150  0.00  0.00     0.081 C 
ATOM     32  C3  SGN d 141     -40.675  -6.267  18.043  0.00  0.00     0.083 C 
ATOM     33  O3  SGN d 141     -41.995  -6.518  17.617  0.00  0.00    -0.391 OA
ATOM     34  O1S SGN d 141     -41.894  -2.228  16.267  0.00  0.00    -0.296 OA
ATOM     35  N   SGN d 141     -40.501  -3.978  17.269  0.00  0.00    -0.210 NA
ATOM     36  C1  SGN d 141     -38.458  -5.265  17.567  0.00  0.00     0.150 C 
ATOM     37  C6  SGN d 141     -37.811  -8.822  18.044  0.00  0.00     0.067 C 
ATOM     38  O2S SGN d 141     -41.374  -4.198  15.086  0.00  0.00    -0.296 OA
ATOM     39  O3S SGN d 141     -39.685  -2.600  15.427  0.00  0.00    -0.296 OA
ATOM     40  S1  SGN d 141     -40.879  -3.187  15.959  0.00  0.00     0.156 S 
ATOM     41  O4S SGN d 141     -35.574  -9.596  15.178  0.00  0.00    -0.572 OA
ATOM     42  O5  SGN d 141     -37.864  -6.549  17.526  0.00  0.00    -0.349 OA
ATOM     43  C4  SGN d 141     -39.976  -7.598  18.006  0.00  0.00     0.089 C 
ATOM     44  O6S SGN d 141     -34.833  -9.113  17.423  0.00  0.00    -0.572 OA
ATOM     45  S2  SGN d 141     -35.916  -9.611  16.585  0.00  0.00     0.251 S 
ATOM     46  C5  SGN d 141     -38.492  -7.505  18.336  0.00  0.00     0.090 C 
ATOM     47  H   SGN d 141     -41.614  -8.366  18.733  0.00  0.00     0.210 HD
ATOM     48  H   SGN d 141     -40.008  -5.611  16.130  0.00  0.00     0.076 H 
ATOM     49  H   SGN d 141     -40.697  -5.820  19.014  0.00  0.00     0.089 H 
ATOM     50  H   SGN d 141     -41.979  -6.925  16.736  0.00  0.00     0.210 HD
ATOM     51  H   SGN d 141     -42.674  -2.685  16.622  0.00  0.00     0.231 HD
ATOM     52  H   SGN d 141     -39.829  -3.406  17.780  0.00  0.00     0.140 HD
ATOM     53  H   SGN d 141     -37.948  -4.636  16.869  0.00  0.00     0.131 H 
ATOM     54  H   SGN d 141     -37.095  -9.038  18.810  0.00  0.00     0.080 H 
ATOM     55  H   SGN d 141     -38.532  -9.612  18.016  0.00  0.00     0.080 H 
ATOM     56  H   SGN d 141     -42.181  -4.583  15.461  0.00  0.00     0.231 HD
ATOM     57  H   SGN d 141     -39.363  -1.916  16.034  0.00  0.00     0.231 HD
ATOM     58  H   SGN d 141     -39.986  -8.042  17.033  0.00  0.00     0.091 H 
ATOM     59  H   SGN d 141     -38.412  -7.242  19.370  0.00  0.00     0.090 H 
ENDROOT
TORSDOF 18
ENDMDL
MODEL 10
REMARK VINA RESULT:      -5.7      4.091      5.746
REMARK  0 active torsions:
REMARK  status: ('A' for Active; 'I' for Inactive)
REMARK       I    between atoms: C2_2  and  O2_34 
REMARK       I    between atoms: O4_3  and  C4_29 
REMARK       I    between atoms: O6_4  and  C6_17 
REMARK       I    between atoms: O6_4  and  S2_35 
REMARK       I    between atoms: C2_6  and  N_15 
REMARK       I    between atoms: O1_8  and  C1_19 
REMARK       I    between atoms: O1_8  and  C7_24 
REMARK       I    between atoms: C4_9  and  O4_22 
REMARK       I    between atoms: C3_10  and  O3_13 
REMARK       I    between atoms: O1S_14  and  S1_21 
REMARK       I    between atoms: N_15  and  S1_21 
REMARK       I    between atoms: C1_16  and  O4_22 
REMARK       I    between atoms: C6_17  and  C5_36 
REMARK       I    between atoms: O2S_18  and  S1_21 
REMARK       I    between atoms: O3S_20  and  S1_21 
REMARK       I    between atoms: O3_23  and  C3_25 
REMARK       I    between atoms: S_28  and  O2_34 
REMARK       I    between atoms: C6_32  and  C5_33 
ROOT
ATOM      1  OS3 IDY d 142     -43.622  -3.165  17.343  0.00  0.00    -0.572 OA
ATOM      2  C2  IDY d 142     -40.724  -3.276  17.152  0.00  0.00     0.134 C 
ATOM      3  O61 IDY d 142     -38.290  -6.169  20.869  0.00  0.00    -0.646 OA
ATOM      4  O1  IDY d 142     -41.109  -2.332  19.208  0.00  0.00    -0.363 OA
ATOM      5  C4  IDY d 142     -38.676  -4.591  17.834  0.00  0.00     0.103 C 
ATOM      6  OS2 IDY d 142     -43.010  -2.722  15.051  0.00  0.00    -0.572 OA
ATOM      7  O62 IDY d 142     -39.979  -6.982  19.485  0.00  0.00    -0.646 OA
ATOM      8  C1  IDY d 142     -41.167  -3.399  18.586  0.00  0.00     0.160 C 
ATOM      9  O4  IDY d 142     -38.704  -5.952  17.185  0.00  0.00    -0.348 OA
ATOM     10  O3  IDY d 142     -38.526  -2.293  17.049  0.00  0.00    -0.390 OA
ATOM     11  C7  IDY d 142     -40.760  -1.027  19.629  0.00  0.00     0.007 C 
ATOM     12  C3  IDY d 142     -39.275  -3.571  16.927  0.00  0.00     0.094 C 
ATOM     13  S   IDY d 142     -43.002  -3.755  16.110  0.00  0.00     0.252 S 
ATOM     14  O5  IDY d 142     -40.697  -4.537  19.279  0.00  0.00    -0.340 OA
ATOM     15  C6  IDY d 142     -39.030  -6.078  19.794  0.00  0.00     0.206 C 
ATOM     16  C5  IDY d 142     -39.270  -4.696  19.229  0.00  0.00     0.152 C 
ATOM     17  O2  IDY d 142     -41.567  -4.152  16.374  0.00  0.00    -0.244 OA
ATOM     18  OS1 IDY d 142     -43.739  -4.941  15.646  0.00  0.00    -0.572 OA
ATOM     19  H   IDY d 142     -40.828  -2.255  16.849  0.00  0.00     0.097 H 
ATOM     20  H   IDY d 142     -37.677  -4.238  17.982  0.00  0.00     0.092 H 
ATOM     21  H   IDY d 142     -42.214  -3.615  18.524  0.00  0.00     0.133 H 
ATOM     22  H   IDY d 142     -38.918  -1.631  16.458  0.00  0.00     0.210 HD
ATOM     23  H   IDY d 142     -41.332  -0.768  20.496  0.00  0.00     0.066 H 
ATOM     24  H   IDY d 142     -40.968  -0.331  18.843  0.00  0.00     0.066 H 
ATOM     25  H   IDY d 142     -39.718  -0.996  19.867  0.00  0.00     0.066 H 
ATOM     26  H   IDY d 142     -39.203  -4.004  15.951  0.00  0.00     0.091 H 
ATOM     27  H   IDY d 142     -38.795  -3.908  19.776  0.00  0.00     0.104 H 
ATOM     28  O4  SGN d 141     -39.339 -10.169  17.276  0.00  0.00    -0.390 OA
ATOM     29  O6  SGN d 141     -35.351  -9.111  16.816  0.00  0.00    -0.254 OA
ATOM     30  O5S SGN d 141     -33.998 -10.704  17.886  0.00  0.00    -0.572 OA
ATOM     31  C2  SGN d 141     -39.003  -7.243  15.181  0.00  0.00     0.081 C 
ATOM     32  C3  SGN d 141     -39.663  -8.386  15.929  0.00  0.00     0.083 C 
ATOM     33  O3  SGN d 141     -40.444  -9.218  15.103  0.00  0.00    -0.391 OA
ATOM     34  O1S SGN d 141     -41.309  -5.417  12.857  0.00  0.00    -0.296 OA
ATOM     35  N   SGN d 141     -40.002  -6.308  14.730  0.00  0.00    -0.210 NA
ATOM     36  C1  SGN d 141     -38.016  -6.542  16.114  0.00  0.00     0.150 C 
ATOM     37  C6  SGN d 141     -36.411  -9.412  17.691  0.00  0.00     0.067 C 
ATOM     38  O2S SGN d 141     -39.625  -7.028  12.512  0.00  0.00    -0.296 OA
ATOM     39  O3S SGN d 141     -38.998  -4.832  13.065  0.00  0.00    -0.296 OA
ATOM     40  S1  SGN d 141     -39.995  -5.849  13.222  0.00  0.00     0.156 S 
ATOM     41  O4S SGN d 141     -33.000  -9.303  16.217  0.00  0.00    -0.572 OA
ATOM     42  O5  SGN d 141     -37.047  -7.433  16.635  0.00  0.00    -0.349 OA
ATOM     43  C4  SGN d 141     -38.594  -9.272  16.506  0.00  0.00     0.089 C 
ATOM     44  O6S SGN d 141     -33.609  -8.402  18.371  0.00  0.00    -0.572 OA
ATOM     45  S2  SGN d 141     -33.919  -9.378  17.334  0.00  0.00     0.251 S 
ATOM     46  C5  SGN d 141     -37.578  -8.514  17.351  0.00  0.00     0.090 C 
ATOM     47  H   SGN d 141     -39.974 -10.634  16.708  0.00  0.00     0.210 HD
ATOM     48  H   SGN d 141     -38.483  -7.626  14.327  0.00  0.00     0.076 H 
ATOM     49  H   SGN d 141     -40.290  -7.932  16.667  0.00  0.00     0.089 H 
ATOM     50  H   SGN d 141     -39.878  -9.632  14.431  0.00  0.00     0.210 HD
ATOM     51  H   SGN d 141     -41.936  -6.147  12.985  0.00  0.00     0.231 HD
ATOM     52  H   SGN d 141     -39.902  -5.467  15.298  0.00  0.00     0.140 HD
ATOM     53  H   SGN d 141     -37.512  -5.798  15.534  0.00  0.00     0.131 H 
ATOM     54  H   SGN d 141     -36.106  -9.242  18.702  0.00  0.00     0.080 H 
ATOM     55  H   SGN d 141     -36.694 -10.439  17.587  0.00  0.00     0.080 H 
ATOM     56  H   SGN d 141     -40.310  -7.705  12.630  0.00  0.00     0.231 HD
ATOM     57  H   SGN d 141     -39.266  -4.039  13.554  0.00  0.00     0.231 HD
ATOM     58  H   SGN d 141     -37.993  -9.736  15.753  0.00  0.00     0.091 H 
ATOM     59  H   SGN d 141     -38.085  -8.178  18.231  0.00  0.00     0.090 H 
ENDROOT
TORSDOF 18
ENDMDL
MODEL 11
REMARK VINA RESULT:      -5.6      2.601      7.603
REMARK  0 active torsions:
REMARK  status: ('A' for Active; 'I' for Inactive)
REMARK       I    between atoms: C2_2  and  O2_34 
REMARK       I    between atoms: O4_3  and  C4_29 
REMARK       I    between atoms: O6_4  and  C6_17 
REMARK       I    between atoms: O6_4  and  S2_35 
REMARK       I    between atoms: C2_6  and  N_15 
REMARK       I    between atoms: O1_8  and  C1_19 
REMARK       I    between atoms: O1_8  and  C7_24 
REMARK       I    between atoms: C4_9  and  O4_22 
REMARK       I    between atoms: C3_10  and  O3_13 
REMARK       I    between atoms: O1S_14  and  S1_21 
REMARK       I    between atoms: N_15  and  S1_21 
REMARK       I    between atoms: C1_16  and  O4_22 
REMARK       I    between atoms: C6_17  and  C5_36 
REMARK       I    between atoms: O2S_18  and  S1_21 
REMARK       I    between atoms: O3S_20  and  S1_21 
REMARK       I    between atoms: O3_23  and  C3_25 
REMARK       I    between atoms: S_28  and  O2_34 
REMARK       I    between atoms: C6_32  and  C5_33 
ROOT
ATOM      1  OS3 IDY d 142     -43.581  -7.854  14.450  0.00  0.00    -0.572 OA
ATOM      2  C2  IDY d 142     -41.255  -6.955  15.942  0.00  0.00     0.134 C 
ATOM      3  O61 IDY d 142     -40.100  -1.799  15.500  0.00  0.00    -0.646 OA
ATOM      4  O1  IDY d 142     -40.728  -6.489  13.758  0.00  0.00    -0.363 OA
ATOM      5  C4  IDY d 142     -40.118  -4.928  16.936  0.00  0.00     0.103 C 
ATOM      6  OS2 IDY d 142     -43.234  -9.387  16.281  0.00  0.00    -0.572 OA
ATOM      7  O62 IDY d 142     -42.174  -2.616  16.182  0.00  0.00    -0.646 OA
ATOM      8  C1  IDY d 142     -41.442  -6.125  14.698  0.00  0.00     0.160 C 
ATOM      9  O4  IDY d 142     -40.966  -4.361  18.046  0.00  0.00    -0.348 OA
ATOM     10  O3  IDY d 142     -38.924  -7.013  16.552  0.00  0.00    -0.390 OA
ATOM     11  C7  IDY d 142     -39.681  -7.053  12.991  0.00  0.00     0.007 C 
ATOM     12  C3  IDY d 142     -40.240  -6.413  16.896  0.00  0.00     0.094 C 
ATOM     13  S   IDY d 142     -43.586  -7.990  15.945  0.00  0.00     0.252 S 
ATOM     14  O5  IDY d 142     -41.527  -4.729  14.898  0.00  0.00    -0.340 OA
ATOM     15  C6  IDY d 142     -40.855  -2.767  15.954  0.00  0.00     0.206 C 
ATOM     16  C5  IDY d 142     -40.429  -4.184  15.647  0.00  0.00     0.152 C 
ATOM     17  O2  IDY d 142     -42.551  -7.078  16.565  0.00  0.00    -0.244 OA
ATOM     18  OS1 IDY d 142     -44.902  -7.664  16.516  0.00  0.00    -0.572 OA
ATOM     19  H   IDY d 142     -40.859  -7.908  15.660  0.00  0.00     0.097 H 
ATOM     20  H   IDY d 142     -39.074  -4.767  17.106  0.00  0.00     0.092 H 
ATOM     21  H   IDY d 142     -42.439  -6.347  14.378  0.00  0.00     0.133 H 
ATOM     22  H   IDY d 142     -39.006  -7.979  16.527  0.00  0.00     0.210 HD
ATOM     23  H   IDY d 142     -39.873  -6.890  11.951  0.00  0.00     0.066 H 
ATOM     24  H   IDY d 142     -39.624  -8.104  13.182  0.00  0.00     0.066 H 
ATOM     25  H   IDY d 142     -38.754  -6.592  13.259  0.00  0.00     0.066 H 
ATOM     26  H   IDY d 142     -40.575  -6.681  17.877  0.00  0.00     0.091 H 
ATOM     27  H   IDY d 142     -39.525  -4.258  15.077  0.00  0.00     0.104 H 
ATOM     28  O4  SGN d 141     -43.690  -1.483  19.627  0.00  0.00    -0.390 OA
ATOM     29  O6  SGN d 141     -39.887  -1.236  21.276  0.00  0.00    -0.254 OA
ATOM     30  O5S SGN d 141     -39.410   1.004  21.789  0.00  0.00    -0.572 OA
ATOM     31  C2  SGN d 141     -42.238  -4.766  20.044  0.00  0.00     0.081 C 
ATOM     32  C3  SGN d 141     -43.257  -3.699  19.699  0.00  0.00     0.083 C 
ATOM     33  O3  SGN d 141     -44.487  -3.863  20.367  0.00  0.00    -0.391 OA
ATOM     34  O1S SGN d 141     -43.604  -8.256  19.962  0.00  0.00    -0.296 OA
ATOM     35  N   SGN d 141     -42.658  -6.039  19.516  0.00  0.00    -0.210 NA
ATOM     36  C1  SGN d 141     -40.886  -4.374  19.447  0.00  0.00     0.150 C 
ATOM     37  C6  SGN d 141     -40.780  -0.823  20.269  0.00  0.00     0.067 C 
ATOM     38  O2S SGN d 141     -43.103  -6.767  21.718  0.00  0.00    -0.296 OA
ATOM     39  O3S SGN d 141     -41.334  -7.800  20.566  0.00  0.00    -0.296 OA
ATOM     40  S1  SGN d 141     -42.671  -7.296  20.467  0.00  0.00     0.156 S 
ATOM     41  O4S SGN d 141     -38.131  -0.707  22.874  0.00  0.00    -0.572 OA
ATOM     42  O5  SGN d 141     -40.455  -3.100  19.888  0.00  0.00    -0.349 OA
ATOM     43  C4  SGN d 141     -42.731  -2.361  20.140  0.00  0.00     0.089 C 
ATOM     44  O6S SGN d 141     -37.795  -0.223  20.534  0.00  0.00    -0.572 OA
ATOM     45  S2  SGN d 141     -38.743  -0.262  21.640  0.00  0.00     0.251 S 
ATOM     46  C5  SGN d 141     -41.340  -2.055  19.597  0.00  0.00     0.090 C 
ATOM     47  H   SGN d 141     -44.560  -1.705  19.993  0.00  0.00     0.210 HD
ATOM     48  H   SGN d 141     -42.151  -4.850  21.108  0.00  0.00     0.076 H 
ATOM     49  H   SGN d 141     -43.416  -3.772  18.644  0.00  0.00     0.089 H 
ATOM     50  H   SGN d 141     -44.347  -3.797  21.325  0.00  0.00     0.210 HD
ATOM     51  H   SGN d 141     -44.488  -7.856  19.918  0.00  0.00     0.231 HD
ATOM     52  H   SGN d 141     -42.036  -6.260  18.738  0.00  0.00     0.140 HD
ATOM     53  H   SGN d 141     -40.176  -5.103  19.777  0.00  0.00     0.131 H 
ATOM     54  H   SGN d 141     -40.261  -0.223  19.550  0.00  0.00     0.080 H 
ATOM     55  H   SGN d 141     -41.571  -0.242  20.693  0.00  0.00     0.080 H 
ATOM     56  H   SGN d 141     -44.008  -6.431  21.632  0.00  0.00     0.231 HD
ATOM     57  H   SGN d 141     -41.058  -8.154  19.706  0.00  0.00     0.231 HD
ATOM     58  H   SGN d 141     -42.602  -2.298  21.200  0.00  0.00     0.091 H 
ATOM     59  H   SGN d 141     -41.436  -1.918  18.540  0.00  0.00     0.090 H 
ENDROOT
TORSDOF 18
ENDMDL
MODEL 12
REMARK VINA RESULT:      -5.6      2.757      6.544
REMARK  0 active torsions:
REMARK  status: ('A' for Active; 'I' for Inactive)
REMARK       I    between atoms: C2_2  and  O2_34 
REMARK       I    between atoms: O4_3  and  C4_29 
REMARK       I    between atoms: O6_4  and  C6_17 
REMARK       I    between atoms: O6_4  and  S2_35 
REMARK       I    between atoms: C2_6  and  N_15 
REMARK       I    between atoms: O1_8  and  C1_19 
REMARK       I    between atoms: O1_8  and  C7_24 
REMARK       I    between atoms: C4_9  and  O4_22 
REMARK       I    between atoms: C3_10  and  O3_13 
REMARK       I    between atoms: O1S_14  and  S1_21 
REMARK       I    between atoms: N_15  and  S1_21 
REMARK       I    between atoms: C1_16  and  O4_22 
REMARK       I    between atoms: C6_17  and  C5_36 
REMARK       I    between atoms: O2S_18  and  S1_21 
REMARK       I    between atoms: O3S_20  and  S1_21 
REMARK       I    between atoms: O3_23  and  C3_25 
REMARK       I    between atoms: S_28  and  O2_34 
REMARK       I    between atoms: C6_32  and  C5_33 
ROOT
ATOM      1  OS3 IDY d 142     -37.980  -8.137  16.786  0.00  0.00    -0.572 OA
ATOM      2  C2  IDY d 142     -40.463  -7.148  17.927  0.00  0.00     0.134 C 
ATOM      3  O61 IDY d 142     -40.277  -5.872  23.070  0.00  0.00    -0.646 OA
ATOM      4  O1  IDY d 142     -40.002  -9.033  19.151  0.00  0.00    -0.363 OA
ATOM      5  C4  IDY d 142     -41.454  -5.818  19.835  0.00  0.00     0.103 C 
ATOM      6  OS2 IDY d 142     -39.310  -7.225  14.992  0.00  0.00    -0.572 OA
ATOM      7  O62 IDY d 142     -38.840  -4.996  21.457  0.00  0.00    -0.646 OA
ATOM      8  C1  IDY d 142     -39.646  -7.863  18.971  0.00  0.00     0.160 C 
ATOM      9  O4  IDY d 142     -41.001  -4.383  19.745  0.00  0.00    -0.348 OA
ATOM     10  O3  IDY d 142     -42.807  -7.304  18.463  0.00  0.00    -0.390 OA
ATOM     11  C7  IDY d 142     -40.765 -10.224  19.209  0.00  0.00     0.007 C 
ATOM     12  C3  IDY d 142     -41.633  -6.393  18.471  0.00  0.00     0.094 C 
ATOM     13  S   IDY d 142     -38.578  -6.878  16.230  0.00  0.00     0.252 S 
ATOM     14  O5  IDY d 142     -39.361  -7.124  20.140  0.00  0.00    -0.340 OA
ATOM     15  C6  IDY d 142     -39.970  -5.632  21.820  0.00  0.00     0.206 C 
ATOM     16  C5  IDY d 142     -40.526  -6.572  20.775  0.00  0.00     0.152 C 
ATOM     17  O2  IDY d 142     -39.561  -6.278  17.210  0.00  0.00    -0.244 OA
ATOM     18  OS1 IDY d 142     -37.547  -5.875  15.926  0.00  0.00    -0.572 OA
ATOM     19  H   IDY d 142     -40.906  -7.877  17.281  0.00  0.00     0.097 H 
ATOM     20  H   IDY d 142     -42.426  -5.906  20.273  0.00  0.00     0.092 H 
ATOM     21  H   IDY d 142     -38.671  -7.945  18.537  0.00  0.00     0.133 H 
ATOM     22  H   IDY d 142     -42.922  -7.676  17.575  0.00  0.00     0.210 HD
ATOM     23  H   IDY d 142     -40.159 -11.017  19.594  0.00  0.00     0.066 H 
ATOM     24  H   IDY d 142     -41.105 -10.478  18.227  0.00  0.00     0.066 H 
ATOM     25  H   IDY d 142     -41.608 -10.076  19.851  0.00  0.00     0.066 H 
ATOM     26  H   IDY d 142     -41.764  -5.541  17.836  0.00  0.00     0.091 H 
ATOM     27  H   IDY d 142     -41.135  -7.358  21.169  0.00  0.00     0.104 H 
ATOM     28  O4  SGN d 141     -38.568  -1.104  20.981  0.00  0.00    -0.390 OA
ATOM     29  O6  SGN d 141     -42.575  -0.652  21.974  0.00  0.00    -0.254 OA
ATOM     30  O5S SGN d 141     -42.743   0.527  23.996  0.00  0.00    -0.572 OA
ATOM     31  C2  SGN d 141     -40.708  -2.424  18.384  0.00  0.00     0.081 C 
ATOM     32  C3  SGN d 141     -39.439  -2.021  19.110  0.00  0.00     0.083 C 
ATOM     33  O3  SGN d 141     -38.622  -1.147  18.365  0.00  0.00    -0.391 OA
ATOM     34  O1S SGN d 141     -40.161  -3.454  14.822  0.00  0.00    -0.296 OA
ATOM     35  N   SGN d 141     -40.387  -3.259  17.255  0.00  0.00    -0.210 NA
ATOM     36  C1  SGN d 141     -41.615  -3.183  19.353  0.00  0.00     0.150 C 
ATOM     37  C6  SGN d 141     -41.299  -1.120  22.343  0.00  0.00     0.067 C 
ATOM     38  O2S SGN d 141     -40.983  -1.483  15.817  0.00  0.00    -0.296 OA
ATOM     39  O3S SGN d 141     -42.343  -3.399  15.802  0.00  0.00    -0.296 OA
ATOM     40  S1  SGN d 141     -40.998  -2.908  15.846  0.00  0.00     0.156 S 
ATOM     41  O4S SGN d 141     -44.662   0.450  22.563  0.00  0.00    -0.572 OA
ATOM     42  O5  SGN d 141     -41.912  -2.427  20.513  0.00  0.00    -0.349 OA
ATOM     43  C4  SGN d 141     -39.809  -1.268  20.358  0.00  0.00     0.089 C 
ATOM     44  O6S SGN d 141     -43.965  -1.510  23.786  0.00  0.00    -0.572 OA
ATOM     45  S2  SGN d 141     -43.545  -0.284  23.120  0.00  0.00     0.251 S 
ATOM     46  C5  SGN d 141     -40.788  -2.025  21.246  0.00  0.00     0.090 C 
ATOM     47  H   SGN d 141     -37.971  -0.619  20.390  0.00  0.00     0.210 HD
ATOM     48  H   SGN d 141     -41.212  -1.549  18.030  0.00  0.00     0.076 H 
ATOM     49  H   SGN d 141     -38.905  -2.929  19.297  0.00  0.00     0.089 H 
ATOM     50  H   SGN d 141     -39.103  -0.322  18.193  0.00  0.00     0.210 HD
ATOM     51  H   SGN d 141     -39.267  -3.085  14.904  0.00  0.00     0.231 HD
ATOM     52  H   SGN d 141     -40.693  -4.204  17.486  0.00  0.00     0.140 HD
ATOM     53  H   SGN d 141     -42.530  -3.380  18.836  0.00  0.00     0.131 H 
ATOM     54  H   SGN d 141     -41.367  -1.666  23.261  0.00  0.00     0.080 H 
ATOM     55  H   SGN d 141     -40.631  -0.296  22.483  0.00  0.00     0.080 H 
ATOM     56  H   SGN d 141     -40.066  -1.169  15.847  0.00  0.00     0.231 HD
ATOM     57  H   SGN d 141     -42.334  -4.369  15.823  0.00  0.00     0.231 HD
ATOM     58  H   SGN d 141     -40.319  -0.352  20.150  0.00  0.00     0.091 H 
ATOM     59  H   SGN d 141     -40.268  -2.871  21.644  0.00  0.00     0.090 H 
ENDROOT
TORSDOF 18
ENDMDL
MODEL 13
REMARK VINA RESULT:      -5.5      3.028      5.320
REMARK  0 active torsions:
REMARK  status: ('A' for Active; 'I' for Inactive)
REMARK       I    between atoms: C2_2  and  O2_34 
REMARK       I    between atoms: O4_3  and  C4_29 
REMARK       I    between atoms: O6_4  and  C6_17 
REMARK       I    between atoms: O6_4  and  S2_35 
REMARK       I    between atoms: C2_6  and  N_15 
REMARK       I    between atoms: O1_8  and  C1_19 
REMARK       I    between atoms: O1_8  and  C7_24 
REMARK       I    between atoms: C4_9  and  O4_22 
REMARK       I    between atoms: C3_10  and  O3_13 
REMARK       I    between atoms: O1S_14  and  S1_21 
REMARK       I    between atoms: N_15  and  S1_21 
REMARK       I    between atoms: C1_16  and  O4_22 
REMARK       I    between atoms: C6_17  and  C5_36 
REMARK       I    between atoms: O2S_18  and  S1_21 
REMARK       I    between atoms: O3S_20  and  S1_21 
REMARK       I    between atoms: O3_23  and  C3_25 
REMARK       I    between atoms: S_28  and  O2_34 
REMARK       I    between atoms: C6_32  and  C5_33 
ROOT
ATOM      1  OS3 IDY d 142     -44.908  -2.630  21.344  0.00  0.00    -0.572 OA
ATOM      2  C2  IDY d 142     -42.443  -4.170  21.356  0.00  0.00     0.134 C 
ATOM      3  O61 IDY d 142     -42.273  -8.255  17.981  0.00  0.00    -0.646 OA
ATOM      4  O1  IDY d 142     -44.053  -5.695  21.944  0.00  0.00    -0.363 OA
ATOM      5  C4  IDY d 142     -41.023  -5.773  20.014  0.00  0.00     0.103 C 
ATOM      6  OS2 IDY d 142     -43.145  -1.204  22.168  0.00  0.00    -0.572 OA
ATOM      7  O62 IDY d 142     -42.742  -6.062  17.349  0.00  0.00    -0.646 OA
ATOM      8  C1  IDY d 142     -43.614  -5.044  20.990  0.00  0.00     0.160 C 
ATOM      9  O4  IDY d 142     -40.508  -5.085  18.775  0.00  0.00    -0.348 OA
ATOM     10  O3  IDY d 142     -40.725  -5.490  22.412  0.00  0.00    -0.390 OA
ATOM     11  C7  IDY d 142     -44.171  -6.384  23.174  0.00  0.00     0.007 C 
ATOM     12  C3  IDY d 142     -41.107  -4.809  21.147  0.00  0.00     0.094 C 
ATOM     13  S   IDY d 142     -43.625  -1.941  20.979  0.00  0.00     0.252 S 
ATOM     14  O5  IDY d 142     -43.496  -5.748  19.770  0.00  0.00    -0.340 OA
ATOM     15  C6  IDY d 142     -42.262  -6.969  18.221  0.00  0.00     0.206 C 
ATOM     16  C5  IDY d 142     -42.296  -6.530  19.666  0.00  0.00     0.152 C 
ATOM     17  O2  IDY d 142     -42.570  -2.953  20.590  0.00  0.00    -0.244 OA
ATOM     18  OS1 IDY d 142     -43.811  -1.003  19.861  0.00  0.00    -0.572 OA
ATOM     19  H   IDY d 142     -42.474  -3.980  22.409  0.00  0.00     0.097 H 
ATOM     20  H   IDY d 142     -40.344  -6.519  20.370  0.00  0.00     0.092 H 
ATOM     21  H   IDY d 142     -44.397  -4.354  20.754  0.00  0.00     0.133 H 
ATOM     22  H   IDY d 142     -40.781  -4.861  23.148  0.00  0.00     0.210 HD
ATOM     23  H   IDY d 142     -45.164  -6.771  23.273  0.00  0.00     0.066 H 
ATOM     24  H   IDY d 142     -43.969  -5.710  23.981  0.00  0.00     0.066 H 
ATOM     25  H   IDY d 142     -43.470  -7.191  23.200  0.00  0.00     0.066 H 
ATOM     26  H   IDY d 142     -40.434  -4.021  20.879  0.00  0.00     0.091 H 
ATOM     27  H   IDY d 142     -42.322  -7.336  20.371  0.00  0.00     0.104 H 
ATOM     28  O4  SGN d 141     -40.568  -4.313  14.580  0.00  0.00    -0.390 OA
ATOM     29  O6  SGN d 141     -37.207  -6.409  15.824  0.00  0.00    -0.254 OA
ATOM     30  O5S SGN d 141     -36.540  -7.882  14.123  0.00  0.00    -0.572 OA
ATOM     31  C2  SGN d 141     -39.440  -3.159  17.814  0.00  0.00     0.081 C 
ATOM     32  C3  SGN d 141     -40.267  -3.242  16.546  0.00  0.00     0.083 C 
ATOM     33  O3  SGN d 141     -40.321  -2.028  15.833  0.00  0.00    -0.391 OA
ATOM     34  O1S SGN d 141     -40.182  -0.146  19.917  0.00  0.00    -0.296 OA
ATOM     35  N   SGN d 141     -40.099  -2.315  18.779  0.00  0.00    -0.210 NA
ATOM     36  C1  SGN d 141     -39.264  -4.566  18.387  0.00  0.00     0.150 C 
ATOM     37  C6  SGN d 141     -38.532  -6.451  15.352  0.00  0.00     0.067 C 
ATOM     38  O2S SGN d 141     -38.429  -0.681  18.437  0.00  0.00    -0.296 OA
ATOM     39  O3S SGN d 141     -38.504  -1.738  20.534  0.00  0.00    -0.296 OA
ATOM     40  S1  SGN d 141     -39.278  -1.163  19.474  0.00  0.00     0.156 S 
ATOM     41  O4S SGN d 141     -34.939  -7.290  15.805  0.00  0.00    -0.572 OA
ATOM     42  O5  SGN d 141     -38.674  -5.453  17.454  0.00  0.00    -0.349 OA
ATOM     43  C4  SGN d 141     -39.629  -4.234  15.613  0.00  0.00     0.089 C 
ATOM     44  O6S SGN d 141     -36.782  -8.758  16.329  0.00  0.00    -0.572 OA
ATOM     45  S2  SGN d 141     -36.317  -7.636  15.523  0.00  0.00     0.251 S 
ATOM     46  C5  SGN d 141     -39.387  -5.594  16.257  0.00  0.00     0.090 C 
ATOM     47  H   SGN d 141     -40.698  -3.433  14.193  0.00  0.00     0.210 HD
ATOM     48  H   SGN d 141     -38.481  -2.739  17.591  0.00  0.00     0.076 H 
ATOM     49  H   SGN d 141     -41.254  -3.515  16.855  0.00  0.00     0.089 H 
ATOM     50  H   SGN d 141     -39.427  -1.777  15.552  0.00  0.00     0.210 HD
ATOM     51  H   SGN d 141     -40.675   0.202  19.157  0.00  0.00     0.231 HD
ATOM     52  H   SGN d 141     -40.446  -2.923  19.520  0.00  0.00     0.140 HD
ATOM     53  H   SGN d 141     -38.611  -4.481  19.230  0.00  0.00     0.131 H 
ATOM     54  H   SGN d 141     -38.889  -7.461  15.367  0.00  0.00     0.080 H 
ATOM     55  H   SGN d 141     -38.577  -6.087  14.348  0.00  0.00     0.080 H 
ATOM     56  H   SGN d 141     -38.969  -0.296  17.729  0.00  0.00     0.231 HD
ATOM     57  H   SGN d 141     -39.098  -2.060  21.229  0.00  0.00     0.231 HD
ATOM     58  H   SGN d 141     -38.653  -3.933  15.296  0.00  0.00     0.091 H 
ATOM     59  H   SGN d 141     -40.345  -6.038  16.430  0.00  0.00     0.090 H 
ENDROOT
TORSDOF 18
ENDMDL
MODEL 14
REMARK VINA RESULT:      -5.5      2.750      4.228
REMARK  0 active torsions:
REMARK  status: ('A' for Active; 'I' for Inactive)
REMARK       I    between atoms: C2_2  and  O2_34 
REMARK       I    between atoms: O4_3  and  C4_29 
REMARK       I    between atoms: O6_4  and  C6_17 
REMARK       I    between atoms: O6_4  and  S2_35 
REMARK       I    between atoms: C2_6  and  N_15 
REMARK       I    between atoms: O1_8  and  C1_19 
REMARK       I    between atoms: O1_8  and  C7_24 
REMARK       I    between atoms: C4_9  and  O4_22 
REMARK       I    between atoms: C3_10  and  O3_13 
REMARK       I    between atoms: O1S_14  and  S1_21 
REMARK       I    between atoms: N_15  and  S1_21 
REMARK       I    between atoms: C1_16  and  O4_22 
REMARK       I    between atoms: C6_17  and  C5_36 
REMARK       I    between atoms: O2S_18  and  S1_21 
REMARK       I    between atoms: O3S_20  and  S1_21 
REMARK       I    between atoms: O3_23  and  C3_25 
REMARK       I    between atoms: S_28  and  O2_34 
REMARK       I    between atoms: C6_32  and  C5_33 
ROOT
ATOM      1  OS3 IDY d 142     -36.514  -0.850  23.902  0.00  0.00    -0.572 OA
ATOM      2  C2  IDY d 142     -36.697  -1.130  21.015  0.00  0.00     0.134 C 
ATOM      3  O61 IDY d 142     -36.104  -6.057  19.148  0.00  0.00    -0.646 OA
ATOM      4  O1  IDY d 142     -34.583  -1.870  21.511  0.00  0.00    -0.363 OA
ATOM      5  C4  IDY d 142     -37.129  -2.770  19.141  0.00  0.00     0.103 C 
ATOM      6  OS2 IDY d 142     -37.810   1.002  23.056  0.00  0.00    -0.572 OA
ATOM      7  O62 IDY d 142     -37.673  -5.457  20.763  0.00  0.00    -0.646 OA
ATOM      8  C1  IDY d 142     -35.778  -2.175  21.593  0.00  0.00     0.160 C 
ATOM      9  O4  IDY d 142     -38.551  -3.265  19.213  0.00  0.00    -0.348 OA
ATOM     10  O3  IDY d 142     -36.051  -0.625  18.750  0.00  0.00    -0.390 OA
ATOM     11  C7  IDY d 142     -33.357  -1.292  21.105  0.00  0.00     0.007 C 
ATOM     12  C3  IDY d 142     -37.050  -1.348  19.579  0.00  0.00     0.094 C 
ATOM     13  S   IDY d 142     -37.796  -0.468  23.220  0.00  0.00     0.252 S 
ATOM     14  O5  IDY d 142     -36.092  -3.514  21.274  0.00  0.00    -0.340 OA
ATOM     15  C6  IDY d 142     -36.805  -5.150  19.780  0.00  0.00     0.206 C 
ATOM     16  C5  IDY d 142     -36.226  -3.757  19.864  0.00  0.00     0.152 C 
ATOM     17  O2  IDY d 142     -37.876  -1.100  21.849  0.00  0.00    -0.244 OA
ATOM     18  OS1 IDY d 142     -38.971  -0.887  24.000  0.00  0.00    -0.572 OA
ATOM     19  H   IDY d 142     -36.189  -0.189  21.015  0.00  0.00     0.097 H 
ATOM     20  H   IDY d 142     -36.764  -2.743  18.135  0.00  0.00     0.092 H 
ATOM     21  H   IDY d 142     -35.986  -2.160  22.643  0.00  0.00     0.133 H 
ATOM     22  H   IDY d 142     -36.002   0.301  19.036  0.00  0.00     0.210 HD
ATOM     23  H   IDY d 142     -32.568  -1.654  21.731  0.00  0.00     0.066 H 
ATOM     24  H   IDY d 142     -33.419  -0.227  21.189  0.00  0.00     0.066 H 
ATOM     25  H   IDY d 142     -33.156  -1.559  20.089  0.00  0.00     0.066 H 
ATOM     26  H   IDY d 142     -38.045  -0.973  19.452  0.00  0.00     0.091 H 
ATOM     27  H   IDY d 142     -35.276  -3.645  19.382  0.00  0.00     0.104 H 
ATOM     28  O4  SGN d 141     -41.484  -6.212  20.167  0.00  0.00    -0.390 OA
ATOM     29  O6  SGN d 141     -41.017  -5.610  16.086  0.00  0.00    -0.254 OA
ATOM     30  O5S SGN d 141     -41.379  -7.637  14.958  0.00  0.00    -0.572 OA
ATOM     31  C2  SGN d 141     -40.883  -2.725  19.427  0.00  0.00     0.081 C 
ATOM     32  C3  SGN d 141     -41.173  -3.976  20.235  0.00  0.00     0.083 C 
ATOM     33  O3  SGN d 141     -42.354  -3.887  20.999  0.00  0.00    -0.391 OA
ATOM     34  O1S SGN d 141     -41.250   0.458  21.372  0.00  0.00    -0.296 OA
ATOM     35  N   SGN d 141     -40.548  -1.636  20.308  0.00  0.00    -0.210 NA
ATOM     36  C1  SGN d 141     -39.718  -3.005  18.477  0.00  0.00     0.150 C 
ATOM     37  C6  SGN d 141     -40.626  -6.313  17.240  0.00  0.00     0.067 C 
ATOM     38  O2S SGN d 141     -42.618  -0.625  19.789  0.00  0.00    -0.296 OA
ATOM     39  O3S SGN d 141     -40.665   0.453  19.052  0.00  0.00    -0.296 OA
ATOM     40  S1  SGN d 141     -41.286  -0.255  20.132  0.00  0.00     0.156 S 
ATOM     41  O4S SGN d 141     -41.552  -5.597  13.712  0.00  0.00    -0.572 OA
ATOM     42  O5  SGN d 141     -39.973  -4.109  17.628  0.00  0.00    -0.349 OA
ATOM     43  C4  SGN d 141     -41.384  -5.127  19.291  0.00  0.00     0.089 C 
ATOM     44  O6S SGN d 141     -39.401  -6.409  14.442  0.00  0.00    -0.572 OA
ATOM     45  S2  SGN d 141     -40.827  -6.328  14.730  0.00  0.00     0.251 S 
ATOM     46  C5  SGN d 141     -40.240  -5.309  18.301  0.00  0.00     0.090 C 
ATOM     47  H   SGN d 141     -42.221  -6.064  20.781  0.00  0.00     0.210 HD
ATOM     48  H   SGN d 141     -41.751  -2.454  18.863  0.00  0.00     0.076 H 
ATOM     49  H   SGN d 141     -40.337  -4.104  20.890  0.00  0.00     0.089 H 
ATOM     50  H   SGN d 141     -43.114  -3.771  20.407  0.00  0.00     0.210 HD
ATOM     51  H   SGN d 141     -41.684  -0.070  22.061  0.00  0.00     0.231 HD
ATOM     52  H   SGN d 141     -39.550  -1.458  20.197  0.00  0.00     0.140 HD
ATOM     53  H   SGN d 141     -39.595  -2.134  17.869  0.00  0.00     0.131 H 
ATOM     54  H   SGN d 141     -39.788  -6.941  17.014  0.00  0.00     0.080 H 
ATOM     55  H   SGN d 141     -41.430  -6.927  17.589  0.00  0.00     0.080 H 
ATOM     56  H   SGN d 141     -43.022  -1.102  20.531  0.00  0.00     0.231 HD
ATOM     57  H   SGN d 141     -39.760   0.696  19.302  0.00  0.00     0.231 HD
ATOM     58  H   SGN d 141     -42.237  -4.993  18.661  0.00  0.00     0.091 H 
ATOM     59  H   SGN d 141     -39.386  -5.633  18.858  0.00  0.00     0.090 H 
ENDROOT
TORSDOF 18
ENDMDL
MODEL 15
REMARK VINA RESULT:      -5.5      2.875      4.979
REMARK  0 active torsions:
REMARK  status: ('A' for Active; 'I' for Inactive)
REMARK       I    between atoms: C2_2  and  O2_34 
REMARK       I    between atoms: O4_3  and  C4_29 
REMARK       I    between atoms: O6_4  and  C6_17 
REMARK       I    between atoms: O6_4  and  S2_35 
REMARK       I    between atoms: C2_6  and  N_15 
REMARK       I    between atoms: O1_8  and  C1_19 
REMARK       I    between atoms: O1_8  and  C7_24 
REMARK       I    between atoms: C4_9  and  O4_22 
REMARK       I    between atoms: C3_10  and  O3_13 
REMARK       I    between atoms: O1S_14  and  S1_21 
REMARK       I    between atoms: N_15  and  S1_21 
REMARK       I    between atoms: C1_16  and  O4_22 
REMARK       I    between atoms: C6_17  and  C5_36 
REMARK       I    between atoms: O2S_18  and  S1_21 
REMARK       I    between atoms: O3S_20  and  S1_21 
REMARK       I    between atoms: O3_23  and  C3_25 
REMARK       I    between atoms: S_28  and  O2_34 
REMARK       I    between atoms: C6_32  and  C5_33 
ROOT
ATOM      1  OS3 IDY d 142     -44.090  -1.454  21.231  0.00  0.00    -0.572 OA
ATOM      2  C2  IDY d 142     -42.388  -3.809  21.142  0.00  0.00     0.134 C 
ATOM      3  O61 IDY d 142     -43.769  -7.504  17.599  0.00  0.00    -0.646 OA
ATOM      4  O1  IDY d 142     -44.455  -4.639  21.692  0.00  0.00    -0.363 OA
ATOM      5  C4  IDY d 142     -41.677  -5.768  19.712  0.00  0.00     0.103 C 
ATOM      6  OS2 IDY d 142     -41.920  -0.836  22.086  0.00  0.00    -0.572 OA
ATOM      7  O62 IDY d 142     -43.376  -5.270  17.065  0.00  0.00    -0.646 OA
ATOM      8  C1  IDY d 142     -43.802  -4.160  20.758  0.00  0.00     0.160 C 
ATOM      9  O4  IDY d 142     -40.940  -5.271  18.494  0.00  0.00    -0.348 OA
ATOM     10  O3  IDY d 142     -41.296  -5.724  22.114  0.00  0.00    -0.390 OA
ATOM     11  C7  IDY d 142     -44.825  -5.286  22.895  0.00  0.00     0.007 C 
ATOM     12  C3  IDY d 142     -41.392  -4.894  20.885  0.00  0.00     0.094 C 
ATOM     13  S   IDY d 142     -42.642  -1.285  20.875  0.00  0.00     0.252 S 
ATOM     14  O5  IDY d 142     -43.958  -4.801  19.509  0.00  0.00    -0.340 OA
ATOM     15  C6  IDY d 142     -43.274  -6.328  17.891  0.00  0.00     0.206 C 
ATOM     16  C5  IDY d 142     -43.141  -5.973  19.354  0.00  0.00     0.152 C 
ATOM     17  O2  IDY d 142     -42.047  -2.601  20.428  0.00  0.00    -0.244 OA
ATOM     18  OS1 IDY d 142     -42.460  -0.297  19.800  0.00  0.00    -0.572 OA
ATOM     19  H   IDY d 142     -42.346  -3.667  22.201  0.00  0.00     0.097 H 
ATOM     20  H   IDY d 142     -41.330  -6.730  20.026  0.00  0.00     0.092 H 
ATOM     21  H   IDY d 142     -44.267  -3.216  20.563  0.00  0.00     0.133 H 
ATOM     22  H   IDY d 142     -41.111  -5.153  22.876  0.00  0.00     0.210 HD
ATOM     23  H   IDY d 142     -45.891  -5.274  22.993  0.00  0.00     0.066 H 
ATOM     24  H   IDY d 142     -44.384  -4.774  23.725  0.00  0.00     0.066 H 
ATOM     25  H   IDY d 142     -44.480  -6.298  22.876  0.00  0.00     0.066 H 
ATOM     26  H   IDY d 142     -40.472  -4.407  20.639  0.00  0.00     0.091 H 
ATOM     27  H   IDY d 142     -43.470  -6.740  20.025  0.00  0.00     0.104 H 
ATOM     28  O4  SGN d 141     -40.701  -4.349  14.336  0.00  0.00    -0.390 OA
ATOM     29  O6  SGN d 141     -38.380  -7.610  15.439  0.00  0.00    -0.254 OA
ATOM     30  O5S SGN d 141     -38.317  -9.150  13.669  0.00  0.00    -0.572 OA
ATOM     31  C2  SGN d 141     -39.223  -3.849  17.596  0.00  0.00     0.081 C 
ATOM     32  C3  SGN d 141     -40.020  -3.559  16.339  0.00  0.00     0.083 C 
ATOM     33  O3  SGN d 141     -39.612  -2.383  15.678  0.00  0.00    -0.391 OA
ATOM     34  O1S SGN d 141     -38.775  -0.875  19.833  0.00  0.00    -0.296 OA
ATOM     35  N   SGN d 141     -39.516  -2.862  18.605  0.00  0.00    -0.210 NA
ATOM     36  C1  SGN d 141     -39.591  -5.242  18.108  0.00  0.00     0.150 C 
ATOM     37  C6  SGN d 141     -39.623  -7.129  14.987  0.00  0.00     0.067 C 
ATOM     38  O2S SGN d 141     -37.352  -1.965  18.304  0.00  0.00    -0.296 OA
ATOM     39  O3S SGN d 141     -37.823  -3.006  20.357  0.00  0.00    -0.296 OA
ATOM     40  S1  SGN d 141     -38.322  -2.137  19.333  0.00  0.00     0.156 S 
ATOM     41  O4S SGN d 141     -36.613  -9.279  15.348  0.00  0.00    -0.572 OA
ATOM     42  O5  SGN d 141     -39.380  -6.245  17.130  0.00  0.00    -0.349 OA
ATOM     43  C4  SGN d 141     -39.803  -4.675  15.356  0.00  0.00     0.089 C 
ATOM     44  O6S SGN d 141     -38.873  -9.966  15.840  0.00  0.00    -0.572 OA
ATOM     45  S2  SGN d 141     -38.018  -9.068  15.073  0.00  0.00     0.251 S 
ATOM     46  C5  SGN d 141     -40.092  -6.053  15.939  0.00  0.00     0.090 C 
ATOM     47  H   SGN d 141     -40.489  -3.469  13.987  0.00  0.00     0.210 HD
ATOM     48  H   SGN d 141     -38.177  -3.812  17.375  0.00  0.00     0.076 H 
ATOM     49  H   SGN d 141     -41.037  -3.453  16.652  0.00  0.00     0.089 H 
ATOM     50  H   SGN d 141     -38.689  -2.476  15.392  0.00  0.00     0.210 HD
ATOM     51  H   SGN d 141     -39.100  -0.333  19.096  0.00  0.00     0.231 HD
ATOM     52  H   SGN d 141     -40.068  -3.327  19.326  0.00  0.00     0.140 HD
ATOM     53  H   SGN d 141     -38.955  -5.447  18.943  0.00  0.00     0.131 H 
ATOM     54  H   SGN d 141     -40.334  -7.929  14.967  0.00  0.00     0.080 H 
ATOM     55  H   SGN d 141     -39.527  -6.730  13.999  0.00  0.00     0.080 H 
ATOM     56  H   SGN d 141     -37.707  -1.374  17.621  0.00  0.00     0.231 HD
ATOM     57  H   SGN d 141     -38.495  -3.112  21.048  0.00  0.00     0.231 HD
ATOM     58  H   SGN d 141     -38.785  -4.751  15.036  0.00  0.00     0.091 H 
ATOM     59  H   SGN d 141     -41.146  -6.110  16.110  0.00  0.00     0.090 H 
ENDROOT
TORSDOF 18
ENDMDL
MODEL 16
REMARK VINA RESULT:      -5.4      2.988      6.771
REMARK  0 active torsions:
REMARK  status: ('A' for Active; 'I' for Inactive)
REMARK       I    between atoms: C2_2  and  O2_34 
REMARK       I    between atoms: O4_3  and  C4_29 
REMARK       I    between atoms: O6_4  and  C6_17 
REMARK       I    between atoms: O6_4  and  S2_35 
REMARK       I    between atoms: C2_6  and  N_15 
REMARK       I    between atoms: O1_8  and  C1_19 
REMARK       I    between atoms: O1_8  and  C7_24 
REMARK       I    between atoms: C4_9  and  O4_22 
REMARK       I    between atoms: C3_10  and  O3_13 
REMARK       I    between atoms: O1S_14  and  S1_21 
REMARK       I    between atoms: N_15  and  S1_21 
REMARK       I    between atoms: C1_16  and  O4_22 
REMARK       I    between atoms: C6_17  and  C5_36 
REMARK       I    between atoms: O2S_18  and  S1_21 
REMARK       I    between atoms: O3S_20  and  S1_21 
REMARK       I    between atoms: O3_23  and  C3_25 
REMARK       I    between atoms: S_28  and  O2_34 
REMARK       I    between atoms: C6_32  and  C5_33 
ROOT
ATOM      1  OS3 IDY d 142     -37.627  -9.014  15.650  0.00  0.00    -0.572 OA
ATOM      2  C2  IDY d 142     -39.576  -8.156  17.628  0.00  0.00     0.134 C 
ATOM      3  O61 IDY d 142     -37.644  -5.326  21.674  0.00  0.00    -0.646 OA
ATOM      4  O1  IDY d 142     -38.110  -9.458  18.821  0.00  0.00    -0.363 OA
ATOM      5  C4  IDY d 142     -40.022  -6.486  19.473  0.00  0.00     0.103 C 
ATOM      6  OS2 IDY d 142     -39.790  -8.948  14.583  0.00  0.00    -0.572 OA
ATOM      7  O62 IDY d 142     -37.343  -4.767  19.432  0.00  0.00    -0.646 OA
ATOM      8  C1  IDY d 142     -38.226  -8.360  18.265  0.00  0.00     0.160 C 
ATOM      9  O4  IDY d 142     -40.096  -5.096  18.895  0.00  0.00    -0.348 OA
ATOM     10  O3  IDY d 142     -41.319  -8.533  19.249  0.00  0.00    -0.390 OA
ATOM     11  C7  IDY d 142     -38.388 -10.682  19.474  0.00  0.00     0.007 C 
ATOM     12  C3  IDY d 142     -40.577  -7.479  18.509  0.00  0.00     0.094 C 
ATOM     13  S   IDY d 142     -38.746  -8.113  15.217  0.00  0.00     0.252 S 
ATOM     14  O5  IDY d 142     -37.711  -7.255  18.979  0.00  0.00    -0.340 OA
ATOM     15  C6  IDY d 142     -37.973  -5.440  20.413  0.00  0.00     0.206 C 
ATOM     16  C5  IDY d 142     -38.609  -6.739  19.974  0.00  0.00     0.152 C 
ATOM     17  O2  IDY d 142     -39.358  -7.413  16.410  0.00  0.00    -0.244 OA
ATOM     18  OS1 IDY d 142     -38.284  -7.094  14.261  0.00  0.00    -0.572 OA
ATOM     19  H   IDY d 142     -40.010  -9.115  17.435  0.00  0.00     0.097 H 
ATOM     20  H   IDY d 142     -40.648  -6.597  20.333  0.00  0.00     0.092 H 
ATOM     21  H   IDY d 142     -37.546  -8.405  17.440  0.00  0.00     0.133 H 
ATOM     22  H   IDY d 142     -41.678  -9.178  18.620  0.00  0.00     0.210 HD
ATOM     23  H   IDY d 142     -37.472 -11.200  19.666  0.00  0.00     0.066 H 
ATOM     24  H   IDY d 142     -39.015 -11.284  18.850  0.00  0.00     0.066 H 
ATOM     25  H   IDY d 142     -38.888 -10.487  20.399  0.00  0.00     0.066 H 
ATOM     26  H   IDY d 142     -41.206  -6.904  17.862  0.00  0.00     0.091 H 
ATOM     27  H   IDY d 142     -38.735  -7.455  20.760  0.00  0.00     0.104 H 
ATOM     28  O4  SGN d 141     -38.461  -1.231  18.128  0.00  0.00    -0.390 OA
ATOM     29  O6  SGN d 141     -41.620  -1.181  20.822  0.00  0.00    -0.254 OA
ATOM     30  O5S SGN d 141     -41.268   0.524  22.396  0.00  0.00    -0.572 OA
ATOM     31  C2  SGN d 141     -40.993  -3.640  17.207  0.00  0.00     0.081 C 
ATOM     32  C3  SGN d 141     -39.719  -2.821  17.133  0.00  0.00     0.083 C 
ATOM     33  O3  SGN d 141     -39.588  -2.097  15.931  0.00  0.00    -0.391 OA
ATOM     34  O1S SGN d 141     -41.707  -5.621  14.106  0.00  0.00    -0.296 OA
ATOM     35  N   SGN d 141     -40.942  -4.718  16.253  0.00  0.00    -0.210 NA
ATOM     36  C1  SGN d 141     -41.142  -4.201  18.621  0.00  0.00     0.150 C 
ATOM     37  C6  SGN d 141     -40.232  -1.286  20.613  0.00  0.00     0.067 C 
ATOM     38  O2S SGN d 141     -42.581  -3.609  14.964  0.00  0.00    -0.296 OA
ATOM     39  O3S SGN d 141     -43.188  -5.635  15.986  0.00  0.00    -0.296 OA
ATOM     40  S1  SGN d 141     -42.160  -4.933  15.276  0.00  0.00     0.156 S 
ATOM     41  O4S SGN d 141     -43.492  -0.323  22.116  0.00  0.00    -0.572 OA
ATOM     42  O5  SGN d 141     -41.136  -3.183  19.605  0.00  0.00    -0.349 OA
ATOM     43  C4  SGN d 141     -39.738  -1.790  18.228  0.00  0.00     0.089 C 
ATOM     44  O6S SGN d 141     -41.802  -1.654  23.208  0.00  0.00    -0.572 OA
ATOM     45  S2  SGN d 141     -42.083  -0.644  22.196  0.00  0.00     0.251 S 
ATOM     46  C5  SGN d 141     -39.984  -2.387  19.608  0.00  0.00     0.090 C 
ATOM     47  H   SGN d 141     -38.338  -0.861  17.240  0.00  0.00     0.210 HD
ATOM     48  H   SGN d 141     -41.833  -3.019  16.976  0.00  0.00     0.076 H 
ATOM     49  H   SGN d 141     -38.914  -3.520  17.214  0.00  0.00     0.089 H 
ATOM     50  H   SGN d 141     -40.317  -1.462  15.854  0.00  0.00     0.210 HD
ATOM     51  H   SGN d 141     -41.015  -5.098  13.671  0.00  0.00     0.231 HD
ATOM     52  H   SGN d 141     -40.829  -5.582  16.784  0.00  0.00     0.140 HD
ATOM     53  H   SGN d 141     -42.086  -4.702  18.660  0.00  0.00     0.131 H 
ATOM     54  H   SGN d 141     -39.744  -1.521  21.536  0.00  0.00     0.080 H 
ATOM     55  H   SGN d 141     -39.844  -0.358  20.247  0.00  0.00     0.080 H 
ATOM     56  H   SGN d 141     -41.874  -3.150  14.484  0.00  0.00     0.231 HD
ATOM     57  H   SGN d 141     -42.885  -6.534  16.190  0.00  0.00     0.231 HD
ATOM     58  H   SGN d 141     -40.535  -1.086  18.117  0.00  0.00     0.091 H 
ATOM     59  H   SGN d 141     -39.120  -2.965  19.863  0.00  0.00     0.090 H 
ENDROOT
TORSDOF 18
ENDMDL
MODEL 17
REMARK VINA RESULT:      -5.4      3.823      5.848
REMARK  0 active torsions:
REMARK  status: ('A' for Active; 'I' for Inactive)
REMARK       I    between atoms: C2_2  and  O2_34 
REMARK       I    between atoms: O4_3  and  C4_29 
REMARK       I    between atoms: O6_4  and  C6_17 
REMARK       I    between atoms: O6_4  and  S2_35 
REMARK       I    between atoms: C2_6  and  N_15 
REMARK       I    between atoms: O1_8  and  C1_19 
REMARK       I    between atoms: O1_8  and  C7_24 
REMARK       I    between atoms: C4_9  and  O4_22 
REMARK       I    between atoms: C3_10  and  O3_13 
REMARK       I    between atoms: O1S_14  and  S1_21 
REMARK       I    between atoms: N_15  and  S1_21 
REMARK       I    between atoms: C1_16  and  O4_22 
REMARK       I    between atoms: C6_17  and  C5_36 
REMARK       I    between atoms: O2S_18  and  S1_21 
REMARK       I    between atoms: O3S_20  and  S1_21 
REMARK       I    between atoms: O3_23  and  C3_25 
REMARK       I    between atoms: S_28  and  O2_34 
REMARK       I    between atoms: C6_32  and  C5_33 
ROOT
ATOM      1  OS3 IDY d 142     -43.167  -2.595  19.380  0.00  0.00    -0.572 OA
ATOM      2  C2  IDY d 142     -40.801  -2.854  17.712  0.00  0.00     0.134 C 
ATOM      3  O61 IDY d 142     -36.249  -3.686  20.300  0.00  0.00    -0.646 OA
ATOM      4  O1  IDY d 142     -40.349  -1.037  19.037  0.00  0.00    -0.363 OA
ATOM      5  C4  IDY d 142     -38.433  -3.736  17.639  0.00  0.00     0.103 C 
ATOM      6  OS2 IDY d 142     -43.877  -3.313  17.188  0.00  0.00    -0.572 OA
ATOM      7  O62 IDY d 142     -38.146  -5.019  20.540  0.00  0.00    -0.646 OA
ATOM      8  C1  IDY d 142     -40.444  -2.269  19.053  0.00  0.00     0.160 C 
ATOM      9  O4  IDY d 142     -38.445  -5.240  17.740  0.00  0.00    -0.348 OA
ATOM     10  O3  IDY d 142     -39.243  -2.093  16.038  0.00  0.00    -0.390 OA
ATOM     11  C7  IDY d 142     -40.166   0.303  18.619  0.00  0.00     0.007 C 
ATOM     12  C3  IDY d 142     -39.624  -3.256  16.882  0.00  0.00     0.094 C 
ATOM     13  S   IDY d 142     -43.105  -3.717  18.384  0.00  0.00     0.252 S 
ATOM     14  O5  IDY d 142     -39.438  -2.951  19.773  0.00  0.00    -0.340 OA
ATOM     15  C6  IDY d 142     -37.416  -4.100  19.878  0.00  0.00     0.206 C 
ATOM     16  C5  IDY d 142     -38.226  -3.149  19.027  0.00  0.00     0.152 C 
ATOM     17  O2  IDY d 142     -41.677  -3.975  17.961  0.00  0.00    -0.244 OA
ATOM     18  OS1 IDY d 142     -43.665  -4.961  18.932  0.00  0.00    -0.572 OA
ATOM     19  H   IDY d 142     -41.282  -2.099  17.126  0.00  0.00     0.097 H 
ATOM     20  H   IDY d 142     -37.607  -3.379  17.059  0.00  0.00     0.092 H 
ATOM     21  H   IDY d 142     -41.300  -2.463  19.665  0.00  0.00     0.133 H 
ATOM     22  H   IDY d 142     -40.019  -1.783  15.546  0.00  0.00     0.210 HD
ATOM     23  H   IDY d 142     -40.285   0.958  19.457  0.00  0.00     0.066 H 
ATOM     24  H   IDY d 142     -40.890   0.545  17.870  0.00  0.00     0.066 H 
ATOM     25  H   IDY d 142     -39.183   0.419  18.214  0.00  0.00     0.066 H 
ATOM     26  H   IDY d 142     -39.935  -4.103  16.306  0.00  0.00     0.091 H 
ATOM     27  H   IDY d 142     -37.750  -2.208  18.845  0.00  0.00     0.104 H 
ATOM     28  O4  SGN d 141     -37.918  -8.888  19.887  0.00  0.00    -0.390 OA
ATOM     29  O6  SGN d 141     -35.050  -8.274  16.948  0.00  0.00    -0.254 OA
ATOM     30  O5S SGN d 141     -33.010  -9.198  17.651  0.00  0.00    -0.572 OA
ATOM     31  C2  SGN d 141     -39.362  -7.322  16.967  0.00  0.00     0.081 C 
ATOM     32  C3  SGN d 141     -39.276  -7.954  18.343  0.00  0.00     0.083 C 
ATOM     33  O3  SGN d 141     -40.134  -9.061  18.505  0.00  0.00    -0.391 OA
ATOM     34  O1S SGN d 141     -42.870  -6.768  15.767  0.00  0.00    -0.296 OA
ATOM     35  N   SGN d 141     -40.646  -6.690  16.794  0.00  0.00    -0.210 NA
ATOM     36  C1  SGN d 141     -38.247  -6.286  16.825  0.00  0.00     0.150 C 
ATOM     37  C6  SGN d 141     -35.441  -8.097  18.288  0.00  0.00     0.067 C 
ATOM     38  O2S SGN d 141     -41.236  -8.389  15.263  0.00  0.00    -0.296 OA
ATOM     39  O3S SGN d 141     -40.970  -6.210  14.423  0.00  0.00    -0.296 OA
ATOM     40  S1  SGN d 141     -41.485  -7.006  15.498  0.00  0.00     0.156 S 
ATOM     41  O4S SGN d 141     -33.323  -8.785  15.312  0.00  0.00    -0.572 OA
ATOM     42  O5  SGN d 141     -36.966  -6.845  17.046  0.00  0.00    -0.349 OA
ATOM     43  C4  SGN d 141     -37.884  -8.485  18.549  0.00  0.00     0.089 C 
ATOM     44  O6S SGN d 141     -33.001  -6.952  16.848  0.00  0.00    -0.572 OA
ATOM     45  S2  SGN d 141     -33.531  -8.296  16.659  0.00  0.00     0.251 S 
ATOM     46  C5  SGN d 141     -36.802  -7.440  18.304  0.00  0.00     0.090 C 
ATOM     47  H   SGN d 141     -38.615  -9.552  20.007  0.00  0.00     0.210 HD
ATOM     48  H   SGN d 141     -39.250  -8.077  16.217  0.00  0.00     0.076 H 
ATOM     49  H   SGN d 141     -39.552  -7.189  19.037  0.00  0.00     0.089 H 
ATOM     50  H   SGN d 141     -39.886  -9.757  17.876  0.00  0.00     0.210 HD
ATOM     51  H   SGN d 141     -43.158  -7.333  16.502  0.00  0.00     0.231 HD
ATOM     52  H   SGN d 141     -40.487  -5.683  16.810  0.00  0.00     0.140 HD
ATOM     53  H   SGN d 141     -38.287  -5.920  15.820  0.00  0.00     0.131 H 
ATOM     54  H   SGN d 141     -34.732  -7.472  18.792  0.00  0.00     0.080 H 
ATOM     55  H   SGN d 141     -35.482  -9.042  18.788  0.00  0.00     0.080 H 
ATOM     56  H   SGN d 141     -41.592  -8.911  16.000  0.00  0.00     0.231 HD
ATOM     57  H   SGN d 141     -41.148  -5.273  14.601  0.00  0.00     0.231 HD
ATOM     58  H   SGN d 141     -37.635  -9.265  17.862  0.00  0.00     0.091 H 
ATOM     59  H   SGN d 141     -36.880  -6.713  19.085  0.00  0.00     0.090 H 
ENDROOT
TORSDOF 18
ENDMDL
MODEL 18
REMARK VINA RESULT:      -5.2      2.587      4.882
REMARK  0 active torsions:
REMARK  status: ('A' for Active; 'I' for Inactive)
REMARK       I    between atoms: C2_2  and  O2_34 
REMARK       I    between atoms: O4_3  and  C4_29 
REMARK       I    between atoms: O6_4  and  C6_17 
REMARK       I    between atoms: O6_4  and  S2_35 
REMARK       I    between atoms: C2_6  and  N_15 
REMARK       I    between atoms: O1_8  and  C1_19 
REMARK       I    between atoms: O1_8  and  C7_24 
REMARK       I    between atoms: C4_9  and  O4_22 
REMARK       I    between atoms: C3_10  and  O3_13 
REMARK       I    between atoms: O1S_14  and  S1_21 
REMARK       I    between atoms: N_15  and  S1_21 
REMARK       I    between atoms: C1_16  and  O4_22 
REMARK       I    between atoms: C6_17  and  C5_36 
REMARK       I    between atoms: O2S_18  and  S1_21 
REMARK       I    between atoms: O3S_20  and  S1_21 
REMARK       I    between atoms: O3_23  and  C3_25 
REMARK       I    between atoms: S_28  and  O2_34 
REMARK       I    between atoms: C6_32  and  C5_33 
ROOT
ATOM      1  OS3 IDY d 142     -42.292   0.139  22.699  0.00  0.00    -0.572 OA
ATOM      2  C2  IDY d 142     -41.984  -2.709  22.209  0.00  0.00     0.134 C 
ATOM      3  O61 IDY d 142     -44.638  -4.620  18.036  0.00  0.00    -0.646 OA
ATOM      4  O1  IDY d 142     -44.234  -2.448  22.569  0.00  0.00    -0.363 OA
ATOM      5  C4  IDY d 142     -42.194  -4.521  20.459  0.00  0.00     0.103 C 
ATOM      6  OS2 IDY d 142     -40.203  -0.563  23.683  0.00  0.00    -0.572 OA
ATOM      7  O62 IDY d 142     -43.135  -2.843  17.921  0.00  0.00    -0.646 OA
ATOM      8  C1  IDY d 142     -43.336  -2.234  21.748  0.00  0.00     0.160 C 
ATOM      9  O4  IDY d 142     -41.185  -4.291  19.363  0.00  0.00    -0.348 OA
ATOM     10  O3  IDY d 142     -42.095  -5.034  22.835  0.00  0.00    -0.390 OA
ATOM     11  C7  IDY d 142     -45.000  -2.989  23.630  0.00  0.00     0.007 C 
ATOM     12  C3  IDY d 142     -41.637  -4.098  21.775  0.00  0.00     0.094 C 
ATOM     13  S   IDY d 142     -40.922  -0.398  22.400  0.00  0.00     0.252 S 
ATOM     14  O5  IDY d 142     -43.659  -2.514  20.401  0.00  0.00    -0.340 OA
ATOM     15  C6  IDY d 142     -43.658  -3.916  18.544  0.00  0.00     0.206 C 
ATOM     16  C5  IDY d 142     -43.520  -3.899  20.049  0.00  0.00     0.152 C 
ATOM     17  O2  IDY d 142     -41.015  -1.751  21.732  0.00  0.00    -0.244 OA
ATOM     18  OS1 IDY d 142     -40.163   0.508  21.525  0.00  0.00    -0.572 OA
ATOM     19  H   IDY d 142     -41.988  -2.768  23.278  0.00  0.00     0.097 H 
ATOM     20  H   IDY d 142     -42.405  -5.560  20.599  0.00  0.00     0.092 H 
ATOM     21  H   IDY d 142     -43.249  -1.168  21.720  0.00  0.00     0.133 H 
ATOM     22  H   IDY d 142     -41.731  -4.757  23.691  0.00  0.00     0.210 HD
ATOM     23  H   IDY d 142     -45.923  -2.453  23.713  0.00  0.00     0.066 H 
ATOM     24  H   IDY d 142     -44.453  -2.902  24.545  0.00  0.00     0.066 H 
ATOM     25  H   IDY d 142     -45.203  -4.020  23.433  0.00  0.00     0.066 H 
ATOM     26  H   IDY d 142     -40.576  -4.114  21.635  0.00  0.00     0.091 H 
ATOM     27  H   IDY d 142     -44.254  -4.484  20.564  0.00  0.00     0.104 H 
ATOM     28  O4  SGN d 141     -40.087  -3.011  15.444  0.00  0.00    -0.390 OA
ATOM     29  O6  SGN d 141     -39.820  -7.121  15.973  0.00  0.00    -0.254 OA
ATOM     30  O5S SGN d 141     -40.345  -8.197  13.954  0.00  0.00    -0.572 OA
ATOM     31  C2  SGN d 141     -38.906  -3.821  18.763  0.00  0.00     0.081 C 
ATOM     32  C3  SGN d 141     -39.317  -2.984  17.568  0.00  0.00     0.083 C 
ATOM     33  O3  SGN d 141     -38.313  -2.094  17.136  0.00  0.00    -0.391 OA
ATOM     34  O1S SGN d 141     -37.277  -1.855  21.507  0.00  0.00    -0.296 OA
ATOM     35  N   SGN d 141     -38.774  -2.985  19.929  0.00  0.00    -0.210 NA
ATOM     36  C1  SGN d 141     -39.968  -4.893  19.008  0.00  0.00     0.150 C 
ATOM     37  C6  SGN d 141     -40.606  -6.015  15.597  0.00  0.00     0.067 C 
ATOM     38  O2S SGN d 141     -36.432  -3.274  19.827  0.00  0.00    -0.296 OA
ATOM     39  O3S SGN d 141     -37.569  -4.226  21.651  0.00  0.00    -0.296 OA
ATOM     40  S1  SGN d 141     -37.460  -3.082  20.794  0.00  0.00     0.156 S 
ATOM     41  O4S SGN d 141     -39.116  -9.420  15.607  0.00  0.00    -0.572 OA
ATOM     42  O5  SGN d 141     -40.181  -5.706  17.869  0.00  0.00    -0.349 OA
ATOM     43  C4  SGN d 141     -39.581  -3.896  16.401  0.00  0.00     0.089 C 
ATOM     44  O6S SGN d 141     -41.456  -8.931  15.933  0.00  0.00    -0.572 OA
ATOM     45  S2  SGN d 141     -40.194  -8.487  15.355  0.00  0.00     0.251 S 
ATOM     46  C5  SGN d 141     -40.575  -5.006  16.721  0.00  0.00     0.090 C 
ATOM     47  H   SGN d 141     -39.431  -2.320  15.264  0.00  0.00     0.210 HD
ATOM     48  H   SGN d 141     -37.962  -4.287  18.568  0.00  0.00     0.076 H 
ATOM     49  H   SGN d 141     -40.174  -2.425  17.879  0.00  0.00     0.089 H 
ATOM     50  H   SGN d 141     -37.534  -2.598  16.852  0.00  0.00     0.210 HD
ATOM     51  H   SGN d 141     -37.211  -1.121  20.875  0.00  0.00     0.231 HD
ATOM     52  H   SGN d 141     -39.555  -3.207  20.545  0.00  0.00     0.140 HD
ATOM     53  H   SGN d 141     -39.608  -5.514  19.802  0.00  0.00     0.131 H 
ATOM     54  H   SGN d 141     -41.614  -6.330  15.421  0.00  0.00     0.080 H 
ATOM     55  H   SGN d 141     -40.222  -5.578  14.699  0.00  0.00     0.080 H 
ATOM     56  H   SGN d 141     -36.373  -2.491  19.258  0.00  0.00     0.231 HD
ATOM     57  H   SGN d 141     -38.273  -4.077  22.301  0.00  0.00     0.231 HD
ATOM     58  H   SGN d 141     -38.708  -4.428  16.088  0.00  0.00     0.091 H 
ATOM     59  H   SGN d 141     -41.530  -4.545  16.863  0.00  0.00     0.090 H 
ENDROOT
TORSDOF 18
ENDMDL
MODEL 19
REMARK VINA RESULT:      -5.2      2.448      7.076
REMARK  0 active torsions:
REMARK  status: ('A' for Active; 'I' for Inactive)
REMARK       I    between atoms: C2_2  and  O2_34 
REMARK       I    between atoms: O4_3  and  C4_29 
REMARK       I    between atoms: O6_4  and  C6_17 
REMARK       I    between atoms: O6_4  and  S2_35 
REMARK       I    between atoms: C2_6  and  N_15 
REMARK       I    between atoms: O1_8  and  C1_19 
REMARK       I    between atoms: O1_8  and  C7_24 
REMARK       I    between atoms: C4_9  and  O4_22 
REMARK       I    between atoms: C3_10  and  O3_13 
REMARK       I    between atoms: O1S_14  and  S1_21 
REMARK       I    between atoms: N_15  and  S1_21 
REMARK       I    between atoms: C1_16  and  O4_22 
REMARK       I    between atoms: C6_17  and  C5_36 
REMARK       I    between atoms: O2S_18  and  S1_21 
REMARK       I    between atoms: O3S_20  and  S1_21 
REMARK       I    between atoms: O3_23  and  C3_25 
REMARK       I    between atoms: S_28  and  O2_34 
REMARK       I    between atoms: C6_32  and  C5_33 
ROOT
ATOM      1  OS3 IDY d 142     -39.555  -9.395  16.000  0.00  0.00    -0.572 OA
ATOM      2  C2  IDY d 142     -40.830  -7.926  18.160  0.00  0.00     0.134 C 
ATOM      3  O61 IDY d 142     -37.556  -5.934  21.823  0.00  0.00    -0.646 OA
ATOM      4  O1  IDY d 142     -39.754  -9.652  19.221  0.00  0.00    -0.363 OA
ATOM      5  C4  IDY d 142     -40.446  -6.207  19.973  0.00  0.00     0.103 C 
ATOM      6  OS2 IDY d 142     -41.684  -8.592  15.197  0.00  0.00    -0.572 OA
ATOM      7  O62 IDY d 142     -37.370  -5.507  19.540  0.00  0.00    -0.646 OA
ATOM      8  C1  IDY d 142     -39.560  -8.580  18.638  0.00  0.00     0.160 C 
ATOM      9  O4  IDY d 142     -40.116  -4.875  19.351  0.00  0.00    -0.348 OA
ATOM     10  O3  IDY d 142     -42.376  -7.688  19.992  0.00  0.00    -0.390 OA
ATOM     11  C7  IDY d 142     -40.346 -10.709  19.953  0.00  0.00     0.007 C 
ATOM     12  C3  IDY d 142     -41.421  -6.950  19.124  0.00  0.00     0.094 C 
ATOM     13  S   IDY d 142     -40.347  -8.165  15.666  0.00  0.00     0.252 S 
ATOM     14  O5  IDY d 142     -38.614  -7.719  19.239  0.00  0.00    -0.340 OA
ATOM     15  C6  IDY d 142     -38.062  -5.926  20.617  0.00  0.00     0.206 C 
ATOM     16  C5  IDY d 142     -39.151  -6.929  20.312  0.00  0.00     0.152 C 
ATOM     17  O2  IDY d 142     -40.529  -7.301  16.894  0.00  0.00    -0.244 OA
ATOM     18  OS1 IDY d 142     -39.693  -7.364  14.621  0.00  0.00    -0.572 OA
ATOM     19  H   IDY d 142     -41.584  -8.678  18.060  0.00  0.00     0.097 H 
ATOM     20  H   IDY d 142     -40.958  -6.099  20.906  0.00  0.00     0.092 H 
ATOM     21  H   IDY d 142     -39.046  -8.854  17.740  0.00  0.00     0.133 H 
ATOM     22  H   IDY d 142     -43.011  -8.170  19.438  0.00  0.00     0.210 HD
ATOM     23  H   IDY d 142     -39.643 -11.510  20.056  0.00  0.00     0.066 H 
ATOM     24  H   IDY d 142     -41.214 -11.060  19.435  0.00  0.00     0.066 H 
ATOM     25  H   IDY d 142     -40.628 -10.356  20.923  0.00  0.00     0.066 H 
ATOM     26  H   IDY d 142     -41.895  -6.192  18.535  0.00  0.00     0.091 H 
ATOM     27  H   IDY d 142     -39.411  -7.560  21.137  0.00  0.00     0.104 H 
ATOM     28  O4  SGN d 141     -37.378  -1.800  18.233  0.00  0.00    -0.390 OA
ATOM     29  O6  SGN d 141     -39.964  -0.678  21.281  0.00  0.00    -0.254 OA
ATOM     30  O5S SGN d 141     -38.858   0.801  22.729  0.00  0.00    -0.572 OA
ATOM     31  C2  SGN d 141     -40.672  -3.197  17.723  0.00  0.00     0.081 C 
ATOM     32  C3  SGN d 141     -39.216  -2.862  17.463  0.00  0.00     0.083 C 
ATOM     33  O3  SGN d 141     -39.001  -2.225  16.224  0.00  0.00    -0.391 OA
ATOM     34  O1S SGN d 141     -42.403  -4.809  14.815  0.00  0.00    -0.296 OA
ATOM     35  N   SGN d 141     -41.112  -4.226  16.815  0.00  0.00    -0.210 NA
ATOM     36  C1  SGN d 141     -40.822  -3.676  19.167  0.00  0.00     0.150 C 
ATOM     37  C6  SGN d 141     -38.732  -1.250  20.912  0.00  0.00     0.067 C 
ATOM     38  O2S SGN d 141     -42.426  -2.621  15.687  0.00  0.00    -0.296 OA
ATOM     39  O3S SGN d 141     -43.550  -4.320  16.858  0.00  0.00    -0.296 OA
ATOM     40  S1  SGN d 141     -42.444  -4.010  16.001  0.00  0.00     0.156 S 
ATOM     41  O4S SGN d 141     -41.254   0.767  22.753  0.00  0.00    -0.572 OA
ATOM     42  O5  SGN d 141     -40.347  -2.723  20.099  0.00  0.00    -0.349 OA
ATOM     43  C4  SGN d 141     -38.745  -1.890  18.508  0.00  0.00     0.089 C 
ATOM     44  O6S SGN d 141     -39.992  -1.064  23.690  0.00  0.00    -0.572 OA
ATOM     45  S2  SGN d 141     -40.039  -0.018  22.677  0.00  0.00     0.251 S 
ATOM     46  C5  SGN d 141     -39.002  -2.368  19.932  0.00  0.00     0.090 C 
ATOM     47  H   SGN d 141     -37.250  -1.493  17.321  0.00  0.00     0.210 HD
ATOM     48  H   SGN d 141     -41.274  -2.325  17.568  0.00  0.00     0.076 H 
ATOM     49  H   SGN d 141     -38.692  -3.795  17.476  0.00  0.00     0.089 H 
ATOM     50  H   SGN d 141     -39.475  -1.379  16.209  0.00  0.00     0.210 HD
ATOM     51  H   SGN d 141     -41.636  -4.554  14.279  0.00  0.00     0.231 HD
ATOM     52  H   SGN d 141     -41.231  -5.077  17.364  0.00  0.00     0.140 HD
ATOM     53  H   SGN d 141     -41.867  -3.824  19.340  0.00  0.00     0.131 H 
ATOM     54  H   SGN d 141     -38.241  -1.640  21.779  0.00  0.00     0.080 H 
ATOM     55  H   SGN d 141     -38.102  -0.511  20.464  0.00  0.00     0.080 H 
ATOM     56  H   SGN d 141     -41.672  -2.430  15.107  0.00  0.00     0.231 HD
ATOM     57  H   SGN d 141     -43.546  -5.268  17.062  0.00  0.00     0.231 HD
ATOM     58  H   SGN d 141     -39.263  -0.955  18.464  0.00  0.00     0.091 H 
ATOM     59  H   SGN d 141     -38.360  -3.207  20.105  0.00  0.00     0.090 H 
ENDROOT
TORSDOF 18
ENDMDL
MODEL 20
REMARK VINA RESULT:      -5.2      3.421      6.505
REMARK  0 active torsions:
REMARK  status: ('A' for Active; 'I' for Inactive)
REMARK       I    between atoms: C2_2  and  O2_34 
REMARK       I    between atoms: O4_3  and  C4_29 
REMARK       I    between atoms: O6_4  and  C6_17 
REMARK       I    between atoms: O6_4  and  S2_35 
REMARK       I    between atoms: C2_6  and  N_15 
REMARK       I    between atoms: O1_8  and  C1_19 
REMARK       I    between atoms: O1_8  and  C7_24 
REMARK       I    between atoms: C4_9  and  O4_22 
REMARK       I    between atoms: C3_10  and  O3_13 
REMARK       I    between atoms: O1S_14  and  S1_21 
REMARK       I    between atoms: N_15  and  S1_21 
REMARK       I    between atoms: C1_16  and  O4_22 
REMARK       I    between atoms: C6_17  and  C5_36 
REMARK       I    between atoms: O2S_18  and  S1_21 
REMARK       I    between atoms: O3S_20  and  S1_21 
REMARK       I    between atoms: O3_23  and  C3_25 
REMARK       I    between atoms: S_28  and  O2_34 
REMARK       I    between atoms: C6_32  and  C5_33 
ROOT
ATOM      1  OS3 IDY d 142     -36.064  -8.566  15.993  0.00  0.00    -0.572 OA
ATOM      2  C2  IDY d 142     -38.428  -8.175  17.638  0.00  0.00     0.134 C 
ATOM      3  O61 IDY d 142     -37.832  -4.903  21.768  0.00  0.00    -0.646 OA
ATOM      4  O1  IDY d 142     -36.886  -9.066  19.085  0.00  0.00    -0.363 OA
ATOM      5  C4  IDY d 142     -39.521  -6.635  19.319  0.00  0.00     0.103 C 
ATOM      6  OS2 IDY d 142     -38.001  -9.039  14.635  0.00  0.00    -0.572 OA
ATOM      7  O62 IDY d 142     -37.348  -4.320  19.564  0.00  0.00    -0.646 OA
ATOM      8  C1  IDY d 142     -37.176  -8.037  18.465  0.00  0.00     0.160 C 
ATOM      9  O4  IDY d 142     -39.837  -5.312  18.669  0.00  0.00    -0.348 OA
ATOM     10  O3  IDY d 142     -40.249  -8.937  19.020  0.00  0.00    -0.390 OA
ATOM     11  C7  IDY d 142     -36.959 -10.312  19.752  0.00  0.00     0.007 C 
ATOM     12  C3  IDY d 142     -39.678  -7.747  18.338  0.00  0.00     0.094 C 
ATOM     13  S   IDY d 142     -37.289  -7.967  15.365  0.00  0.00     0.252 S 
ATOM     14  O5  IDY d 142     -37.047  -6.830  19.188  0.00  0.00    -0.340 OA
ATOM     15  C6  IDY d 142     -37.938  -5.112  20.481  0.00  0.00     0.206 C 
ATOM     16  C5  IDY d 142     -38.177  -6.532  20.023  0.00  0.00     0.152 C 
ATOM     17  O2  IDY d 142     -38.216  -7.419  16.426  0.00  0.00    -0.244 OA
ATOM     18  OS1 IDY d 142     -36.947  -6.882  14.434  0.00  0.00    -0.572 OA
ATOM     19  H   IDY d 142     -38.590  -9.213  17.434  0.00  0.00     0.097 H 
ATOM     20  H   IDY d 142     -40.222  -6.881  20.089  0.00  0.00     0.092 H 
ATOM     21  H   IDY d 142     -36.391  -7.929  17.745  0.00  0.00     0.133 H 
ATOM     22  H   IDY d 142     -40.350  -9.659  18.379  0.00  0.00     0.210 HD
ATOM     23  H   IDY d 142     -35.984 -10.591  20.094  0.00  0.00     0.066 H 
ATOM     24  H   IDY d 142     -37.327 -11.057  19.079  0.00  0.00     0.066 H 
ATOM     25  H   IDY d 142     -37.620 -10.230  20.589  0.00  0.00     0.066 H 
ATOM     26  H   IDY d 142     -40.325  -7.349  17.583  0.00  0.00     0.091 H 
ATOM     27  H   IDY d 142     -38.243  -7.246  20.818  0.00  0.00     0.104 H 
ATOM     28  O4  SGN d 141     -39.069  -1.178  17.946  0.00  0.00    -0.390 OA
ATOM     29  O6  SGN d 141     -42.508  -1.853  20.171  0.00  0.00    -0.254 OA
ATOM     30  O5S SGN d 141     -42.804  -0.091  21.693  0.00  0.00    -0.572 OA
ATOM     31  C2  SGN d 141     -40.797  -4.140  16.803  0.00  0.00     0.081 C 
ATOM     32  C3  SGN d 141     -39.756  -3.040  16.866  0.00  0.00     0.083 C 
ATOM     33  O3  SGN d 141     -39.626  -2.323  15.659  0.00  0.00    -0.391 OA
ATOM     34  O1S SGN d 141     -40.561  -6.281  13.735  0.00  0.00    -0.296 OA
ATOM     35  N   SGN d 141     -40.353  -5.189  15.919  0.00  0.00    -0.210 NA
ATOM     36  C1  SGN d 141     -41.013  -4.701  18.209  0.00  0.00     0.150 C 
ATOM     37  C6  SGN d 141     -41.120  -1.623  20.162  0.00  0.00     0.067 C 
ATOM     38  O2S SGN d 141     -42.002  -4.526  14.364  0.00  0.00    -0.296 OA
ATOM     39  O3S SGN d 141     -42.255  -6.624  15.391  0.00  0.00    -0.296 OA
ATOM     40  S1  SGN d 141     -41.330  -5.706  14.796  0.00  0.00     0.156 S 
ATOM     41  O4S SGN d 141     -44.699  -1.453  21.151  0.00  0.00    -0.572 OA
ATOM     42  O5  SGN d 141     -41.392  -3.697  19.133  0.00  0.00    -0.349 OA
ATOM     43  C4  SGN d 141     -40.178  -2.028  17.895  0.00  0.00     0.089 C 
ATOM     44  O6S SGN d 141     -42.920  -2.321  22.530  0.00  0.00    -0.572 OA
ATOM     45  S2  SGN d 141     -43.280  -1.424  21.440  0.00  0.00     0.251 S 
ATOM     46  C5  SGN d 141     -40.474  -2.646  19.256  0.00  0.00     0.090 C 
ATOM     47  H   SGN d 141     -38.909  -0.803  17.065  0.00  0.00     0.210 HD
ATOM     48  H   SGN d 141     -41.717  -3.744  16.428  0.00  0.00     0.076 H 
ATOM     49  H   SGN d 141     -38.829  -3.522  17.091  0.00  0.00     0.089 H 
ATOM     50  H   SGN d 141     -40.466  -1.884  15.451  0.00  0.00     0.210 HD
ATOM     51  H   SGN d 141     -39.957  -5.613  13.375  0.00  0.00     0.231 HD
ATOM     52  H   SGN d 141     -40.117  -5.991  16.503  0.00  0.00     0.140 HD
ATOM     53  H   SGN d 141     -41.808  -5.414  18.142  0.00  0.00     0.131 H 
ATOM     54  H   SGN d 141     -40.730  -1.720  21.154  0.00  0.00     0.080 H 
ATOM     55  H   SGN d 141     -40.913  -0.635  19.808  0.00  0.00     0.080 H 
ATOM     56  H   SGN d 141     -41.361  -3.917  13.964  0.00  0.00     0.231 HD
ATOM     57  H   SGN d 141     -41.780  -7.420  15.679  0.00  0.00     0.231 HD
ATOM     58  H   SGN d 141     -41.094  -1.538  17.641  0.00  0.00     0.091 H 
ATOM     59  H   SGN d 141     -39.545  -2.994  19.656  0.00  0.00     0.090 H 
ENDROOT
TORSDOF 18
ENDMDL
MODEL 21
REMARK VINA RESULT:      -5.2      3.607      7.032
REMARK  0 active torsions:
REMARK  status: ('A' for Active; 'I' for Inactive)
REMARK       I    between atoms: C2_2  and  O2_34 
REMARK       I    between atoms: O4_3  and  C4_29 
REMARK       I    between atoms: O6_4  and  C6_17 
REMARK       I    between atoms: O6_4  and  S2_35 
REMARK       I    between atoms: C2_6  and  N_15 
REMARK       I    between atoms: O1_8  and  C1_19 
REMARK       I    between atoms: O1_8  and  C7_24 
REMARK       I    between atoms: C4_9  and  O4_22 
REMARK       I    between atoms: C3_10  and  O3_13 
REMARK       I    between atoms: O1S_14  and  S1_21 
REMARK       I    between atoms: N_15  and  S1_21 
REMARK       I    between atoms: C1_16  and  O4_22 
REMARK       I    between atoms: C6_17  and  C5_36 
REMARK       I    between atoms: O2S_18  and  S1_21 
REMARK       I    between atoms: O3S_20  and  S1_21 
REMARK       I    between atoms: O3_23  and  C3_25 
REMARK       I    between atoms: S_28  and  O2_34 
REMARK       I    between atoms: C6_32  and  C5_33 
ROOT
ATOM      1  OS3 IDY d 142     -36.459 -10.173  16.105  0.00  0.00    -0.572 OA
ATOM      2  C2  IDY d 142     -38.675  -9.266  17.753  0.00  0.00     0.134 C 
ATOM      3  O61 IDY d 142     -37.621  -5.182  20.966  0.00  0.00    -0.646 OA
ATOM      4  O1  IDY d 142     -37.077  -9.900  19.272  0.00  0.00    -0.363 OA
ATOM      5  C4  IDY d 142     -39.566  -7.316  19.092  0.00  0.00     0.103 C 
ATOM      6  OS2 IDY d 142     -38.511 -10.819  15.013  0.00  0.00    -0.572 OA
ATOM      7  O62 IDY d 142     -37.271  -5.151  18.663  0.00  0.00    -0.646 OA
ATOM      8  C1  IDY d 142     -37.361  -9.024  18.449  0.00  0.00     0.160 C 
ATOM      9  O4  IDY d 142     -39.863  -6.159  18.172  0.00  0.00    -0.348 OA
ATOM     10  O3  IDY d 142     -40.426  -9.574  19.380  0.00  0.00    -0.390 OA
ATOM     11  C7  IDY d 142     -37.162 -10.953  20.214  0.00  0.00     0.007 C 
ATOM     12  C3  IDY d 142     -39.848  -8.610  18.407  0.00  0.00     0.094 C 
ATOM     13  S   IDY d 142     -37.696  -9.657  15.430  0.00  0.00     0.252 S 
ATOM     14  O5  IDY d 142     -37.121  -7.694  18.862  0.00  0.00    -0.340 OA
ATOM     15  C6  IDY d 142     -37.830  -5.672  19.771  0.00  0.00     0.206 C 
ATOM     16  C5  IDY d 142     -38.171  -7.141  19.671  0.00  0.00     0.152 C 
ATOM     17  O2  IDY d 142     -38.516  -8.822  16.388  0.00  0.00    -0.244 OA
ATOM     18  OS1 IDY d 142     -37.370  -8.837  14.253  0.00  0.00    -0.572 OA
ATOM     19  H   IDY d 142     -38.902 -10.310  17.806  0.00  0.00     0.097 H 
ATOM     20  H   IDY d 142     -40.220  -7.334  19.938  0.00  0.00     0.092 H 
ATOM     21  H   IDY d 142     -36.627  -9.134  17.678  0.00  0.00     0.133 H 
ATOM     22  H   IDY d 142     -40.608 -10.415  18.932  0.00  0.00     0.210 HD
ATOM     23  H   IDY d 142     -36.179 -11.209  20.553  0.00  0.00     0.066 H 
ATOM     24  H   IDY d 142     -37.614 -11.807  19.755  0.00  0.00     0.066 H 
ATOM     25  H   IDY d 142     -37.755 -10.640  21.047  0.00  0.00     0.066 H 
ATOM     26  H   IDY d 142     -40.528  -8.354  17.620  0.00  0.00     0.091 H 
ATOM     27  H   IDY d 142     -38.214  -7.648  20.613  0.00  0.00     0.104 H 
ATOM     28  O4  SGN d 141     -38.950  -2.358  16.464  0.00  0.00    -0.390 OA
ATOM     29  O6  SGN d 141     -42.247  -2.284  18.986  0.00  0.00    -0.254 OA
ATOM     30  O5S SGN d 141     -42.344  -0.205  20.072  0.00  0.00    -0.572 OA
ATOM     31  C2  SGN d 141     -40.899  -5.385  16.146  0.00  0.00     0.081 C 
ATOM     32  C3  SGN d 141     -39.804  -4.369  15.889  0.00  0.00     0.083 C 
ATOM     33  O3  SGN d 141     -39.727  -3.957  14.543  0.00  0.00    -0.391 OA
ATOM     34  O1S SGN d 141     -40.992  -8.181  13.651  0.00  0.00    -0.296 OA
ATOM     35  N   SGN d 141     -40.573  -6.634  15.505  0.00  0.00    -0.210 NA
ATOM     36  C1  SGN d 141     -41.039  -5.594  17.654  0.00  0.00     0.150 C 
ATOM     37  C6  SGN d 141     -40.853  -2.151  18.841  0.00  0.00     0.067 C 
ATOM     38  O2S SGN d 141     -42.296  -6.240  13.939  0.00  0.00    -0.296 OA
ATOM     39  O3S SGN d 141     -42.575  -8.027  15.439  0.00  0.00    -0.296 OA
ATOM     40  S1  SGN d 141     -41.653  -7.330  14.593  0.00  0.00     0.156 S 
ATOM     41  O4S SGN d 141     -44.338  -1.530  19.975  0.00  0.00    -0.572 OA
ATOM     42  O5  SGN d 141     -41.300  -4.384  18.340  0.00  0.00    -0.349 OA
ATOM     43  C4  SGN d 141     -40.099  -3.123  16.679  0.00  0.00     0.089 C 
ATOM     44  O6S SGN d 141     -42.507  -2.172  21.410  0.00  0.00    -0.572 OA
ATOM     45  S2  SGN d 141     -42.902  -1.527  20.165  0.00  0.00     0.251 S 
ATOM     46  C5  SGN d 141     -40.326  -3.394  18.161  0.00  0.00     0.090 C 
ATOM     47  H   SGN d 141     -38.836  -2.205  15.513  0.00  0.00     0.210 HD
ATOM     48  H   SGN d 141     -41.823  -5.027  15.744  0.00  0.00     0.076 H 
ATOM     49  H   SGN d 141     -38.887  -4.845  16.165  0.00  0.00     0.089 H 
ATOM     50  H   SGN d 141     -40.557  -3.524  14.289  0.00  0.00     0.210 HD
ATOM     51  H   SGN d 141     -40.383  -7.653  13.110  0.00  0.00     0.231 HD
ATOM     52  H   SGN d 141     -40.334  -7.295  16.244  0.00  0.00     0.140 HD
ATOM     53  H   SGN d 141     -41.870  -6.251  17.802  0.00  0.00     0.131 H 
ATOM     54  H   SGN d 141     -40.397  -2.044  19.804  0.00  0.00     0.080 H 
ATOM     55  H   SGN d 141     -40.624  -1.286  18.255  0.00  0.00     0.080 H 
ATOM     56  H   SGN d 141     -41.657  -5.781  13.372  0.00  0.00     0.231 HD
ATOM     57  H   SGN d 141     -42.120  -8.764  15.875  0.00  0.00     0.231 HD
ATOM     58  H   SGN d 141     -41.006  -2.647  16.373  0.00  0.00     0.091 H 
ATOM     59  H   SGN d 141     -39.388  -3.701  18.575  0.00  0.00     0.090 H 
ENDROOT
TORSDOF 18
ENDMDL
MODEL 22
REMARK VINA RESULT:      -5.2      2.763      6.638
REMARK  0 active torsions:
REMARK  status: ('A' for Active; 'I' for Inactive)
REMARK       I    between atoms: C2_2  and  O2_34 
REMARK       I    between atoms: O4_3  and  C4_29 
REMARK       I    between atoms: O6_4  and  C6_17 
REMARK       I    between atoms: O6_4  and  S2_35 
REMARK       I    between atoms: C2_6  and  N_15 
REMARK       I    between atoms: O1_8  and  C1_19 
REMARK       I    between atoms: O1_8  and  C7_24 
REMARK       I    between atoms: C4_9  and  O4_22 
REMARK       I    between atoms: C3_10  and  O3_13 
REMARK       I    between atoms: O1S_14  and  S1_21 
REMARK       I    between atoms: N_15  and  S1_21 
REMARK       I    between atoms: C1_16  and  O4_22 
REMARK       I    between atoms: C6_17  and  C5_36 
REMARK       I    between atoms: O2S_18  and  S1_21 
REMARK       I    between atoms: O3S_20  and  S1_21 
REMARK       I    between atoms: O3_23  and  C3_25 
REMARK       I    between atoms: S_28  and  O2_34 
REMARK       I    between atoms: C6_32  and  C5_33 
ROOT
ATOM      1  OS3 IDY d 142     -45.000  -5.169  19.289  0.00  0.00    -0.572 OA
ATOM      2  C2  IDY d 142     -43.153  -3.053  20.038  0.00  0.00     0.134 C 
ATOM      3  O61 IDY d 142     -39.431  -4.400  23.565  0.00  0.00    -0.646 OA
ATOM      4  O1  IDY d 142     -44.167  -3.631  22.014  0.00  0.00    -0.363 OA
ATOM      5  C4  IDY d 142     -40.876  -2.578  21.027  0.00  0.00     0.103 C 
ATOM      6  OS2 IDY d 142     -44.948  -3.557  17.494  0.00  0.00    -0.572 OA
ATOM      7  O62 IDY d 142     -39.788  -5.524  21.555  0.00  0.00    -0.646 OA
ATOM      8  C1  IDY d 142     -43.344  -4.020  21.178  0.00  0.00     0.160 C 
ATOM      9  O4  IDY d 142     -39.801  -3.099  20.107  0.00  0.00    -0.348 OA
ATOM     10  O3  IDY d 142     -42.602  -0.869  20.893  0.00  0.00    -0.390 OA
ATOM     11  C7  IDY d 142     -45.000  -2.818  22.818  0.00  0.00     0.007 C 
ATOM     12  C3  IDY d 142     -42.038  -2.078  20.238  0.00  0.00     0.094 C 
ATOM     13  S   IDY d 142     -44.137  -4.555  18.226  0.00  0.00     0.252 S 
ATOM     14  O5  IDY d 142     -42.164  -4.594  21.700  0.00  0.00    -0.340 OA
ATOM     15  C6  IDY d 142     -39.936  -4.454  22.360  0.00  0.00     0.206 C 
ATOM     16  C5  IDY d 142     -41.173  -3.629  22.086  0.00  0.00     0.152 C 
ATOM     17  O2  IDY d 142     -42.956  -3.843  18.846  0.00  0.00    -0.244 OA
ATOM     18  OS1 IDY d 142     -43.634  -5.566  17.283  0.00  0.00    -0.572 OA
ATOM     19  H   IDY d 142     -44.024  -2.436  19.964  0.00  0.00     0.097 H 
ATOM     20  H   IDY d 142     -40.554  -1.716  21.572  0.00  0.00     0.092 H 
ATOM     21  H   IDY d 142     -43.806  -4.875  20.727  0.00  0.00     0.133 H 
ATOM     22  H   IDY d 142     -43.358  -0.545  20.378  0.00  0.00     0.210 HD
ATOM     23  H   IDY d 142     -45.565  -3.435  23.485  0.00  0.00     0.066 H 
ATOM     24  H   IDY d 142     -45.668  -2.263  22.193  0.00  0.00     0.066 H 
ATOM     25  H   IDY d 142     -44.397  -2.140  23.385  0.00  0.00     0.066 H 
ATOM     26  H   IDY d 142     -41.636  -1.876  19.267  0.00  0.00     0.091 H 
ATOM     27  H   IDY d 142     -41.519  -3.063  22.926  0.00  0.00     0.104 H 
ATOM     28  O4  SGN d 141     -36.832  -5.955  19.000  0.00  0.00    -0.390 OA
ATOM     29  O6  SGN d 141     -35.252  -2.287  20.132  0.00  0.00    -0.254 OA
ATOM     30  O5S SGN d 141     -33.181  -2.627  21.183  0.00  0.00    -0.572 OA
ATOM     31  C2  SGN d 141     -38.926  -3.234  17.873  0.00  0.00     0.081 C 
ATOM     32  C3  SGN d 141     -38.428  -4.651  18.075  0.00  0.00     0.083 C 
ATOM     33  O3  SGN d 141     -38.227  -5.351  16.869  0.00  0.00    -0.391 OA
ATOM     34  O1S SGN d 141     -41.742  -2.950  15.415  0.00  0.00    -0.296 OA
ATOM     35  N   SGN d 141     -40.269  -3.253  17.350  0.00  0.00    -0.210 NA
ATOM     36  C1  SGN d 141     -38.899  -2.500  19.214  0.00  0.00     0.150 C 
ATOM     37  C6  SGN d 141     -35.667  -3.576  20.515  0.00  0.00     0.067 C 
ATOM     38  O2S SGN d 141     -39.436  -2.492  15.276  0.00  0.00    -0.296 OA
ATOM     39  O3S SGN d 141     -40.811  -1.031  16.499  0.00  0.00    -0.296 OA
ATOM     40  S1  SGN d 141     -40.608  -2.385  16.079  0.00  0.00     0.156 S 
ATOM     41  O4S SGN d 141     -33.667  -0.450  20.309  0.00  0.00    -0.572 OA
ATOM     42  O5  SGN d 141     -37.611  -2.505  19.801  0.00  0.00    -0.349 OA
ATOM     43  C4  SGN d 141     -37.084  -4.604  18.747  0.00  0.00     0.089 C 
ATOM     44  O6S SGN d 141     -34.783  -1.252  22.292  0.00  0.00    -0.572 OA
ATOM     45  S2  SGN d 141     -34.180  -1.606  21.014  0.00  0.00     0.251 S 
ATOM     46  C5  SGN d 141     -37.084  -3.783  20.031  0.00  0.00     0.090 C 
ATOM     47  H   SGN d 141     -36.839  -6.447  18.164  0.00  0.00     0.210 HD
ATOM     48  H   SGN d 141     -38.295  -2.727  17.173  0.00  0.00     0.076 H 
ATOM     49  H   SGN d 141     -39.179  -5.149  18.651  0.00  0.00     0.089 H 
ATOM     50  H   SGN d 141     -37.546  -4.902  16.344  0.00  0.00     0.210 HD
ATOM     51  H   SGN d 141     -41.544  -3.864  15.157  0.00  0.00     0.231 HD
ATOM     52  H   SGN d 141     -40.886  -2.938  18.100  0.00  0.00     0.140 HD
ATOM     53  H   SGN d 141     -39.177  -1.485  19.021  0.00  0.00     0.131 H 
ATOM     54  H   SGN d 141     -35.632  -3.665  21.581  0.00  0.00     0.080 H 
ATOM     55  H   SGN d 141     -35.020  -4.313  20.088  0.00  0.00     0.080 H 
ATOM     56  H   SGN d 141     -39.315  -3.414  15.001  0.00  0.00     0.231 HD
ATOM     57  H   SGN d 141     -41.612  -0.978  17.044  0.00  0.00     0.231 HD
ATOM     58  H   SGN d 141     -36.340  -4.125  18.147  0.00  0.00     0.091 H 
ATOM     59  H   SGN d 141     -37.671  -4.316  20.749  0.00  0.00     0.090 H 
ENDROOT
TORSDOF 18
ENDMDL
MODEL 23
REMARK VINA RESULT:      -5.2      3.270      6.585
REMARK  0 active torsions:
REMARK  status: ('A' for Active; 'I' for Inactive)
REMARK       I    between atoms: C2_2  and  O2_34 
REMARK       I    between atoms: O4_3  and  C4_29 
REMARK       I    between atoms: O6_4  and  C6_17 
REMARK       I    between atoms: O6_4  and  S2_35 
REMARK       I    between atoms: C2_6  and  N_15 
REMARK       I    between atoms: O1_8  and  C1_19 
REMARK       I    between atoms: O1_8  and  C7_24 
REMARK       I    between atoms: C4_9  and  O4_22 
REMARK       I    between atoms: C3_10  and  O3_13 
REMARK       I    between atoms: O1S_14  and  S1_21 
REMARK       I    between atoms: N_15  and  S1_21 
REMARK       I    between atoms: C1_16  and  O4_22 
REMARK       I    between atoms: C6_17  and  C5_36 
REMARK       I    between atoms: O2S_18  and  S1_21 
REMARK       I    between atoms: O3S_20  and  S1_21 
REMARK       I    between atoms: O3_23  and  C3_25 
REMARK       I    between atoms: S_28  and  O2_34 
REMARK       I    between atoms: C6_32  and  C5_33 
ROOT
ATOM      1  OS3 IDY d 142     -36.652  -7.909  14.608  0.00  0.00    -0.572 OA
ATOM      2  C2  IDY d 142     -38.503  -7.753  16.843  0.00  0.00     0.134 C 
ATOM      3  O61 IDY d 142     -36.852  -4.896  20.993  0.00  0.00    -0.646 OA
ATOM      4  O1  IDY d 142     -36.635  -8.741  17.737  0.00  0.00    -0.363 OA
ATOM      5  C4  IDY d 142     -39.121  -6.421  18.901  0.00  0.00     0.103 C 
ATOM      6  OS2 IDY d 142     -38.877  -8.299  13.759  0.00  0.00    -0.572 OA
ATOM      7  O62 IDY d 142     -36.962  -4.082  18.813  0.00  0.00    -0.646 OA
ATOM      8  C1  IDY d 142     -37.079  -7.663  17.325  0.00  0.00     0.160 C 
ATOM      9  O4  IDY d 142     -39.597  -5.049  18.497  0.00  0.00    -0.348 OA
ATOM     10  O3  IDY d 142     -39.899  -8.702  18.563  0.00  0.00    -0.390 OA
ATOM     11  C7  IDY d 142     -36.529 -10.048  18.267  0.00  0.00     0.007 C 
ATOM     12  C3  IDY d 142     -39.527  -7.433  17.884  0.00  0.00     0.094 C 
ATOM     13  S   IDY d 142     -38.000  -7.286  14.387  0.00  0.00     0.252 S 
ATOM     14  O5  IDY d 142     -36.767  -6.532  18.111  0.00  0.00    -0.340 OA
ATOM     15  C6  IDY d 142     -37.291  -4.978  19.763  0.00  0.00     0.206 C 
ATOM     16  C5  IDY d 142     -37.640  -6.351  19.238  0.00  0.00     0.152 C 
ATOM     17  O2  IDY d 142     -38.618  -6.874  15.703  0.00  0.00    -0.244 OA
ATOM     18  OS1 IDY d 142     -37.915  -6.103  13.516  0.00  0.00    -0.572 OA
ATOM     19  H   IDY d 142     -38.712  -8.769  16.581  0.00  0.00     0.097 H 
ATOM     20  H   IDY d 142     -39.595  -6.763  19.797  0.00  0.00     0.092 H 
ATOM     21  H   IDY d 142     -36.510  -7.461  16.441  0.00  0.00     0.133 H 
ATOM     22  H   IDY d 142     -40.163  -9.358  17.900  0.00  0.00     0.210 HD
ATOM     23  H   IDY d 142     -35.499 -10.333  18.313  0.00  0.00     0.066 H 
ATOM     24  H   IDY d 142     -37.061 -10.732  17.639  0.00  0.00     0.066 H 
ATOM     25  H   IDY d 142     -36.949 -10.070  19.251  0.00  0.00     0.066 H 
ATOM     26  H   IDY d 142     -40.350  -6.980  17.370  0.00  0.00     0.091 H 
ATOM     27  H   IDY d 142     -37.494  -7.143  19.944  0.00  0.00     0.104 H 
ATOM     28  O4  SGN d 141     -39.051  -0.844  18.035  0.00  0.00    -0.390 OA
ATOM     29  O6  SGN d 141     -41.787  -1.836  20.995  0.00  0.00    -0.254 OA
ATOM     30  O5S SGN d 141     -41.676  -0.245  22.717  0.00  0.00    -0.572 OA
ATOM     31  C2  SGN d 141     -41.014  -3.724  17.078  0.00  0.00     0.081 C 
ATOM     32  C3  SGN d 141     -39.994  -2.606  16.982  0.00  0.00     0.083 C 
ATOM     33  O3  SGN d 141     -40.185  -1.769  15.865  0.00  0.00    -0.391 OA
ATOM     34  O1S SGN d 141     -41.587  -5.539  13.849  0.00  0.00    -0.296 OA
ATOM     35  N   SGN d 141     -40.816  -4.666  16.005  0.00  0.00    -0.210 NA
ATOM     36  C1  SGN d 141     -40.854  -4.429  18.426  0.00  0.00     0.150 C 
ATOM     37  C6  SGN d 141     -40.450  -1.567  20.649  0.00  0.00     0.067 C 
ATOM     38  O2S SGN d 141     -42.815  -3.898  15.010  0.00  0.00    -0.296 OA
ATOM     39  O3S SGN d 141     -42.787  -6.095  15.843  0.00  0.00    -0.296 OA
ATOM     40  S1  SGN d 141     -42.052  -5.095  15.127  0.00  0.00     0.156 S 
ATOM     41  O4S SGN d 141     -43.645  -1.599  22.547  0.00  0.00    -0.572 OA
ATOM     42  O5  SGN d 141     -40.979  -3.534  19.516  0.00  0.00    -0.349 OA
ATOM     43  C4  SGN d 141     -40.133  -1.715  18.186  0.00  0.00     0.089 C 
ATOM     44  O6S SGN d 141     -41.566  -2.550  23.318  0.00  0.00    -0.572 OA
ATOM     45  S2  SGN d 141     -42.201  -1.559  22.459  0.00  0.00     0.251 S 
ATOM     46  C5  SGN d 141     -40.062  -2.475  19.505  0.00  0.00     0.090 C 
ATOM     47  H   SGN d 141     -39.127  -0.377  17.187  0.00  0.00     0.210 HD
ATOM     48  H   SGN d 141     -42.001  -3.318  16.999  0.00  0.00     0.076 H 
ATOM     49  H   SGN d 141     -39.040  -3.082  16.908  0.00  0.00     0.089 H 
ATOM     50  H   SGN d 141     -41.051  -1.335  15.930  0.00  0.00     0.210 HD
ATOM     51  H   SGN d 141     -41.098  -4.821  13.415  0.00  0.00     0.231 HD
ATOM     52  H   SGN d 141     -40.434  -5.515  16.420  0.00  0.00     0.140 HD
ATOM     53  H   SGN d 141     -41.637  -5.154  18.494  0.00  0.00     0.131 H 
ATOM     54  H   SGN d 141     -39.814  -1.752  21.490  0.00  0.00     0.080 H 
ATOM     55  H   SGN d 141     -40.344  -0.542  20.358  0.00  0.00     0.080 H 
ATOM     56  H   SGN d 141     -42.302  -3.234  14.524  0.00  0.00     0.231 HD
ATOM     57  H   SGN d 141     -42.253  -6.901  15.913  0.00  0.00     0.231 HD
ATOM     58  H   SGN d 141     -41.084  -1.229  18.231  0.00  0.00     0.091 H 
ATOM     59  H   SGN d 141     -39.060  -2.835  19.611  0.00  0.00     0.090 H 
ENDROOT
TORSDOF 18
ENDMDL
MODEL 24
REMARK VINA RESULT:      -5.1      3.178      6.253
REMARK  0 active torsions:
REMARK  status: ('A' for Active; 'I' for Inactive)
REMARK       I    between atoms: C2_2  and  O2_34 
REMARK       I    between atoms: O4_3  and  C4_29 
REMARK       I    between atoms: O6_4  and  C6_17 
REMARK       I    between atoms: O6_4  and  S2_35 
REMARK       I    between atoms: C2_6  and  N_15 
REMARK       I    between atoms: O1_8  and  C1_19 
REMARK       I    between atoms: O1_8  and  C7_24 
REMARK       I    between atoms: C4_9  and  O4_22 
REMARK       I    between atoms: C3_10  and  O3_13 
REMARK       I    between atoms: O1S_14  and  S1_21 
REMARK       I    between atoms: N_15  and  S1_21 
REMARK       I    between atoms: C1_16  and  O4_22 
REMARK       I    between atoms: C6_17  and  C5_36 
REMARK       I    between atoms: O2S_18  and  S1_21 
REMARK       I    between atoms: O3S_20  and  S1_21 
REMARK       I    between atoms: O3_23  and  C3_25 
REMARK       I    between atoms: S_28  and  O2_34 
REMARK       I    between atoms: C6_32  and  C5_33 
ROOT
ATOM      1  OS3 IDY d 142     -40.625  -0.502  17.002  0.00  0.00    -0.572 OA
ATOM      2  C2  IDY d 142     -41.197  -2.897  18.547  0.00  0.00     0.134 C 
ATOM      3  O61 IDY d 142     -38.933  -7.357  16.789  0.00  0.00    -0.646 OA
ATOM      4  O1  IDY d 142     -42.012  -3.377  16.457  0.00  0.00    -0.363 OA
ATOM      5  C4  IDY d 142     -40.394  -5.235  19.073  0.00  0.00     0.103 C 
ATOM      6  OS2 IDY d 142     -41.212   0.180  19.241  0.00  0.00    -0.572 OA
ATOM      7  O62 IDY d 142     -37.755  -5.412  17.300  0.00  0.00    -0.646 OA
ATOM      8  C1  IDY d 142     -40.965  -3.242  17.099  0.00  0.00     0.160 C 
ATOM      9  O4  IDY d 142     -39.069  -5.171  19.788  0.00  0.00    -0.348 OA
ATOM     10  O3  IDY d 142     -42.668  -4.517  19.556  0.00  0.00    -0.390 OA
ATOM     11  C7  IDY d 142     -43.360  -3.615  16.098  0.00  0.00     0.007 C 
ATOM     12  C3  IDY d 142     -41.251  -4.079  19.461  0.00  0.00     0.094 C 
ATOM     13  S   IDY d 142     -40.203  -0.550  18.442  0.00  0.00     0.252 S 
ATOM     14  O5  IDY d 142     -39.964  -4.207  16.851  0.00  0.00    -0.340 OA
ATOM     15  C6  IDY d 142     -38.854  -6.187  17.370  0.00  0.00     0.206 C 
ATOM     16  C5  IDY d 142     -40.144  -5.429  17.585  0.00  0.00     0.152 C 
ATOM     17  O2  IDY d 142     -40.152  -1.979  18.934  0.00  0.00    -0.244 OA
ATOM     18  OS1 IDY d 142     -38.881   0.063  18.641  0.00  0.00    -0.572 OA
ATOM     19  H   IDY d 142     -42.167  -2.455  18.642  0.00  0.00     0.097 H 
ATOM     20  H   IDY d 142     -40.971  -6.085  19.372  0.00  0.00     0.092 H 
ATOM     21  H   IDY d 142     -40.510  -2.365  16.687  0.00  0.00     0.133 H 
ATOM     22  H   IDY d 142     -43.224  -3.763  19.809  0.00  0.00     0.210 HD
ATOM     23  H   IDY d 142     -43.473  -3.497  15.040  0.00  0.00     0.066 H 
ATOM     24  H   IDY d 142     -43.992  -2.916  16.604  0.00  0.00     0.066 H 
ATOM     25  H   IDY d 142     -43.633  -4.610  16.377  0.00  0.00     0.066 H 
ATOM     26  H   IDY d 142     -40.853  -3.753  20.400  0.00  0.00     0.091 H 
ATOM     27  H   IDY d 142     -41.018  -5.940  17.238  0.00  0.00     0.104 H 
ATOM     28  O4  SGN d 141     -34.819  -5.527  19.911  0.00  0.00    -0.390 OA
ATOM     29  O6  SGN d 141     -36.786  -8.481  22.066  0.00  0.00    -0.254 OA
ATOM     30  O5S SGN d 141     -35.548 -10.473  21.958  0.00  0.00    -0.572 OA
ATOM     31  C2  SGN d 141     -37.755  -4.203  21.553  0.00  0.00     0.081 C 
ATOM     32  C3  SGN d 141     -36.486  -4.236  20.724  0.00  0.00     0.083 C 
ATOM     33  O3  SGN d 141     -35.498  -3.339  21.178  0.00  0.00    -0.391 OA
ATOM     34  O1S SGN d 141     -39.004  -0.745  22.280  0.00  0.00    -0.296 OA
ATOM     35  N   SGN d 141     -38.434  -2.946  21.365  0.00  0.00    -0.210 NA
ATOM     36  C1  SGN d 141     -38.662  -5.355  21.119  0.00  0.00     0.150 C 
ATOM     37  C6  SGN d 141     -36.239  -8.065  20.838  0.00  0.00     0.067 C 
ATOM     38  O2S SGN d 141     -37.835  -2.335  23.567  0.00  0.00    -0.296 OA
ATOM     39  O3S SGN d 141     -40.113  -2.693  23.118  0.00  0.00    -0.296 OA
ATOM     40  S1  SGN d 141     -38.890  -2.127  22.632  0.00  0.00     0.156 S 
ATOM     41  O4S SGN d 141     -37.153 -10.228  23.720  0.00  0.00    -0.572 OA
ATOM     42  O5  SGN d 141     -38.020  -6.612  21.226  0.00  0.00    -0.349 OA
ATOM     43  C4  SGN d 141     -35.871  -5.605  20.829  0.00  0.00     0.089 C 
ATOM     44  O6S SGN d 141     -37.874 -10.574  21.443  0.00  0.00    -0.572 OA
ATOM     45  S2  SGN d 141     -36.859 -10.005  22.320  0.00  0.00     0.251 S 
ATOM     46  C5  SGN d 141     -36.841  -6.726  20.479  0.00  0.00     0.090 C 
ATOM     47  H   SGN d 141     -34.222  -4.805  20.164  0.00  0.00     0.210 HD
ATOM     48  H   SGN d 141     -37.511  -4.308  22.589  0.00  0.00     0.076 H 
ATOM     49  H   SGN d 141     -36.775  -3.970  19.730  0.00  0.00     0.089 H 
ATOM     50  H   SGN d 141     -35.233  -3.578  22.080  0.00  0.00     0.210 HD
ATOM     51  H   SGN d 141     -38.147  -0.421  21.960  0.00  0.00     0.231 HD
ATOM     52  H   SGN d 141     -39.271  -3.138  20.816  0.00  0.00     0.140 HD
ATOM     53  H   SGN d 141     -39.507  -5.351  21.775  0.00  0.00     0.131 H 
ATOM     54  H   SGN d 141     -36.470  -8.782  20.078  0.00  0.00     0.080 H 
ATOM     55  H   SGN d 141     -35.175  -7.981  20.918  0.00  0.00     0.080 H 
ATOM     56  H   SGN d 141     -37.016  -1.946  23.222  0.00  0.00     0.231 HD
ATOM     57  H   SGN d 141     -40.819  -2.542  22.469  0.00  0.00     0.231 HD
ATOM     58  H   SGN d 141     -35.566  -5.844  21.826  0.00  0.00     0.091 H 
ATOM     59  H   SGN d 141     -37.044  -6.655  19.431  0.00  0.00     0.090 H 
ENDROOT
TORSDOF 18
ENDMDL
MODEL 25
REMARK VINA RESULT:      -5.1      1.436      1.564
REMARK  0 active torsions:
REMARK  status: ('A' for Active; 'I' for Inactive)
REMARK       I    between atoms: C2_2  and  O2_34 
REMARK       I    between atoms: O4_3  and  C4_29 
REMARK       I    between atoms: O6_4  and  C6_17 
REMARK       I    between atoms: O6_4  and  S2_35 
REMARK       I    between atoms: C2_6  and  N_15 
REMARK       I    between atoms: O1_8  and  C1_19 
REMARK       I    between atoms: O1_8  and  C7_24 
REMARK       I    between atoms: C4_9  and  O4_22 
REMARK       I    between atoms: C3_10  and  O3_13 
REMARK       I    between atoms: O1S_14  and  S1_21 
REMARK       I    between atoms: N_15  and  S1_21 
REMARK       I    between atoms: C1_16  and  O4_22 
REMARK       I    between atoms: C6_17  and  C5_36 
REMARK       I    between atoms: O2S_18  and  S1_21 
REMARK       I    between atoms: O3S_20  and  S1_21 
REMARK       I    between atoms: O3_23  and  C3_25 
REMARK       I    between atoms: S_28  and  O2_34 
REMARK       I    between atoms: C6_32  and  C5_33 
ROOT
ATOM      1  OS3 IDY d 142     -39.616  -0.470  22.704  0.00  0.00    -0.572 OA
ATOM      2  C2  IDY d 142     -38.659  -2.671  21.064  0.00  0.00     0.134 C 
ATOM      3  O61 IDY d 142     -40.781  -7.413  22.124  0.00  0.00    -0.646 OA
ATOM      4  O1  IDY d 142     -38.093  -3.284  23.201  0.00  0.00    -0.363 OA
ATOM      5  C4  IDY d 142     -39.200  -5.000  20.245  0.00  0.00     0.103 C 
ATOM      6  OS2 IDY d 142     -38.793   0.450  20.631  0.00  0.00    -0.572 OA
ATOM      7  O62 IDY d 142     -42.029  -5.512  21.615  0.00  0.00    -0.646 OA
ATOM      8  C1  IDY d 142     -39.053  -3.161  22.433  0.00  0.00     0.160 C 
ATOM      9  O4  IDY d 142     -40.420  -4.959  19.360  0.00  0.00    -0.348 OA
ATOM     10  O3  IDY d 142     -36.945  -4.092  20.141  0.00  0.00    -0.390 OA
ATOM     11  C7  IDY d 142     -36.790  -3.464  23.724  0.00  0.00     0.007 C 
ATOM     12  C3  IDY d 142     -38.392  -3.759  20.074  0.00  0.00     0.094 C 
ATOM     13  S   IDY d 142     -39.838  -0.415  21.220  0.00  0.00     0.252 S 
ATOM     14  O5  IDY d 142     -39.999  -4.209  22.461  0.00  0.00    -0.340 OA
ATOM     15  C6  IDY d 142     -40.873  -6.203  21.636  0.00  0.00     0.206 C 
ATOM     16  C5  IDY d 142     -39.629  -5.344  21.663  0.00  0.00     0.152 C 
ATOM     17  O2  IDY d 142     -39.712  -1.793  20.612  0.00  0.00    -0.244 OA
ATOM     18  OS1 IDY d 142     -41.166   0.125  20.890  0.00  0.00    -0.572 OA
ATOM     19  H   IDY d 142     -37.723  -2.159  21.141  0.00  0.00     0.097 H 
ATOM     20  H   IDY d 142     -38.524  -5.779  19.961  0.00  0.00     0.092 H 
ATOM     21  H   IDY d 142     -39.626  -2.357  22.849  0.00  0.00     0.133 H 
ATOM     22  H   IDY d 142     -36.422  -3.283  20.030  0.00  0.00     0.210 HD
ATOM     23  H   IDY d 142     -36.828  -3.436  24.793  0.00  0.00     0.066 H 
ATOM     24  H   IDY d 142     -36.153  -2.681  23.369  0.00  0.00     0.066 H 
ATOM     25  H   IDY d 142     -36.405  -4.409  23.406  0.00  0.00     0.066 H 
ATOM     26  H   IDY d 142     -38.687  -3.376  19.119  0.00  0.00     0.091 H 
ATOM     27  H   IDY d 142     -38.771  -5.826  22.086  0.00  0.00     0.104 H 
ATOM     28  O4  SGN d 141     -44.575  -5.584  18.621  0.00  0.00    -0.390 OA
ATOM     29  O6  SGN d 141     -42.116  -8.193  16.527  0.00  0.00    -0.254 OA
ATOM     30  O5S SGN d 141     -43.198 -10.264  16.301  0.00  0.00    -0.572 OA
ATOM     31  C2  SGN d 141     -41.560  -3.925  17.515  0.00  0.00     0.081 C 
ATOM     32  C3  SGN d 141     -42.922  -4.117  18.154  0.00  0.00     0.083 C 
ATOM     33  O3  SGN d 141     -43.908  -3.250  17.642  0.00  0.00    -0.391 OA
ATOM     34  O1S SGN d 141     -40.500  -0.339  17.250  0.00  0.00    -0.296 OA
ATOM     35  N   SGN d 141     -41.013  -2.647  17.896  0.00  0.00    -0.210 NA
ATOM     36  C1  SGN d 141     -40.631  -5.048  17.976  0.00  0.00     0.150 C 
ATOM     37  C6  SGN d 141     -42.851  -7.927  17.697  0.00  0.00     0.067 C 
ATOM     38  O2S SGN d 141     -41.361  -1.880  15.690  0.00  0.00    -0.296 OA
ATOM     39  O3S SGN d 141     -39.141  -2.125  16.420  0.00  0.00    -0.296 OA
ATOM     40  S1  SGN d 141     -40.458  -1.688  16.775  0.00  0.00     0.156 S 
ATOM     41  O4S SGN d 141     -41.397  -9.754  14.805  0.00  0.00    -0.572 OA
ATOM     42  O5  SGN d 141     -41.153  -6.330  17.679  0.00  0.00    -0.349 OA
ATOM     43  C4  SGN d 141     -43.408  -5.508  17.854  0.00  0.00     0.089 C 
ATOM     44  O6S SGN d 141     -40.959 -10.257  17.123  0.00  0.00    -0.572 OA
ATOM     45  S2  SGN d 141     -41.891  -9.679  16.164  0.00  0.00     0.251 S 
ATOM     46  C5  SGN d 141     -42.408  -6.590  18.244  0.00  0.00     0.090 C 
ATOM     47  H   SGN d 141     -45.188  -4.884  18.347  0.00  0.00     0.210 HD
ATOM     48  H   SGN d 141     -41.657  -3.951  16.450  0.00  0.00     0.076 H 
ATOM     49  H   SGN d 141     -42.788  -3.924  19.197  0.00  0.00     0.089 H 
ATOM     50  H   SGN d 141     -44.031  -3.423  16.696  0.00  0.00     0.210 HD
ATOM     51  H   SGN d 141     -41.414  -0.103  17.474  0.00  0.00     0.231 HD
ATOM     52  H   SGN d 141     -40.243  -2.832  18.539  0.00  0.00     0.140 HD
ATOM     53  H   SGN d 141     -39.710  -4.929  17.445  0.00  0.00     0.131 H 
ATOM     54  H   SGN d 141     -42.667  -8.694  18.422  0.00  0.00     0.080 H 
ATOM     55  H   SGN d 141     -43.898  -7.908  17.478  0.00  0.00     0.080 H 
ATOM     56  H   SGN d 141     -42.246  -1.579  15.948  0.00  0.00     0.231 HD
ATOM     57  H   SGN d 141     -38.541  -1.988  17.169  0.00  0.00     0.231 HD
ATOM     58  H   SGN d 141     -43.559  -5.676  16.809  0.00  0.00     0.091 H 
ATOM     59  H   SGN d 141     -42.353  -6.601  19.312  0.00  0.00     0.090 H 
ENDROOT
TORSDOF 18
ENDMDL
MODEL 26
REMARK VINA RESULT:      -5.1      2.668      4.008
REMARK  0 active torsions:
REMARK  status: ('A' for Active; 'I' for Inactive)
REMARK       I    between atoms: C2_2  and  O2_34 
REMARK       I    between atoms: O4_3  and  C4_29 
REMARK       I    between atoms: O6_4  and  C6_17 
REMARK       I    between atoms: O6_4  and  S2_35 
REMARK       I    between atoms: C2_6  and  N_15 
REMARK       I    between atoms: O1_8  and  C1_19 
REMARK       I    between atoms: O1_8  and  C7_24 
REMARK       I    between atoms: C4_9  and  O4_22 
REMARK       I    between atoms: C3_10  and  O3_13 
REMARK       I    between atoms: O1S_14  and  S1_21 
REMARK       I    between atoms: N_15  and  S1_21 
REMARK       I    between atoms: C1_16  and  O4_22 
REMARK       I    between atoms: C6_17  and  C5_36 
REMARK       I    between atoms: O2S_18  and  S1_21 
REMARK       I    between atoms: O3S_20  and  S1_21 
REMARK       I    between atoms: O3_23  and  C3_25 
REMARK       I    between atoms: S_28  and  O2_34 
REMARK       I    between atoms: C6_32  and  C5_33 
ROOT
ATOM      1  OS3 IDY d 142     -38.424  -3.663  24.000  0.00  0.00    -0.572 OA
ATOM      2  C2  IDY d 142     -37.618  -4.309  21.283  0.00  0.00     0.134 C 
ATOM      3  O61 IDY d 142     -39.878  -8.622  19.185  0.00  0.00    -0.646 OA
ATOM      4  O1  IDY d 142     -36.992  -6.150  22.500  0.00  0.00    -0.363 OA
ATOM      5  C4  IDY d 142     -38.281  -5.572  19.196  0.00  0.00     0.103 C 
ATOM      6  OS2 IDY d 142     -37.649  -1.632  22.952  0.00  0.00    -0.572 OA
ATOM      7  O62 IDY d 142     -41.071  -6.830  20.077  0.00  0.00    -0.646 OA
ATOM      8  C1  IDY d 142     -37.977  -5.559  22.043  0.00  0.00     0.160 C 
ATOM      9  O4  IDY d 142     -39.533  -4.969  18.611  0.00  0.00    -0.348 OA
ATOM     10  O3  IDY d 142     -35.999  -4.817  19.572  0.00  0.00    -0.390 OA
ATOM     11  C7  IDY d 142     -35.677  -6.627  22.714  0.00  0.00     0.007 C 
ATOM     12  C3  IDY d 142     -37.434  -4.512  19.813  0.00  0.00     0.094 C 
ATOM     13  S   IDY d 142     -38.703  -2.670  22.909  0.00  0.00     0.252 S 
ATOM     14  O5  IDY d 142     -38.960  -6.379  21.447  0.00  0.00    -0.340 OA
ATOM     15  C6  IDY d 142     -39.943  -7.379  19.588  0.00  0.00     0.206 C 
ATOM     16  C5  IDY d 142     -38.666  -6.742  20.088  0.00  0.00     0.152 C 
ATOM     17  O2  IDY d 142     -38.654  -3.340  21.555  0.00  0.00    -0.244 OA
ATOM     18  OS1 IDY d 142     -40.021  -2.038  23.074  0.00  0.00    -0.572 OA
ATOM     19  H   IDY d 142     -36.661  -3.968  21.617  0.00  0.00     0.097 H 
ATOM     20  H   IDY d 142     -37.648  -5.991  18.443  0.00  0.00     0.092 H 
ATOM     21  H   IDY d 142     -38.501  -5.205  22.906  0.00  0.00     0.133 H 
ATOM     22  H   IDY d 142     -35.450  -4.126  19.974  0.00  0.00     0.210 HD
ATOM     23  H   IDY d 142     -35.671  -7.290  23.555  0.00  0.00     0.066 H 
ATOM     24  H   IDY d 142     -35.024  -5.801  22.906  0.00  0.00     0.066 H 
ATOM     25  H   IDY d 142     -35.342  -7.152  21.844  0.00  0.00     0.066 H 
ATOM     26  H   IDY d 142     -37.751  -3.605  19.341  0.00  0.00     0.091 H 
ATOM     27  H   IDY d 142     -37.812  -7.386  20.058  0.00  0.00     0.104 H 
ATOM     28  O4  SGN d 141     -43.735  -4.959  17.875  0.00  0.00    -0.390 OA
ATOM     29  O6  SGN d 141     -41.464  -5.634  14.465  0.00  0.00    -0.254 OA
ATOM     30  O5S SGN d 141     -42.634  -7.076  13.029  0.00  0.00    -0.572 OA
ATOM     31  C2  SGN d 141     -40.705  -2.988  17.919  0.00  0.00     0.081 C 
ATOM     32  C3  SGN d 141     -42.047  -3.540  18.362  0.00  0.00     0.083 C 
ATOM     33  O3  SGN d 141     -43.018  -2.542  18.578  0.00  0.00    -0.391 OA
ATOM     34  O1S SGN d 141     -39.519  -0.068  19.947  0.00  0.00    -0.296 OA
ATOM     35  N   SGN d 141     -40.094  -2.253  18.997  0.00  0.00    -0.210 NA
ATOM     36  C1  SGN d 141     -39.803  -4.150  17.503  0.00  0.00     0.150 C 
ATOM     37  C6  SGN d 141     -42.142  -6.176  15.574  0.00  0.00     0.067 C 
ATOM     38  O2S SGN d 141     -40.500  -0.250  17.813  0.00  0.00    -0.296 OA
ATOM     39  O3S SGN d 141     -38.264  -0.915  18.094  0.00  0.00    -0.296 OA
ATOM     40  S1  SGN d 141     -39.548  -0.801  18.719  0.00  0.00     0.156 S 
ATOM     41  O4S SGN d 141     -40.876  -5.734  12.107  0.00  0.00    -0.572 OA
ATOM     42  O5  SGN d 141     -40.386  -4.943  16.486  0.00  0.00    -0.349 OA
ATOM     43  C4  SGN d 141     -42.598  -4.415  17.270  0.00  0.00     0.089 C 
ATOM     44  O6S SGN d 141     -40.366  -7.606  13.540  0.00  0.00    -0.572 OA
ATOM     45  S2  SGN d 141     -41.312  -6.544  13.225  0.00  0.00     0.251 S 
ATOM     46  C5  SGN d 141     -41.626  -5.500  16.823  0.00  0.00     0.090 C 
ATOM     47  H   SGN d 141     -44.331  -4.243  18.146  0.00  0.00     0.210 HD
ATOM     48  H   SGN d 141     -40.845  -2.326  17.090  0.00  0.00     0.076 H 
ATOM     49  H   SGN d 141     -41.864  -4.059  19.279  0.00  0.00     0.089 H 
ATOM     50  H   SGN d 141     -43.186  -2.068  17.748  0.00  0.00     0.210 HD
ATOM     51  H   SGN d 141     -40.414  -0.026  20.320  0.00  0.00     0.231 HD
ATOM     52  H   SGN d 141     -39.307  -2.810  19.330  0.00  0.00     0.140 HD
ATOM     53  H   SGN d 141     -38.899  -3.723  17.121  0.00  0.00     0.131 H 
ATOM     54  H   SGN d 141     -41.959  -7.229  15.630  0.00  0.00     0.080 H 
ATOM     55  H   SGN d 141     -43.195  -6.015  15.476  0.00  0.00     0.080 H 
ATOM     56  H   SGN d 141     -41.362  -0.180  18.253  0.00  0.00     0.231 HD
ATOM     57  H   SGN d 141     -37.630  -1.291  18.724  0.00  0.00     0.231 HD
ATOM     58  H   SGN d 141     -42.797  -3.874  16.370  0.00  0.00     0.091 H 
ATOM     59  H   SGN d 141     -41.528  -6.192  17.633  0.00  0.00     0.090 H 
ENDROOT
TORSDOF 18
ENDMDL
MODEL 27
REMARK VINA RESULT:      -5.1      3.096      4.520
REMARK  0 active torsions:
REMARK  status: ('A' for Active; 'I' for Inactive)
REMARK       I    between atoms: C2_2  and  O2_34 
REMARK       I    between atoms: O4_3  and  C4_29 
REMARK       I    between atoms: O6_4  and  C6_17 
REMARK       I    between atoms: O6_4  and  S2_35 
REMARK       I    between atoms: C2_6  and  N_15 
REMARK       I    between atoms: O1_8  and  C1_19 
REMARK       I    between atoms: O1_8  and  C7_24 
REMARK       I    between atoms: C4_9  and  O4_22 
REMARK       I    between atoms: C3_10  and  O3_13 
REMARK       I    between atoms: O1S_14  and  S1_21 
REMARK       I    between atoms: N_15  and  S1_21 
REMARK       I    between atoms: C1_16  and  O4_22 
REMARK       I    between atoms: C6_17  and  C5_36 
REMARK       I    between atoms: O2S_18  and  S1_21 
REMARK       I    between atoms: O3S_20  and  S1_21 
REMARK       I    between atoms: O3_23  and  C3_25 
REMARK       I    between atoms: S_28  and  O2_34 
REMARK       I    between atoms: C6_32  and  C5_33 
ROOT
ATOM      1  OS3 IDY d 142     -38.370  -0.957  23.709  0.00  0.00    -0.572 OA
ATOM      2  C2  IDY d 142     -37.196  -1.365  21.082  0.00  0.00     0.134 C 
ATOM      3  O61 IDY d 142     -34.739  -6.009  20.365  0.00  0.00    -0.646 OA
ATOM      4  O1  IDY d 142     -35.409  -1.497  22.515  0.00  0.00    -0.363 OA
ATOM      5  C4  IDY d 142     -36.373  -3.118  19.457  0.00  0.00     0.103 C 
ATOM      6  OS2 IDY d 142     -39.544   0.454  22.142  0.00  0.00    -0.572 OA
ATOM      7  O62 IDY d 142     -36.949  -5.800  21.074  0.00  0.00    -0.646 OA
ATOM      8  C1  IDY d 142     -36.414  -2.107  22.135  0.00  0.00     0.160 C 
ATOM      9  O4  IDY d 142     -37.528  -3.972  19.000  0.00  0.00    -0.348 OA
ATOM     10  O3  IDY d 142     -35.752  -0.775  19.245  0.00  0.00    -0.390 OA
ATOM     11  C7  IDY d 142     -34.296  -0.625  22.578  0.00  0.00     0.007 C 
ATOM     12  C3  IDY d 142     -36.821  -1.713  19.677  0.00  0.00     0.094 C 
ATOM     13  S   IDY d 142     -39.270  -0.954  22.508  0.00  0.00     0.252 S 
ATOM     14  O5  IDY d 142     -36.242  -3.491  21.910  0.00  0.00    -0.340 OA
ATOM     15  C6  IDY d 142     -35.832  -5.304  20.509  0.00  0.00     0.206 C 
ATOM     16  C5  IDY d 142     -35.683  -3.804  20.625  0.00  0.00     0.152 C 
ATOM     17  O2  IDY d 142     -38.593  -1.625  21.335  0.00  0.00    -0.244 OA
ATOM     18  OS1 IDY d 142     -40.539  -1.647  22.778  0.00  0.00    -0.572 OA
ATOM     19  H   IDY d 142     -36.967  -0.323  21.158  0.00  0.00     0.097 H 
ATOM     20  H   IDY d 142     -35.620  -3.025  18.703  0.00  0.00     0.092 H 
ATOM     21  H   IDY d 142     -37.060  -2.117  22.988  0.00  0.00     0.133 H 
ATOM     22  H   IDY d 142     -36.046   0.138  19.389  0.00  0.00     0.210 HD
ATOM     23  H   IDY d 142     -33.804  -0.743  23.521  0.00  0.00     0.066 H 
ATOM     24  H   IDY d 142     -34.629   0.387  22.473  0.00  0.00     0.066 H 
ATOM     25  H   IDY d 142     -33.614  -0.859  21.788  0.00  0.00     0.066 H 
ATOM     26  H   IDY d 142     -37.715  -1.622  19.095  0.00  0.00     0.091 H 
ATOM     27  H   IDY d 142     -34.671  -3.457  20.572  0.00  0.00     0.104 H 
ATOM     28  O4  SGN d 141     -39.827  -7.566  19.060  0.00  0.00    -0.390 OA
ATOM     29  O6  SGN d 141     -37.763  -6.987  15.505  0.00  0.00    -0.254 OA
ATOM     30  O5S SGN d 141     -37.120  -9.070  14.634  0.00  0.00    -0.572 OA
ATOM     31  C2  SGN d 141     -39.771  -4.070  18.143  0.00  0.00     0.081 C 
ATOM     32  C3  SGN d 141     -40.094  -5.326  18.928  0.00  0.00     0.083 C 
ATOM     33  O3  SGN d 141     -41.476  -5.534  19.109  0.00  0.00    -0.391 OA
ATOM     34  O1S SGN d 141     -41.669  -1.042  19.276  0.00  0.00    -0.296 OA
ATOM     35  N   SGN d 141     -40.115  -2.904  18.916  0.00  0.00    -0.210 NA
ATOM     36  C1  SGN d 141     -38.278  -4.057  17.816  0.00  0.00     0.150 C 
ATOM     37  C6  SGN d 141     -37.770  -7.524  16.806  0.00  0.00     0.067 C 
ATOM     38  O2S SGN d 141     -41.915  -2.500  17.441  0.00  0.00    -0.296 OA
ATOM     39  O3S SGN d 141     -40.139  -0.962  17.438  0.00  0.00    -0.296 OA
ATOM     40  S1  SGN d 141     -40.993  -1.776  18.251  0.00  0.00     0.156 S 
ATOM     41  O4S SGN d 141     -37.186  -7.191  13.150  0.00  0.00    -0.572 OA
ATOM     42  O5  SGN d 141     -37.875  -5.215  17.108  0.00  0.00    -0.349 OA
ATOM     43  C4  SGN d 141     -39.601  -6.521  18.159  0.00  0.00     0.089 C 
ATOM     44  O6S SGN d 141     -35.453  -7.375  14.819  0.00  0.00    -0.572 OA
ATOM     45  S2  SGN d 141     -36.837  -7.670  14.471  0.00  0.00     0.251 S 
ATOM     46  C5  SGN d 141     -38.130  -6.420  17.773  0.00  0.00     0.090 C 
ATOM     47  H   SGN d 141     -40.770  -7.602  19.283  0.00  0.00     0.210 HD
ATOM     48  H   SGN d 141     -40.339  -4.058  17.236  0.00  0.00     0.076 H 
ATOM     49  H   SGN d 141     -39.627  -5.207  19.882  0.00  0.00     0.089 H 
ATOM     50  H   SGN d 141     -41.903  -5.643  18.244  0.00  0.00     0.210 HD
ATOM     51  H   SGN d 141     -42.229  -1.646  19.790  0.00  0.00     0.231 HD
ATOM     52  H   SGN d 141     -39.240  -2.469  19.206  0.00  0.00     0.140 HD
ATOM     53  H   SGN d 141     -38.101  -3.204  17.196  0.00  0.00     0.131 H 
ATOM     54  H   SGN d 141     -36.801  -7.911  17.043  0.00  0.00     0.080 H 
ATOM     55  H   SGN d 141     -38.483  -8.319  16.872  0.00  0.00     0.080 H 
ATOM     56  H   SGN d 141     -42.484  -3.044  18.008  0.00  0.00     0.231 HD
ATOM     57  H   SGN d 141     -39.518  -0.478  18.004  0.00  0.00     0.231 HD
ATOM     58  H   SGN d 141     -40.096  -6.639  17.219  0.00  0.00     0.091 H 
ATOM     59  H   SGN d 141     -37.560  -6.487  18.676  0.00  0.00     0.090 H 
ENDROOT
TORSDOF 18
ENDMDL
MODEL 28
REMARK VINA RESULT:      -5.0      2.572      3.734
REMARK  0 active torsions:
REMARK  status: ('A' for Active; 'I' for Inactive)
REMARK       I    between atoms: C2_2  and  O2_34 
REMARK       I    between atoms: O4_3  and  C4_29 
REMARK       I    between atoms: O6_4  and  C6_17 
REMARK       I    between atoms: O6_4  and  S2_35 
REMARK       I    between atoms: C2_6  and  N_15 
REMARK       I    between atoms: O1_8  and  C1_19 
REMARK       I    between atoms: O1_8  and  C7_24 
REMARK       I    between atoms: C4_9  and  O4_22 
REMARK       I    between atoms: C3_10  and  O3_13 
REMARK       I    between atoms: O1S_14  and  S1_21 
REMARK       I    between atoms: N_15  and  S1_21 
REMARK       I    between atoms: C1_16  and  O4_22 
REMARK       I    between atoms: C6_17  and  C5_36 
REMARK       I    between atoms: O2S_18  and  S1_21 
REMARK       I    between atoms: O3S_20  and  S1_21 
REMARK       I    between atoms: O3_23  and  C3_25 
REMARK       I    between atoms: S_28  and  O2_34 
REMARK       I    between atoms: C6_32  and  C5_33 
ROOT
ATOM      1  OS3 IDY d 142     -42.966  -2.131  22.280  0.00  0.00    -0.572 OA
ATOM      2  C2  IDY d 142     -41.098  -3.971  21.025  0.00  0.00     0.134 C 
ATOM      3  O61 IDY d 142     -43.128  -8.636  19.535  0.00  0.00    -0.646 OA
ATOM      4  O1  IDY d 142     -41.826  -5.100  22.885  0.00  0.00    -0.363 OA
ATOM      5  C4  IDY d 142     -40.916  -5.999  19.527  0.00  0.00     0.103 C 
ATOM      6  OS2 IDY d 142     -41.163  -0.833  21.338  0.00  0.00    -0.572 OA
ATOM      7  O62 IDY d 142     -43.977  -6.573  18.864  0.00  0.00    -0.646 OA
ATOM      8  C1  IDY d 142     -42.175  -4.725  21.761  0.00  0.00     0.160 C 
ATOM      9  O4  IDY d 142     -41.405  -5.656  18.143  0.00  0.00    -0.348 OA
ATOM     10  O3  IDY d 142     -39.077  -5.281  20.949  0.00  0.00    -0.390 OA
ATOM     11  C7  IDY d 142     -41.052  -5.502  24.000  0.00  0.00     0.007 C 
ATOM     12  C3  IDY d 142     -40.240  -4.823  20.146  0.00  0.00     0.094 C 
ATOM     13  S   IDY d 142     -42.297  -1.720  21.000  0.00  0.00     0.252 S 
ATOM     14  O5  IDY d 142     -42.894  -5.671  20.996  0.00  0.00    -0.340 OA
ATOM     15  C6  IDY d 142     -43.001  -7.343  19.381  0.00  0.00     0.206 C 
ATOM     16  C5  IDY d 142     -42.059  -6.620  20.315  0.00  0.00     0.152 C 
ATOM     17  O2  IDY d 142     -41.755  -2.929  20.272  0.00  0.00    -0.244 OA
ATOM     18  OS1 IDY d 142     -43.226  -1.011  20.106  0.00  0.00    -0.572 OA
ATOM     19  H   IDY d 142     -40.412  -3.569  21.742  0.00  0.00     0.097 H 
ATOM     20  H   IDY d 142     -40.151  -6.746  19.509  0.00  0.00     0.092 H 
ATOM     21  H   IDY d 142     -42.933  -3.993  21.947  0.00  0.00     0.133 H 
ATOM     22  H   IDY d 142     -38.639  -4.514  21.351  0.00  0.00     0.210 HD
ATOM     23  H   IDY d 142     -41.699  -5.715  24.825  0.00  0.00     0.066 H 
ATOM     24  H   IDY d 142     -40.379  -4.715  24.269  0.00  0.00     0.066 H 
ATOM     25  H   IDY d 142     -40.493  -6.378  23.749  0.00  0.00     0.066 H 
ATOM     26  H   IDY d 142     -39.957  -4.209  19.316  0.00  0.00     0.091 H 
ATOM     27  H   IDY d 142     -41.571  -7.255  21.026  0.00  0.00     0.104 H 
ATOM     28  O4  SGN d 141     -44.328  -5.748  15.036  0.00  0.00    -0.390 OA
ATOM     29  O6  SGN d 141     -40.947  -8.006  14.190  0.00  0.00    -0.254 OA
ATOM     30  O5S SGN d 141     -41.565  -9.873  12.908  0.00  0.00    -0.572 OA
ATOM     31  C2  SGN d 141     -41.342  -4.136  16.282  0.00  0.00     0.081 C 
ATOM     32  C3  SGN d 141     -42.807  -4.356  15.959  0.00  0.00     0.083 C 
ATOM     33  O3  SGN d 141     -43.373  -3.316  15.195  0.00  0.00    -0.391 OA
ATOM     34  O1S SGN d 141     -40.559  -0.686  17.519  0.00  0.00    -0.296 OA
ATOM     35  N   SGN d 141     -41.198  -3.030  17.193  0.00  0.00    -0.210 NA
ATOM     36  C1  SGN d 141     -40.775  -5.409  16.913  0.00  0.00     0.150 C 
ATOM     37  C6  SGN d 141     -42.238  -7.954  14.750  0.00  0.00     0.067 C 
ATOM     38  O2S SGN d 141     -40.263  -1.753  15.440  0.00  0.00    -0.296 OA
ATOM     39  O3S SGN d 141     -38.856  -2.342  17.227  0.00  0.00    -0.296 OA
ATOM     40  S1  SGN d 141     -40.164  -1.890  16.854  0.00  0.00     0.156 S 
ATOM     41  O4S SGN d 141     -39.269  -9.187  12.883  0.00  0.00    -0.572 OA
ATOM     42  O5  SGN d 141     -40.947  -6.541  16.081  0.00  0.00    -0.349 OA
ATOM     43  C4  SGN d 141     -42.940  -5.597  15.120  0.00  0.00     0.089 C 
ATOM     44  O6S SGN d 141     -40.212 -10.240  14.838  0.00  0.00    -0.572 OA
ATOM     45  S2  SGN d 141     -40.458  -9.383  13.685  0.00  0.00     0.251 S 
ATOM     46  C5  SGN d 141     -42.278  -6.818  15.746  0.00  0.00     0.090 C 
ATOM     47  H   SGN d 141     -44.716  -4.955  14.634  0.00  0.00     0.210 HD
ATOM     48  H   SGN d 141     -40.806  -3.911  15.383  0.00  0.00     0.076 H 
ATOM     49  H   SGN d 141     -43.311  -4.417  16.901  0.00  0.00     0.089 H 
ATOM     50  H   SGN d 141     -42.919  -3.258  14.340  0.00  0.00     0.210 HD
ATOM     51  H   SGN d 141     -41.449  -0.432  17.226  0.00  0.00     0.231 HD
ATOM     52  H   SGN d 141     -40.928  -3.419  18.096  0.00  0.00     0.140 HD
ATOM     53  H   SGN d 141     -39.727  -5.248  17.052  0.00  0.00     0.131 H 
ATOM     54  H   SGN d 141     -42.454  -8.878  15.245  0.00  0.00     0.080 H 
ATOM     55  H   SGN d 141     -42.967  -7.798  13.982  0.00  0.00     0.080 H 
ATOM     56  H   SGN d 141     -41.153  -1.446  15.206  0.00  0.00     0.231 HD
ATOM     57  H   SGN d 141     -38.808  -2.429  18.192  0.00  0.00     0.231 HD
ATOM     58  H   SGN d 141     -42.452  -5.508  14.173  0.00  0.00     0.091 H 
ATOM     59  H   SGN d 141     -42.846  -7.077  16.615  0.00  0.00     0.090 H 
ENDROOT
TORSDOF 18
ENDMDL
MODEL 29
REMARK VINA RESULT:      -5.0      2.768      4.731
REMARK  0 active torsions:
REMARK  status: ('A' for Active; 'I' for Inactive)
REMARK       I    between atoms: C2_2  and  O2_34 
REMARK       I    between atoms: O4_3  and  C4_29 
REMARK       I    between atoms: O6_4  and  C6_17 
REMARK       I    between atoms: O6_4  and  S2_35 
REMARK       I    between atoms: C2_6  and  N_15 
REMARK       I    between atoms: O1_8  and  C1_19 
REMARK       I    between atoms: O1_8  and  C7_24 
REMARK       I    between atoms: C4_9  and  O4_22 
REMARK       I    between atoms: C3_10  and  O3_13 
REMARK       I    between atoms: O1S_14  and  S1_21 
REMARK       I    between atoms: N_15  and  S1_21 
REMARK       I    between atoms: C1_16  and  O4_22 
REMARK       I    between atoms: C6_17  and  C5_36 
REMARK       I    between atoms: O2S_18  and  S1_21 
REMARK       I    between atoms: O3S_20  and  S1_21 
REMARK       I    between atoms: O3_23  and  C3_25 
REMARK       I    between atoms: S_28  and  O2_34 
REMARK       I    between atoms: C6_32  and  C5_33 
ROOT
ATOM      1  OS3 IDY d 142     -43.394  -3.869  22.964  0.00  0.00    -0.572 OA
ATOM      2  C2  IDY d 142     -40.942  -4.596  21.584  0.00  0.00     0.134 C 
ATOM      3  O61 IDY d 142     -41.208  -8.953  18.575  0.00  0.00    -0.646 OA
ATOM      4  O1  IDY d 142     -41.382  -6.406  22.923  0.00  0.00    -0.363 OA
ATOM      5  C4  IDY d 142     -39.996  -5.914  19.645  0.00  0.00     0.103 C 
ATOM      6  OS2 IDY d 142     -42.061  -1.874  22.718  0.00  0.00    -0.572 OA
ATOM      7  O62 IDY d 142     -42.642  -7.130  18.357  0.00  0.00    -0.646 OA
ATOM      8  C1  IDY d 142     -41.757  -5.823  21.900  0.00  0.00     0.160 C 
ATOM      9  O4  IDY d 142     -40.474  -5.320  18.344  0.00  0.00    -0.348 OA
ATOM     10  O3  IDY d 142     -38.601  -5.162  21.491  0.00  0.00    -0.390 OA
ATOM     11  C7  IDY d 142     -40.598  -6.885  24.000  0.00  0.00     0.007 C 
ATOM     12  C3  IDY d 142     -39.792  -4.842  20.660  0.00  0.00     0.094 C 
ATOM     13  S   IDY d 142     -42.812  -2.906  21.971  0.00  0.00     0.252 S 
ATOM     14  O5  IDY d 142     -42.068  -6.653  20.801  0.00  0.00    -0.340 OA
ATOM     15  C6  IDY d 142     -41.505  -7.699  18.800  0.00  0.00     0.206 C 
ATOM     16  C5  IDY d 142     -40.921  -7.056  20.036  0.00  0.00     0.152 C 
ATOM     17  O2  IDY d 142     -41.852  -3.614  21.043  0.00  0.00    -0.244 OA
ATOM     18  OS1 IDY d 142     -43.859  -2.262  21.162  0.00  0.00    -0.572 OA
ATOM     19  H   IDY d 142     -40.478  -4.252  22.485  0.00  0.00     0.097 H 
ATOM     20  H   IDY d 142     -39.028  -6.358  19.552  0.00  0.00     0.092 H 
ATOM     21  H   IDY d 142     -42.725  -5.442  22.150  0.00  0.00     0.133 H 
ATOM     22  H   IDY d 142     -38.470  -4.463  22.151  0.00  0.00     0.210 HD
ATOM     23  H   IDY d 142     -41.194  -7.523  24.619  0.00  0.00     0.066 H 
ATOM     24  H   IDY d 142     -40.243  -6.057  24.578  0.00  0.00     0.066 H 
ATOM     25  H   IDY d 142     -39.765  -7.436  23.617  0.00  0.00     0.066 H 
ATOM     26  H   IDY d 142     -39.670  -3.947  20.086  0.00  0.00     0.091 H 
ATOM     27  H   IDY d 142     -40.302  -7.705  20.620  0.00  0.00     0.104 H 
ATOM     28  O4  SGN d 141     -42.979  -5.307  14.891  0.00  0.00    -0.390 OA
ATOM     29  O6  SGN d 141     -38.993  -6.091  14.034  0.00  0.00    -0.254 OA
ATOM     30  O5S SGN d 141     -38.868  -7.566  12.212  0.00  0.00    -0.572 OA
ATOM     31  C2  SGN d 141     -40.788  -3.353  16.999  0.00  0.00     0.081 C 
ATOM     32  C3  SGN d 141     -42.072  -3.884  16.393  0.00  0.00     0.083 C 
ATOM     33  O3  SGN d 141     -42.896  -2.875  15.856  0.00  0.00    -0.391 OA
ATOM     34  O1S SGN d 141     -41.277  -0.384  19.234  0.00  0.00    -0.296 OA
ATOM     35  N   SGN d 141     -41.081  -2.591  18.186  0.00  0.00    -0.210 NA
ATOM     36  C1  SGN d 141     -39.878  -4.532  17.348  0.00  0.00     0.150 C 
ATOM     37  C6  SGN d 141     -40.264  -6.597  14.367  0.00  0.00     0.067 C 
ATOM     38  O2S SGN d 141     -40.502  -0.620  17.022  0.00  0.00    -0.296 OA
ATOM     39  O3S SGN d 141     -39.107  -1.290  18.790  0.00  0.00    -0.296 OA
ATOM     40  S1  SGN d 141     -40.461  -1.151  18.343  0.00  0.00     0.156 S 
ATOM     41  O4S SGN d 141     -36.933  -6.261  12.752  0.00  0.00    -0.572 OA
ATOM     42  O5  SGN d 141     -39.607  -5.350  16.224  0.00  0.00    -0.349 OA
ATOM     43  C4  SGN d 141     -41.730  -4.786  15.239  0.00  0.00     0.089 C 
ATOM     44  O6S SGN d 141     -37.608  -8.095  14.166  0.00  0.00    -0.572 OA
ATOM     45  S2  SGN d 141     -38.043  -7.036  13.264  0.00  0.00     0.251 S 
ATOM     46  C5  SGN d 141     -40.746  -5.889  15.612  0.00  0.00     0.090 C 
ATOM     47  H   SGN d 141     -43.579  -4.580  14.659  0.00  0.00     0.210 HD
ATOM     48  H   SGN d 141     -40.295  -2.714  16.296  0.00  0.00     0.076 H 
ATOM     49  H   SGN d 141     -42.591  -4.379  17.186  0.00  0.00     0.089 H 
ATOM     50  H   SGN d 141     -42.428  -2.424  15.135  0.00  0.00     0.210 HD
ATOM     51  H   SGN d 141     -42.178  -0.326  18.878  0.00  0.00     0.231 HD
ATOM     52  H   SGN d 141     -40.760  -3.143  18.982  0.00  0.00     0.140 HD
ATOM     53  H   SGN d 141     -38.953  -4.121  17.695  0.00  0.00     0.131 H 
ATOM     54  H   SGN d 141     -40.196  -7.649  14.552  0.00  0.00     0.080 H 
ATOM     55  H   SGN d 141     -40.948  -6.434  13.561  0.00  0.00     0.080 H 
ATOM     56  H   SGN d 141     -41.425  -0.533  16.737  0.00  0.00     0.231 HD
ATOM     57  H   SGN d 141     -39.099  -1.652  19.690  0.00  0.00     0.231 HD
ATOM     58  H   SGN d 141     -41.233  -4.270  14.445  0.00  0.00     0.091 H 
ATOM     59  H   SGN d 141     -41.256  -6.559  16.273  0.00  0.00     0.090 H 
ENDROOT
TORSDOF 18
ENDMDL
MODEL 30
REMARK VINA RESULT:      -5.0      2.557      4.115
REMARK  0 active torsions:
REMARK  status: ('A' for Active; 'I' for Inactive)
REMARK       I    between atoms: C2_2  and  O2_34 
REMARK       I    between atoms: O4_3  and  C4_29 
REMARK       I    between atoms: O6_4  and  C6_17 
REMARK       I    between atoms: O6_4  and  S2_35 
REMARK       I    between atoms: C2_6  and  N_15 
REMARK       I    between atoms: O1_8  and  C1_19 
REMARK       I    between atoms: O1_8  and  C7_24 
REMARK       I    between atoms: C4_9  and  O4_22 
REMARK       I    between atoms: C3_10  and  O3_13 
REMARK       I    between atoms: O1S_14  and  S1_21 
REMARK       I    between atoms: N_15  and  S1_21 
REMARK       I    between atoms: C1_16  and  O4_22 
REMARK       I    between atoms: C6_17  and  C5_36 
REMARK       I    between atoms: O2S_18  and  S1_21 
REMARK       I    between atoms: O3S_20  and  S1_21 
REMARK       I    between atoms: O3_23  and  C3_25 
REMARK       I    between atoms: S_28  and  O2_34 
REMARK       I    between atoms: C6_32  and  C5_33 
ROOT
ATOM      1  OS3 IDY d 142     -37.187  -1.692  22.833  0.00  0.00    -0.572 OA
ATOM      2  C2  IDY d 142     -38.373  -1.569  20.183  0.00  0.00     0.134 C 
ATOM      3  O61 IDY d 142     -37.759  -5.904  17.192  0.00  0.00    -0.646 OA
ATOM      4  O1  IDY d 142     -36.137  -1.889  19.776  0.00  0.00    -0.363 OA
ATOM      5  C4  IDY d 142     -39.205  -2.963  18.245  0.00  0.00     0.103 C 
ATOM      6  OS2 IDY d 142     -38.970  -0.068  22.891  0.00  0.00    -0.572 OA
ATOM      7  O62 IDY d 142     -38.698  -5.915  19.325  0.00  0.00    -0.646 OA
ATOM      8  C1  IDY d 142     -37.157  -2.459  20.180  0.00  0.00     0.160 C 
ATOM      9  O4  IDY d 142     -40.408  -3.764  18.673  0.00  0.00    -0.348 OA
ATOM     10  O3  IDY d 142     -38.689  -0.598  18.000  0.00  0.00    -0.390 OA
ATOM     11  C7  IDY d 142     -35.250  -1.000  19.125  0.00  0.00     0.007 C 
ATOM     12  C3  IDY d 142     -39.191  -1.640  18.933  0.00  0.00     0.094 C 
ATOM     13  S   IDY d 142     -38.672  -1.506  22.715  0.00  0.00     0.252 S 
ATOM     14  O5  IDY d 142     -37.357  -3.771  19.697  0.00  0.00    -0.340 OA
ATOM     15  C6  IDY d 142     -38.309  -5.280  18.203  0.00  0.00     0.206 C 
ATOM     16  C5  IDY d 142     -37.960  -3.822  18.394  0.00  0.00     0.152 C 
ATOM     17  O2  IDY d 142     -39.153  -1.925  21.344  0.00  0.00    -0.244 OA
ATOM     18  OS1 IDY d 142     -39.399  -2.286  23.727  0.00  0.00    -0.572 OA
ATOM     19  H   IDY d 142     -38.050  -0.549  20.220  0.00  0.00     0.097 H 
ATOM     20  H   IDY d 142     -39.244  -2.704  17.208  0.00  0.00     0.092 H 
ATOM     21  H   IDY d 142     -36.964  -2.649  21.216  0.00  0.00     0.133 H 
ATOM     22  H   IDY d 142     -38.680   0.262  18.450  0.00  0.00     0.210 HD
ATOM     23  H   IDY d 142     -34.241  -1.268  19.359  0.00  0.00     0.066 H 
ATOM     24  H   IDY d 142     -35.440  -0.000  19.456  0.00  0.00     0.066 H 
ATOM     25  H   IDY d 142     -35.398  -1.060  18.067  0.00  0.00     0.066 H 
ATOM     26  H   IDY d 142     -40.207  -1.480  19.228  0.00  0.00     0.091 H 
ATOM     27  H   IDY d 142     -37.283  -3.432  17.662  0.00  0.00     0.104 H 
ATOM     28  O4  SGN d 141     -42.297  -7.396  19.873  0.00  0.00    -0.390 OA
ATOM     29  O6  SGN d 141     -43.460  -6.099  16.105  0.00  0.00    -0.254 OA
ATOM     30  O5S SGN d 141     -43.896  -7.962  14.745  0.00  0.00    -0.572 OA
ATOM     31  C2  SGN d 141     -42.552  -3.793  19.760  0.00  0.00     0.081 C 
ATOM     32  C3  SGN d 141     -42.329  -5.183  20.323  0.00  0.00     0.083 C 
ATOM     33  O3  SGN d 141     -43.146  -5.474  21.434  0.00  0.00    -0.391 OA
ATOM     34  O1S SGN d 141     -42.662  -1.099  22.364  0.00  0.00    -0.296 OA
ATOM     35  N   SGN d 141     -42.087  -2.801  20.697  0.00  0.00    -0.210 NA
ATOM     36  C1  SGN d 141     -41.789  -3.662  18.441  0.00  0.00     0.150 C 
ATOM     37  C6  SGN d 141     -42.568  -6.864  16.881  0.00  0.00     0.067 C 
ATOM     38  O2S SGN d 141     -44.332  -2.207  21.126  0.00  0.00    -0.296 OA
ATOM     39  O3S SGN d 141     -42.976  -0.625  20.040  0.00  0.00    -0.296 OA
ATOM     40  S1  SGN d 141     -43.041  -1.607  21.081  0.00  0.00     0.156 S 
ATOM     41  O4S SGN d 141     -44.824  -5.848  14.106  0.00  0.00    -0.572 OA
ATOM     42  O5  SGN d 141     -42.165  -4.654  17.504  0.00  0.00    -0.349 OA
ATOM     43  C4  SGN d 141     -42.693  -6.197  19.274  0.00  0.00     0.089 C 
ATOM     44  O6S SGN d 141     -42.457  -6.264  13.886  0.00  0.00    -0.572 OA
ATOM     45  S2  SGN d 141     -43.673  -6.545  14.640  0.00  0.00     0.251 S 
ATOM     46  C5  SGN d 141     -41.979  -5.970  17.947  0.00  0.00     0.090 C 
ATOM     47  H   SGN d 141     -42.770  -7.509  20.713  0.00  0.00     0.210 HD
ATOM     48  H   SGN d 141     -43.596  -3.637  19.588  0.00  0.00     0.076 H 
ATOM     49  H   SGN d 141     -41.302  -5.220  20.619  0.00  0.00     0.089 H 
ATOM     50  H   SGN d 141     -44.078  -5.441  21.168  0.00  0.00     0.210 HD
ATOM     51  H   SGN d 141     -42.726  -1.808  23.024  0.00  0.00     0.231 HD
ATOM     52  H   SGN d 141     -41.240  -2.392  20.303  0.00  0.00     0.140 HD
ATOM     53  H   SGN d 141     -42.032  -2.703  18.033  0.00  0.00     0.131 H 
ATOM     54  H   SGN d 141     -41.787  -7.249  16.259  0.00  0.00     0.080 H 
ATOM     55  H   SGN d 141     -43.084  -7.685  17.332  0.00  0.00     0.080 H 
ATOM     56  H   SGN d 141     -44.357  -2.867  21.836  0.00  0.00     0.231 HD
ATOM     57  H   SGN d 141     -42.091  -0.228  20.024  0.00  0.00     0.231 HD
ATOM     58  H   SGN d 141     -43.728  -6.161  19.007  0.00  0.00     0.091 H 
ATOM     59  H   SGN d 141     -40.941  -6.178  18.105  0.00  0.00     0.090 H 
ENDROOT
TORSDOF 18
ENDMDL
MODEL 31
REMARK VINA RESULT:      -5.0      2.896      7.995
REMARK  0 active torsions:
REMARK  status: ('A' for Active; 'I' for Inactive)
REMARK       I    between atoms: C2_2  and  O2_34 
REMARK       I    between atoms: O4_3  and  C4_29 
REMARK       I    between atoms: O6_4  and  C6_17 
REMARK       I    between atoms: O6_4  and  S2_35 
REMARK       I    between atoms: C2_6  and  N_15 
REMARK       I    between atoms: O1_8  and  C1_19 
REMARK       I    between atoms: O1_8  and  C7_24 
REMARK       I    between atoms: C4_9  and  O4_22 
REMARK       I    between atoms: C3_10  and  O3_13 
REMARK       I    between atoms: O1S_14  and  S1_21 
REMARK       I    between atoms: N_15  and  S1_21 
REMARK       I    between atoms: C1_16  and  O4_22 
REMARK       I    between atoms: C6_17  and  C5_36 
REMARK       I    between atoms: O2S_18  and  S1_21 
REMARK       I    between atoms: O3S_20  and  S1_21 
REMARK       I    between atoms: O3_23  and  C3_25 
REMARK       I    between atoms: S_28  and  O2_34 
REMARK       I    between atoms: C6_32  and  C5_33 
ROOT
ATOM      1  OS3 IDY d 142     -43.631  -7.969  15.390  0.00  0.00    -0.572 OA
ATOM      2  C2  IDY d 142     -40.838  -7.166  15.436  0.00  0.00     0.134 C 
ATOM      3  O61 IDY d 142     -39.955  -1.947  15.737  0.00  0.00    -0.646 OA
ATOM      4  O1  IDY d 142     -41.675  -6.155  13.555  0.00  0.00    -0.363 OA
ATOM      5  C4  IDY d 142     -39.253  -5.301  16.068  0.00  0.00     0.103 C 
ATOM      6  OS2 IDY d 142     -42.337  -9.828  16.222  0.00  0.00    -0.572 OA
ATOM      7  O62 IDY d 142     -41.265  -3.136  17.254  0.00  0.00    -0.646 OA
ATOM      8  C1  IDY d 142     -41.686  -6.102  14.789  0.00  0.00     0.160 C 
ATOM      9  O4  IDY d 142     -39.264  -5.106  17.563  0.00  0.00    -0.348 OA
ATOM     10  O3  IDY d 142     -38.598  -7.087  14.552  0.00  0.00    -0.390 OA
ATOM     11  C7  IDY d 142     -41.301  -6.401  12.212  0.00  0.00     0.007 C 
ATOM     12  C3  IDY d 142     -39.435  -6.742  15.730  0.00  0.00     0.094 C 
ATOM     13  S   IDY d 142     -42.762  -8.442  16.519  0.00  0.00     0.252 S 
ATOM     14  O5  IDY d 142     -41.581  -4.809  15.348  0.00  0.00    -0.340 OA
ATOM     15  C6  IDY d 142     -40.338  -3.075  16.279  0.00  0.00     0.206 C 
ATOM     16  C5  IDY d 142     -40.231  -4.324  15.435  0.00  0.00     0.152 C 
ATOM     17  O2  IDY d 142     -41.526  -7.581  16.636  0.00  0.00    -0.244 OA
ATOM     18  OS1 IDY d 142     -43.479  -8.413  17.804  0.00  0.00    -0.572 OA
ATOM     19  H   IDY d 142     -40.722  -7.977  14.747  0.00  0.00     0.097 H 
ATOM     20  H   IDY d 142     -38.302  -5.062  15.639  0.00  0.00     0.092 H 
ATOM     21  H   IDY d 142     -42.689  -6.361  15.059  0.00  0.00     0.133 H 
ATOM     22  H   IDY d 142     -38.717  -8.025  14.334  0.00  0.00     0.210 HD
ATOM     23  H   IDY d 142     -42.060  -6.028  11.556  0.00  0.00     0.066 H 
ATOM     24  H   IDY d 142     -41.185  -7.454  12.062  0.00  0.00     0.066 H 
ATOM     25  H   IDY d 142     -40.375  -5.908  12.003  0.00  0.00     0.066 H 
ATOM     26  H   IDY d 142     -39.141  -7.264  16.617  0.00  0.00     0.091 H 
ATOM     27  H   IDY d 142     -39.838  -4.159  14.453  0.00  0.00     0.104 H 
ATOM     28  O4  SGN d 141     -40.423  -3.008  21.092  0.00  0.00    -0.390 OA
ATOM     29  O6  SGN d 141     -36.370  -2.699  20.243  0.00  0.00    -0.254 OA
ATOM     30  O5S SGN d 141     -35.592  -0.595  20.936  0.00  0.00    -0.572 OA
ATOM     31  C2  SGN d 141     -39.136  -6.105  19.745  0.00  0.00     0.081 C 
ATOM     32  C3  SGN d 141     -40.120  -5.115  20.336  0.00  0.00     0.083 C 
ATOM     33  O3  SGN d 141     -40.729  -5.571  21.522  0.00  0.00    -0.391 OA
ATOM     34  O1S SGN d 141     -40.430  -9.619  19.583  0.00  0.00    -0.296 OA
ATOM     35  N   SGN d 141     -39.838  -7.264  19.253  0.00  0.00    -0.210 NA
ATOM     36  C1  SGN d 141     -38.378  -5.431  18.601  0.00  0.00     0.150 C 
ATOM     37  C6  SGN d 141     -37.666  -2.175  20.080  0.00  0.00     0.067 C 
ATOM     38  O2S SGN d 141     -38.934  -8.523  21.035  0.00  0.00    -0.296 OA
ATOM     39  O3S SGN d 141     -38.222  -9.050  18.859  0.00  0.00    -0.296 OA
ATOM     40  S1  SGN d 141     -39.341  -8.697  19.681  0.00  0.00     0.156 S 
ATOM     41  O4S SGN d 141     -33.990  -2.346  20.606  0.00  0.00    -0.572 OA
ATOM     42  O5  SGN d 141     -37.719  -4.250  19.019  0.00  0.00    -0.349 OA
ATOM     43  C4  SGN d 141     -39.381  -3.861  20.715  0.00  0.00     0.089 C 
ATOM     44  O6S SGN d 141     -35.073  -1.304  18.719  0.00  0.00    -0.572 OA
ATOM     45  S2  SGN d 141     -35.192  -1.706  20.114  0.00  0.00     0.251 S 
ATOM     46  C5  SGN d 141     -38.564  -3.277  19.569  0.00  0.00     0.090 C 
ATOM     47  H   SGN d 141     -40.921  -3.408  21.822  0.00  0.00     0.210 HD
ATOM     48  H   SGN d 141     -38.445  -6.419  20.499  0.00  0.00     0.076 H 
ATOM     49  H   SGN d 141     -40.871  -4.963  19.589  0.00  0.00     0.089 H 
ATOM     50  H   SGN d 141     -40.051  -5.710  22.202  0.00  0.00     0.210 HD
ATOM     51  H   SGN d 141     -41.154  -9.328  20.159  0.00  0.00     0.231 HD
ATOM     52  H   SGN d 141     -39.800  -7.226  18.235  0.00  0.00     0.140 HD
ATOM     53  H   SGN d 141     -37.639  -6.127  18.263  0.00  0.00     0.131 H 
ATOM     54  H   SGN d 141     -37.645  -1.369  19.376  0.00  0.00     0.080 H 
ATOM     55  H   SGN d 141     -38.034  -1.804  21.014  0.00  0.00     0.080 H 
ATOM     56  H   SGN d 141     -39.703  -8.286  21.576  0.00  0.00     0.231 HD
ATOM     57  H   SGN d 141     -38.517  -9.163  17.942  0.00  0.00     0.231 HD
ATOM     58  H   SGN d 141     -38.652  -4.027  21.479  0.00  0.00     0.091 H 
ATOM     59  H   SGN d 141     -39.256  -2.914  18.838  0.00  0.00     0.090 H 
ENDROOT
TORSDOF 18
ENDMDL
MODEL 32
REMARK VINA RESULT:      -4.9      2.187      4.031
REMARK  0 active torsions:
REMARK  status: ('A' for Active; 'I' for Inactive)
REMARK       I    between atoms: C2_2  and  O2_34 
REMARK       I    between atoms: O4_3  and  C4_29 
REMARK       I    between atoms: O6_4  and  C6_17 
REMARK       I    between atoms: O6_4  and  S2_35 
REMARK       I    between atoms: C2_6  and  N_15 
REMARK       I    between atoms: O1_8  and  C1_19 
REMARK       I    between atoms: O1_8  and  C7_24 
REMARK       I    between atoms: C4_9  and  O4_22 
REMARK       I    between atoms: C3_10  and  O3_13 
REMARK       I    between atoms: O1S_14  and  S1_21 
REMARK       I    between atoms: N_15  and  S1_21 
REMARK       I    between atoms: C1_16  and  O4_22 
REMARK       I    between atoms: C6_17  and  C5_36 
REMARK       I    between atoms: O2S_18  and  S1_21 
REMARK       I    between atoms: O3S_20  and  S1_21 
REMARK       I    between atoms: O3_23  and  C3_25 
REMARK       I    between atoms: S_28  and  O2_34 
REMARK       I    between atoms: C6_32  and  C5_33 
ROOT
ATOM      1  OS3 IDY d 142     -39.786   0.875  20.463  0.00  0.00    -0.572 OA
ATOM      2  C2  IDY d 142     -40.747  -1.737  21.300  0.00  0.00     0.134 C 
ATOM      3  O61 IDY d 142     -45.000  -3.554  18.707  0.00  0.00    -0.646 OA
ATOM      4  O1  IDY d 142     -42.522  -0.338  21.698  0.00  0.00    -0.363 OA
ATOM      5  C4  IDY d 142     -42.126  -3.734  20.593  0.00  0.00     0.103 C 
ATOM      6  OS2 IDY d 142     -37.940  -0.309  21.471  0.00  0.00    -0.572 OA
ATOM      7  O62 IDY d 142     -43.030  -2.875  17.664  0.00  0.00    -0.646 OA
ATOM      8  C1  IDY d 142     -41.885  -0.889  20.793  0.00  0.00     0.160 C 
ATOM      9  O4  IDY d 142     -41.463  -4.426  19.429  0.00  0.00    -0.348 OA
ATOM     10  O3  IDY d 142     -41.559  -3.322  22.923  0.00  0.00    -0.390 OA
ATOM     11  C7  IDY d 142     -43.100  -0.024  22.951  0.00  0.00     0.007 C 
ATOM     12  C3  IDY d 142     -41.099  -3.174  21.518  0.00  0.00     0.094 C 
ATOM     13  S   IDY d 142     -38.873  -0.309  20.323  0.00  0.00     0.252 S 
ATOM     14  O5  IDY d 142     -42.659  -1.456  19.756  0.00  0.00    -0.340 OA
ATOM     15  C6  IDY d 142     -43.725  -3.263  18.750  0.00  0.00     0.206 C 
ATOM     16  C5  IDY d 142     -43.169  -2.763  20.063  0.00  0.00     0.152 C 
ATOM     17  O2  IDY d 142     -39.665  -1.597  20.355  0.00  0.00    -0.244 OA
ATOM     18  OS1 IDY d 142     -38.108  -0.259  19.068  0.00  0.00    -0.572 OA
ATOM     19  H   IDY d 142     -40.470  -1.390  22.274  0.00  0.00     0.097 H 
ATOM     20  H   IDY d 142     -42.670  -4.419  21.210  0.00  0.00     0.092 H 
ATOM     21  H   IDY d 142     -41.407  -0.084  20.275  0.00  0.00     0.133 H 
ATOM     22  H   IDY d 142     -40.890  -2.957  23.523  0.00  0.00     0.210 HD
ATOM     23  H   IDY d 142     -43.682   0.870  22.861  0.00  0.00     0.066 H 
ATOM     24  H   IDY d 142     -42.326   0.125  23.674  0.00  0.00     0.066 H 
ATOM     25  H   IDY d 142     -43.731  -0.829  23.264  0.00  0.00     0.066 H 
ATOM     26  H   IDY d 142     -40.213  -3.736  21.308  0.00  0.00     0.091 H 
ATOM     27  H   IDY d 142     -43.891  -2.699  20.851  0.00  0.00     0.104 H 
ATOM     28  O4  SGN d 141     -41.123  -5.350  15.278  0.00  0.00    -0.390 OA
ATOM     29  O6  SGN d 141     -42.315  -8.582  17.596  0.00  0.00    -0.254 OA
ATOM     30  O5S SGN d 141     -43.764  -9.940  16.344  0.00  0.00    -0.572 OA
ATOM     31  C2  SGN d 141     -39.451  -5.339  18.483  0.00  0.00     0.081 C 
ATOM     32  C3  SGN d 141     -39.831  -4.911  17.079  0.00  0.00     0.083 C 
ATOM     33  O3  SGN d 141     -38.731  -4.826  16.203  0.00  0.00    -0.391 OA
ATOM     34  O1S SGN d 141     -36.485  -3.519  19.875  0.00  0.00    -0.296 OA
ATOM     35  N   SGN d 141     -38.682  -4.302  19.123  0.00  0.00    -0.210 NA
ATOM     36  C1  SGN d 141     -40.726  -5.611  19.282  0.00  0.00     0.150 C 
ATOM     37  C6  SGN d 141     -42.688  -7.462  16.828  0.00  0.00     0.067 C 
ATOM     38  O2S SGN d 141     -36.765  -5.671  18.960  0.00  0.00    -0.296 OA
ATOM     39  O3S SGN d 141     -37.610  -5.233  21.108  0.00  0.00    -0.296 OA
ATOM     40  S1  SGN d 141     -37.320  -4.679  19.819  0.00  0.00     0.156 S 
ATOM     41  O4S SGN d 141     -42.683 -10.894  18.258  0.00  0.00    -0.572 OA
ATOM     42  O5  SGN d 141     -41.549  -6.582  18.662  0.00  0.00    -0.349 OA
ATOM     43  C4  SGN d 141     -40.745  -5.947  16.485  0.00  0.00     0.089 C 
ATOM     44  O6S SGN d 141     -44.458  -9.282  18.529  0.00  0.00    -0.572 OA
ATOM     45  S2  SGN d 141     -43.344  -9.731  17.704  0.00  0.00     0.251 S 
ATOM     46  C5  SGN d 141     -41.953  -6.254  17.361  0.00  0.00     0.090 C 
ATOM     47  H   SGN d 141     -40.332  -5.168  14.746  0.00  0.00     0.210 HD
ATOM     48  H   SGN d 141     -38.857  -6.227  18.440  0.00  0.00     0.076 H 
ATOM     49  H   SGN d 141     -40.281  -3.945  17.176  0.00  0.00     0.089 H 
ATOM     50  H   SGN d 141     -38.320  -5.701  16.113  0.00  0.00     0.210 HD
ATOM     51  H   SGN d 141     -36.325  -3.192  18.975  0.00  0.00     0.231 HD
ATOM     52  H   SGN d 141     -39.278  -3.887  19.839  0.00  0.00     0.140 HD
ATOM     53  H   SGN d 141     -40.422  -5.987  20.236  0.00  0.00     0.131 H 
ATOM     54  H   SGN d 141     -43.744  -7.307  16.905  0.00  0.00     0.080 H 
ATOM     55  H   SGN d 141     -42.438  -7.621  15.800  0.00  0.00     0.080 H 
ATOM     56  H   SGN d 141     -36.575  -5.279  18.093  0.00  0.00     0.231 HD
ATOM     57  H   SGN d 141     -37.986  -4.545  21.678  0.00  0.00     0.231 HD
ATOM     58  H   SGN d 141     -40.272  -6.899  16.373  0.00  0.00     0.091 H 
ATOM     59  H   SGN d 141     -42.575  -5.384  17.361  0.00  0.00     0.090 H 
ENDROOT
TORSDOF 18
ENDMDL
MODEL 33
REMARK VINA RESULT:      -4.9      3.540      8.532
REMARK  0 active torsions:
REMARK  status: ('A' for Active; 'I' for Inactive)
REMARK       I    between atoms: C2_2  and  O2_34 
REMARK       I    between atoms: O4_3  and  C4_29 
REMARK       I    between atoms: O6_4  and  C6_17 
REMARK       I    between atoms: O6_4  and  S2_35 
REMARK       I    between atoms: C2_6  and  N_15 
REMARK       I    between atoms: O1_8  and  C1_19 
REMARK       I    between atoms: O1_8  and  C7_24 
REMARK       I    between atoms: C4_9  and  O4_22 
REMARK       I    between atoms: C3_10  and  O3_13 
REMARK       I    between atoms: O1S_14  and  S1_21 
REMARK       I    between atoms: N_15  and  S1_21 
REMARK       I    between atoms: C1_16  and  O4_22 
REMARK       I    between atoms: C6_17  and  C5_36 
REMARK       I    between atoms: O2S_18  and  S1_21 
REMARK       I    between atoms: O3S_20  and  S1_21 
REMARK       I    between atoms: O3_23  and  C3_25 
REMARK       I    between atoms: S_28  and  O2_34 
REMARK       I    between atoms: C6_32  and  C5_33 
ROOT
ATOM      1  OS3 IDY d 142     -42.233 -11.021  12.796  0.00  0.00    -0.572 OA
ATOM      2  C2  IDY d 142     -40.569  -9.569  14.684  0.00  0.00     0.134 C 
ATOM      3  O61 IDY d 142     -39.000  -4.750  13.125  0.00  0.00    -0.646 OA
ATOM      4  O1  IDY d 142     -39.244  -9.778  12.823  0.00  0.00    -0.363 OA
ATOM      5  C4  IDY d 142     -39.750  -7.271  15.347  0.00  0.00     0.103 C 
ATOM      6  OS2 IDY d 142     -42.687 -11.884  15.003  0.00  0.00    -0.572 OA
ATOM      7  O62 IDY d 142     -41.227  -5.432  13.207  0.00  0.00    -0.646 OA
ATOM      8  C1  IDY d 142     -40.230  -9.180  13.269  0.00  0.00     0.160 C 
ATOM      9  O4  IDY d 142     -40.910  -6.435  15.828  0.00  0.00    -0.348 OA
ATOM     10  O3  IDY d 142     -38.637  -9.299  16.100  0.00  0.00    -0.390 OA
ATOM     11  C7  IDY d 142     -38.027 -10.491  12.715  0.00  0.00     0.007 C 
ATOM     12  C3  IDY d 142     -39.945  -8.699  15.728  0.00  0.00     0.094 C 
ATOM     13  S   IDY d 142     -42.798 -10.684  14.145  0.00  0.00     0.252 S 
ATOM     14  O5  IDY d 142     -40.292  -7.799  12.979  0.00  0.00    -0.340 OA
ATOM     15  C6  IDY d 142     -39.930  -5.570  13.543  0.00  0.00     0.206 C 
ATOM     16  C5  IDY d 142     -39.514  -6.985  13.872  0.00  0.00     0.152 C 
ATOM     17  O2  IDY d 142     -42.009  -9.566  14.788  0.00  0.00    -0.244 OA
ATOM     18  OS1 IDY d 142     -44.208 -10.273  14.056  0.00  0.00    -0.572 OA
ATOM     19  H   IDY d 142     -40.160 -10.538  14.880  0.00  0.00     0.097 H 
ATOM     20  H   IDY d 142     -38.835  -7.005  15.833  0.00  0.00     0.092 H 
ATOM     21  H   IDY d 142     -41.050  -9.548  12.688  0.00  0.00     0.133 H 
ATOM     22  H   IDY d 142     -38.767 -10.228  16.348  0.00  0.00     0.210 HD
ATOM     23  H   IDY d 142     -37.810 -10.672  11.683  0.00  0.00     0.066 H 
ATOM     24  H   IDY d 142     -38.113 -11.425  13.230  0.00  0.00     0.066 H 
ATOM     25  H   IDY d 142     -37.236  -9.917  13.150  0.00  0.00     0.066 H 
ATOM     26  H   IDY d 142     -40.635  -8.666  16.546  0.00  0.00     0.091 H 
ATOM     27  H   IDY d 142     -38.471  -7.181  13.731  0.00  0.00     0.104 H 
ATOM     28  O4  SGN d 141     -43.831  -3.370  15.310  0.00  0.00    -0.390 OA
ATOM     29  O6  SGN d 141     -40.899  -2.403  18.086  0.00  0.00    -0.254 OA
ATOM     30  O5S SGN d 141     -40.500  -0.090  18.016  0.00  0.00    -0.572 OA
ATOM     31  C2  SGN d 141     -42.853  -6.270  17.232  0.00  0.00     0.081 C 
ATOM     32  C3  SGN d 141     -43.601  -5.424  16.221  0.00  0.00     0.083 C 
ATOM     33  O3  SGN d 141     -44.999  -5.443  16.401  0.00  0.00    -0.391 OA
ATOM     34  O1S SGN d 141     -44.316  -9.684  17.737  0.00  0.00    -0.296 OA
ATOM     35  N   SGN d 141     -43.130  -7.667  17.009  0.00  0.00    -0.210 NA
ATOM     36  C1  SGN d 141     -41.353  -6.007  17.089  0.00  0.00     0.150 C 
ATOM     37  C6  SGN d 141     -41.328  -2.377  16.745  0.00  0.00     0.067 C 
ATOM     38  O2S SGN d 141     -44.403  -7.696  18.998  0.00  0.00    -0.296 OA
ATOM     39  O3S SGN d 141     -42.405  -8.932  18.966  0.00  0.00    -0.296 OA
ATOM     40  S1  SGN d 141     -43.575  -8.562  18.227  0.00  0.00     0.156 S 
ATOM     41  O4S SGN d 141     -39.826  -1.301  19.971  0.00  0.00    -0.572 OA
ATOM     42  O5  SGN d 141     -41.034  -4.636  17.239  0.00  0.00    -0.349 OA
ATOM     43  C4  SGN d 141     -43.189  -3.988  16.387  0.00  0.00     0.089 C 
ATOM     44  O6S SGN d 141     -38.620  -1.552  17.897  0.00  0.00    -0.572 OA
ATOM     45  S2  SGN d 141     -39.909  -1.299  18.525  0.00  0.00     0.251 S 
ATOM     46  C5  SGN d 141     -41.679  -3.787  16.331  0.00  0.00     0.090 C 
ATOM     47  H   SGN d 141     -44.788  -3.517  15.376  0.00  0.00     0.210 HD
ATOM     48  H   SGN d 141     -43.170  -6.013  18.221  0.00  0.00     0.076 H 
ATOM     49  H   SGN d 141     -43.363  -5.832  15.261  0.00  0.00     0.089 H 
ATOM     50  H   SGN d 141     -45.218  -5.074  17.271  0.00  0.00     0.210 HD
ATOM     51  H   SGN d 141     -45.093  -9.370  17.248  0.00  0.00     0.231 HD
ATOM     52  H   SGN d 141     -42.281  -8.082  16.627  0.00  0.00     0.140 HD
ATOM     53  H   SGN d 141     -40.864  -6.554  17.867  0.00  0.00     0.131 H 
ATOM     54  H   SGN d 141     -40.542  -2.002  16.122  0.00  0.00     0.080 H 
ATOM     55  H   SGN d 141     -42.180  -1.739  16.643  0.00  0.00     0.080 H 
ATOM     56  H   SGN d 141     -45.189  -7.456  18.483  0.00  0.00     0.231 HD
ATOM     57  H   SGN d 141     -41.855  -9.521  18.426  0.00  0.00     0.231 HD
ATOM     58  H   SGN d 141     -43.456  -3.590  17.343  0.00  0.00     0.091 H 
ATOM     59  H   SGN d 141     -41.369  -3.992  15.328  0.00  0.00     0.090 H 
ENDROOT
TORSDOF 18
ENDMDL
MODEL 34
REMARK VINA RESULT:      -4.9      2.550      7.754
REMARK  0 active torsions:
REMARK  status: ('A' for Active; 'I' for Inactive)
REMARK       I    between atoms: C2_2  and  O2_34 
REMARK       I    between atoms: O4_3  and  C4_29 
REMARK       I    between atoms: O6_4  and  C6_17 
REMARK       I    between atoms: O6_4  and  S2_35 
REMARK       I    between atoms: C2_6  and  N_15 
REMARK       I    between atoms: O1_8  and  C1_19 
REMARK       I    between atoms: O1_8  and  C7_24 
REMARK       I    between atoms: C4_9  and  O4_22 
REMARK       I    between atoms: C3_10  and  O3_13 
REMARK       I    between atoms: O1S_14  and  S1_21 
REMARK       I    between atoms: N_15  and  S1_21 
REMARK       I    between atoms: C1_16  and  O4_22 
REMARK       I    between atoms: C6_17  and  C5_36 
REMARK       I    between atoms: O2S_18  and  S1_21 
REMARK       I    between atoms: O3S_20  and  S1_21 
REMARK       I    between atoms: O3_23  and  C3_25 
REMARK       I    between atoms: S_28  and  O2_34 
REMARK       I    between atoms: C6_32  and  C5_33 
ROOT
ATOM      1  OS3 IDY d 142     -44.021  -7.902  15.028  0.00  0.00    -0.572 OA
ATOM      2  C2  IDY d 142     -41.339  -6.918  15.561  0.00  0.00     0.134 C 
ATOM      3  O61 IDY d 142     -40.834  -1.646  15.798  0.00  0.00    -0.646 OA
ATOM      4  O1  IDY d 142     -41.862  -6.022  13.515  0.00  0.00    -0.363 OA
ATOM      5  C4  IDY d 142     -40.014  -4.935  16.398  0.00  0.00     0.103 C 
ATOM      6  OS2 IDY d 142     -42.803  -9.646  16.166  0.00  0.00    -0.572 OA
ATOM      7  O62 IDY d 142     -42.336  -2.870  17.093  0.00  0.00    -0.646 OA
ATOM      8  C1  IDY d 142     -42.109  -5.932  14.722  0.00  0.00     0.160 C 
ATOM      9  O4  IDY d 142     -40.319  -4.695  17.855  0.00  0.00    -0.348 OA
ATOM     10  O3  IDY d 142     -38.980  -6.721  15.109  0.00  0.00    -0.390 OA
ATOM     11  C7  IDY d 142     -41.227  -6.286  12.278  0.00  0.00     0.007 C 
ATOM     12  C3  IDY d 142     -40.044  -6.394  16.094  0.00  0.00     0.094 C 
ATOM     13  S   IDY d 142     -43.356  -8.282  16.319  0.00  0.00     0.252 S 
ATOM     14  O5  IDY d 142     -42.187  -4.618  15.235  0.00  0.00    -0.340 OA
ATOM     15  C6  IDY d 142     -41.246  -2.779  16.306  0.00  0.00     0.206 C 
ATOM     16  C5  IDY d 142     -40.909  -4.044  15.551  0.00  0.00     0.152 C 
ATOM     17  O2  IDY d 142     -42.216  -7.339  16.628  0.00  0.00    -0.244 OA
ATOM     18  OS1 IDY d 142     -44.303  -8.260  17.444  0.00  0.00    -0.572 OA
ATOM     19  H   IDY d 142     -41.047  -7.740  14.941  0.00  0.00     0.097 H 
ATOM     20  H   IDY d 142     -39.014  -4.648  16.145  0.00  0.00     0.092 H 
ATOM     21  H   IDY d 142     -43.128  -6.247  14.810  0.00  0.00     0.133 H 
ATOM     22  H   IDY d 142     -39.001  -7.671  14.913  0.00  0.00     0.210 HD
ATOM     23  H   IDY d 142     -41.868  -5.983  11.476  0.00  0.00     0.066 H 
ATOM     24  H   IDY d 142     -41.024  -7.333  12.197  0.00  0.00     0.066 H 
ATOM     25  H   IDY d 142     -40.309  -5.740  12.225  0.00  0.00     0.066 H 
ATOM     26  H   IDY d 142     -39.893  -6.869  17.042  0.00  0.00     0.091 H 
ATOM     27  H   IDY d 142     -40.347  -3.885  14.654  0.00  0.00     0.104 H 
ATOM     28  O4  SGN d 141     -42.245  -2.567  21.011  0.00  0.00    -0.390 OA
ATOM     29  O6  SGN d 141     -38.130  -2.022  20.923  0.00  0.00    -0.254 OA
ATOM     30  O5S SGN d 141     -37.621   0.149  21.658  0.00  0.00    -0.572 OA
ATOM     31  C2  SGN d 141     -40.549  -5.615  20.063  0.00  0.00     0.081 C 
ATOM     32  C3  SGN d 141     -41.683  -4.673  20.416  0.00  0.00     0.083 C 
ATOM     33  O3  SGN d 141     -42.478  -5.131  21.486  0.00  0.00    -0.391 OA
ATOM     34  O1S SGN d 141     -41.582  -9.209  19.812  0.00  0.00    -0.296 OA
ATOM     35  N   SGN d 141     -41.076  -6.832  19.499  0.00  0.00    -0.210 NA
ATOM     36  C1  SGN d 141     -39.628  -4.928  19.053  0.00  0.00     0.150 C 
ATOM     37  C6  SGN d 141     -39.400  -1.588  20.498  0.00  0.00     0.067 C 
ATOM     38  O2S SGN d 141     -40.454  -7.973  21.470  0.00  0.00    -0.296 OA
ATOM     39  O3S SGN d 141     -39.313  -8.520  19.490  0.00  0.00    -0.296 OA
ATOM     40  S1  SGN d 141     -40.587  -8.215  20.073  0.00  0.00     0.156 S 
ATOM     41  O4S SGN d 141     -35.886  -1.504  21.710  0.00  0.00    -0.572 OA
ATOM     42  O5  SGN d 141     -39.130  -3.695  19.536  0.00  0.00    -0.349 OA
ATOM     43  C4  SGN d 141     -41.103  -3.362  20.872  0.00  0.00     0.089 C 
ATOM     44  O6S SGN d 141     -36.651  -0.593  19.610  0.00  0.00    -0.572 OA
ATOM     45  S2  SGN d 141     -37.008  -0.958  20.974  0.00  0.00     0.251 S 
ATOM     46  C5  SGN d 141     -40.119  -2.763  19.876  0.00  0.00     0.090 C 
ATOM     47  H   SGN d 141     -42.848  -2.977  21.651  0.00  0.00     0.210 HD
ATOM     48  H   SGN d 141     -39.996  -5.859  20.946  0.00  0.00     0.076 H 
ATOM     49  H   SGN d 141     -42.286  -4.593  19.537  0.00  0.00     0.089 H 
ATOM     50  H   SGN d 141     -41.934  -5.204  22.286  0.00  0.00     0.210 HD
ATOM     51  H   SGN d 141     -42.418  -8.947  20.230  0.00  0.00     0.231 HD
ATOM     52  H   SGN d 141     -40.848  -6.823  18.505  0.00  0.00     0.140 HD
ATOM     53  H   SGN d 141     -38.800  -5.585  18.889  0.00  0.00     0.131 H 
ATOM     54  H   SGN d 141     -39.292  -0.806  19.776  0.00  0.00     0.080 H 
ATOM     55  H   SGN d 141     -39.958  -1.213  21.330  0.00  0.00     0.080 H 
ATOM     56  H   SGN d 141     -41.325  -7.770  21.847  0.00  0.00     0.231 HD
ATOM     57  H   SGN d 141     -39.423  -8.681  18.540  0.00  0.00     0.231 HD
ATOM     58  H   SGN d 141     -40.524  -3.457  21.766  0.00  0.00     0.091 H 
ATOM     59  H   SGN d 141     -40.680  -2.468  19.014  0.00  0.00     0.090 H 
ENDROOT
TORSDOF 18
ENDMDL
MODEL 35
REMARK VINA RESULT:      -4.9      3.692      5.263
REMARK  0 active torsions:
REMARK  status: ('A' for Active; 'I' for Inactive)
REMARK       I    between atoms: C2_2  and  O2_34 
REMARK       I    between atoms: O4_3  and  C4_29 
REMARK       I    between atoms: O6_4  and  C6_17 
REMARK       I    between atoms: O6_4  and  S2_35 
REMARK       I    between atoms: C2_6  and  N_15 
REMARK       I    between atoms: O1_8  and  C1_19 
REMARK       I    between atoms: O1_8  and  C7_24 
REMARK       I    between atoms: C4_9  and  O4_22 
REMARK       I    between atoms: C3_10  and  O3_13 
REMARK       I    between atoms: O1S_14  and  S1_21 
REMARK       I    between atoms: N_15  and  S1_21 
REMARK       I    between atoms: C1_16  and  O4_22 
REMARK       I    between atoms: C6_17  and  C5_36 
REMARK       I    between atoms: O2S_18  and  S1_21 
REMARK       I    between atoms: O3S_20  and  S1_21 
REMARK       I    between atoms: O3_23  and  C3_25 
REMARK       I    between atoms: S_28  and  O2_34 
REMARK       I    between atoms: C6_32  and  C5_33 
ROOT
ATOM      1  OS3 IDY d 142     -41.586  -4.830  22.544  0.00  0.00    -0.572 OA
ATOM      2  C2  IDY d 142     -39.108  -4.955  21.030  0.00  0.00     0.134 C 
ATOM      3  O61 IDY d 142     -38.074  -9.606  18.704  0.00  0.00    -0.646 OA
ATOM      4  O1  IDY d 142     -38.851  -6.561  22.648  0.00  0.00    -0.363 OA
ATOM      5  C4  IDY d 142     -37.884  -6.205  19.206  0.00  0.00     0.103 C 
ATOM      6  OS2 IDY d 142     -41.005  -2.583  21.883  0.00  0.00    -0.572 OA
ATOM      7  O62 IDY d 142     -40.041  -8.399  18.385  0.00  0.00    -0.646 OA
ATOM      8  C1  IDY d 142     -39.453  -6.307  21.598  0.00  0.00     0.160 C 
ATOM      9  O4  IDY d 142     -38.600  -6.020  17.892  0.00  0.00    -0.348 OA
ATOM     10  O3  IDY d 142     -36.721  -4.751  20.772  0.00  0.00    -0.390 OA
ATOM     11  C7  IDY d 142     -37.897  -6.579  23.693  0.00  0.00     0.007 C 
ATOM     12  C3  IDY d 142     -37.993  -4.971  20.035  0.00  0.00     0.094 C 
ATOM     13  S   IDY d 142     -41.410  -3.910  21.371  0.00  0.00     0.252 S 
ATOM     14  O5  IDY d 142     -39.529  -7.364  20.665  0.00  0.00    -0.340 OA
ATOM     15  C6  IDY d 142     -38.758  -8.493  18.781  0.00  0.00     0.206 C 
ATOM     16  C5  IDY d 142     -38.355  -7.500  19.848  0.00  0.00     0.152 C 
ATOM     17  O2  IDY d 142     -40.320  -4.419  20.455  0.00  0.00    -0.244 OA
ATOM     18  OS1 IDY d 142     -42.652  -3.779  20.594  0.00  0.00    -0.572 OA
ATOM     19  H   IDY d 142     -38.738  -4.336  21.820  0.00  0.00     0.097 H 
ATOM     20  H   IDY d 142     -36.829  -6.326  19.074  0.00  0.00     0.092 H 
ATOM     21  H   IDY d 142     -40.478  -6.219  21.893  0.00  0.00     0.133 H 
ATOM     22  H   IDY d 142     -36.794  -3.948  21.310  0.00  0.00     0.210 HD
ATOM     23  H   IDY d 142     -38.214  -7.262  24.453  0.00  0.00     0.066 H 
ATOM     24  H   IDY d 142     -37.806  -5.597  24.109  0.00  0.00     0.066 H 
ATOM     25  H   IDY d 142     -36.950  -6.890  23.305  0.00  0.00     0.066 H 
ATOM     26  H   IDY d 142     -38.205  -4.193  19.331  0.00  0.00     0.091 H 
ATOM     27  H   IDY d 142     -37.525  -7.812  20.448  0.00  0.00     0.104 H 
ATOM     28  O4  SGN d 141     -41.148  -7.381  14.753  0.00  0.00    -0.390 OA
ATOM     29  O6  SGN d 141     -37.179  -6.983  13.601  0.00  0.00    -0.254 OA
ATOM     30  O5S SGN d 141     -36.669  -8.623  12.000  0.00  0.00    -0.572 OA
ATOM     31  C2  SGN d 141     -39.619  -4.509  16.326  0.00  0.00     0.081 C 
ATOM     32  C3  SGN d 141     -40.685  -5.515  15.938  0.00  0.00     0.083 C 
ATOM     33  O3  SGN d 141     -41.824  -4.926  15.354  0.00  0.00    -0.391 OA
ATOM     34  O1S SGN d 141     -40.946  -1.523  18.163  0.00  0.00    -0.296 OA
ATOM     35  N   SGN d 141     -40.085  -3.694  17.419  0.00  0.00    -0.210 NA
ATOM     36  C1  SGN d 141     -38.353  -5.260  16.738  0.00  0.00     0.150 C 
ATOM     37  C6  SGN d 141     -38.190  -7.806  14.133  0.00  0.00     0.067 C 
ATOM     38  O2S SGN d 141     -40.255  -1.864  15.936  0.00  0.00    -0.296 OA
ATOM     39  O3S SGN d 141     -38.625  -1.749  17.625  0.00  0.00    -0.296 OA
ATOM     40  S1  SGN d 141     -39.970  -2.126  17.307  0.00  0.00     0.156 S 
ATOM     41  O4S SGN d 141     -35.250  -6.698  12.146  0.00  0.00    -0.572 OA
ATOM     42  O5  SGN d 141     -37.887  -6.124  15.718  0.00  0.00    -0.349 OA
ATOM     43  C4  SGN d 141     -40.125  -6.439  14.892  0.00  0.00     0.089 C 
ATOM     44  O6S SGN d 141     -35.202  -8.389  13.866  0.00  0.00    -0.572 OA
ATOM     45  S2  SGN d 141     -36.011  -7.690  12.875  0.00  0.00     0.251 S 
ATOM     46  C5  SGN d 141     -38.813  -7.092  15.310  0.00  0.00     0.090 C 
ATOM     47  H   SGN d 141     -41.966  -6.933  14.486  0.00  0.00     0.210 HD
ATOM     48  H   SGN d 141     -39.405  -3.872  15.493  0.00  0.00     0.076 H 
ATOM     49  H   SGN d 141     -40.968  -6.010  16.842  0.00  0.00     0.089 H 
ATOM     50  H   SGN d 141     -41.571  -4.475  14.533  0.00  0.00     0.210 HD
ATOM     51  H   SGN d 141     -41.833  -1.816  17.899  0.00  0.00     0.231 HD
ATOM     52  H   SGN d 141     -39.558  -3.974  18.246  0.00  0.00     0.140 HD
ATOM     53  H   SGN d 141     -37.600  -4.524  16.926  0.00  0.00     0.131 H 
ATOM     54  H   SGN d 141     -37.768  -8.735  14.455  0.00  0.00     0.080 H 
ATOM     55  H   SGN d 141     -38.932  -8.006  13.388  0.00  0.00     0.080 H 
ATOM     56  H   SGN d 141     -41.168  -2.125  15.740  0.00  0.00     0.231 HD
ATOM     57  H   SGN d 141     -38.449  -1.935  18.560  0.00  0.00     0.231 HD
ATOM     58  H   SGN d 141     -39.871  -5.931  13.986  0.00  0.00     0.091 H 
ATOM     59  H   SGN d 141     -39.035  -7.769  16.108  0.00  0.00     0.090 H 
ENDROOT
TORSDOF 18
ENDMDL
MODEL 36
REMARK VINA RESULT:      -4.9      2.910      5.236
REMARK  0 active torsions:
REMARK  status: ('A' for Active; 'I' for Inactive)
REMARK       I    between atoms: C2_2  and  O2_34 
REMARK       I    between atoms: O4_3  and  C4_29 
REMARK       I    between atoms: O6_4  and  C6_17 
REMARK       I    between atoms: O6_4  and  S2_35 
REMARK       I    between atoms: C2_6  and  N_15 
REMARK       I    between atoms: O1_8  and  C1_19 
REMARK       I    between atoms: O1_8  and  C7_24 
REMARK       I    between atoms: C4_9  and  O4_22 
REMARK       I    between atoms: C3_10  and  O3_13 
REMARK       I    between atoms: O1S_14  and  S1_21 
REMARK       I    between atoms: N_15  and  S1_21 
REMARK       I    between atoms: C1_16  and  O4_22 
REMARK       I    between atoms: C6_17  and  C5_36 
REMARK       I    between atoms: O2S_18  and  S1_21 
REMARK       I    between atoms: O3S_20  and  S1_21 
REMARK       I    between atoms: O3_23  and  C3_25 
REMARK       I    between atoms: S_28  and  O2_34 
REMARK       I    between atoms: C6_32  and  C5_33 
ROOT
ATOM      1  OS3 IDY d 142     -36.713  -1.010  19.554  0.00  0.00    -0.572 OA
ATOM      2  C2  IDY d 142     -39.298  -2.335  19.647  0.00  0.00     0.134 C 
ATOM      3  O61 IDY d 142     -41.708  -2.993  14.970  0.00  0.00    -0.646 OA
ATOM      4  O1  IDY d 142     -39.762  -0.276  18.746  0.00  0.00    -0.363 OA
ATOM      5  C4  IDY d 142     -40.991  -3.620  18.279  0.00  0.00     0.103 C 
ATOM      6  OS2 IDY d 142     -36.790  -2.350  21.560  0.00  0.00    -0.572 OA
ATOM      7  O62 IDY d 142     -39.551  -3.740  15.441  0.00  0.00    -0.646 OA
ATOM      8  C1  IDY d 142     -39.238  -1.367  18.494  0.00  0.00     0.160 C 
ATOM      9  O4  IDY d 142     -40.404  -4.941  17.851  0.00  0.00    -0.348 OA
ATOM     10  O3  IDY d 142     -41.574  -2.581  20.400  0.00  0.00    -0.390 OA
ATOM     11  C7  IDY d 142     -40.567   0.743  19.309  0.00  0.00     0.007 C 
ATOM     12  C3  IDY d 142     -40.488  -3.241  19.630  0.00  0.00     0.094 C 
ATOM     13  S   IDY d 142     -36.786  -2.414  20.082  0.00  0.00     0.252 S 
ATOM     14  O5  IDY d 142     -39.531  -1.908  17.223  0.00  0.00    -0.340 OA
ATOM     15  C6  IDY d 142     -40.765  -3.301  15.824  0.00  0.00     0.206 C 
ATOM     16  C5  IDY d 142     -40.786  -2.604  17.166  0.00  0.00     0.152 C 
ATOM     17  O2  IDY d 142     -38.065  -3.084  19.632  0.00  0.00    -0.244 OA
ATOM     18  OS1 IDY d 142     -35.646  -3.224  19.628  0.00  0.00    -0.572 OA
ATOM     19  H   IDY d 142     -39.412  -1.779  20.555  0.00  0.00     0.097 H 
ATOM     20  H   IDY d 142     -42.051  -3.676  18.414  0.00  0.00     0.092 H 
ATOM     21  H   IDY d 142     -38.197  -1.145  18.387  0.00  0.00     0.133 H 
ATOM     22  H   IDY d 142     -41.245  -2.335  21.279  0.00  0.00     0.210 HD
ATOM     23  H   IDY d 142     -40.346   1.675  18.833  0.00  0.00     0.066 H 
ATOM     24  H   IDY d 142     -40.364   0.820  20.357  0.00  0.00     0.066 H 
ATOM     25  H   IDY d 142     -41.599   0.503  19.162  0.00  0.00     0.066 H 
ATOM     26  H   IDY d 142     -40.170  -4.165  20.067  0.00  0.00     0.091 H 
ATOM     27  H   IDY d 142     -41.595  -1.913  17.290  0.00  0.00     0.104 H 
ATOM     28  O4  SGN d 141     -38.642  -7.534  14.958  0.00  0.00    -0.390 OA
ATOM     29  O6  SGN d 141     -42.493  -8.646  16.043  0.00  0.00    -0.254 OA
ATOM     30  O5S SGN d 141     -43.569  -9.613  14.194  0.00  0.00    -0.572 OA
ATOM     31  C2  SGN d 141     -39.225  -6.940  18.475  0.00  0.00     0.081 C 
ATOM     32  C3  SGN d 141     -38.492  -7.009  17.150  0.00  0.00     0.083 C 
ATOM     33  O3  SGN d 141     -37.316  -7.782  17.200  0.00  0.00    -0.391 OA
ATOM     34  O1S SGN d 141     -37.002  -6.210  21.404  0.00  0.00    -0.296 OA
ATOM     35  N   SGN d 141     -38.452  -6.184  19.428  0.00  0.00    -0.210 NA
ATOM     36  C1  SGN d 141     -40.583  -6.272  18.259  0.00  0.00     0.150 C 
ATOM     37  C6  SGN d 141     -41.664  -7.903  15.181  0.00  0.00     0.067 C 
ATOM     38  O2S SGN d 141     -38.002  -8.185  20.598  0.00  0.00    -0.296 OA
ATOM     39  O3S SGN d 141     -39.352  -6.583  21.661  0.00  0.00    -0.296 OA
ATOM     40  S1  SGN d 141     -38.187  -6.796  20.855  0.00  0.00     0.156 S 
ATOM     41  O4S SGN d 141     -44.442 -10.063  16.380  0.00  0.00    -0.572 OA
ATOM     42  O5  SGN d 141     -41.361  -6.943  17.284  0.00  0.00    -0.349 OA
ATOM     43  C4  SGN d 141     -39.378  -7.681  16.137  0.00  0.00     0.089 C 
ATOM     44  O6S SGN d 141     -44.713  -7.886  15.376  0.00  0.00    -0.572 OA
ATOM     45  S2  SGN d 141     -43.873  -9.071  15.491  0.00  0.00     0.251 S 
ATOM     46  C5  SGN d 141     -40.755  -7.039  16.025  0.00  0.00     0.090 C 
ATOM     47  H   SGN d 141     -37.774  -7.954  15.064  0.00  0.00     0.210 HD
ATOM     48  H   SGN d 141     -39.367  -7.929  18.859  0.00  0.00     0.076 H 
ATOM     49  H   SGN d 141     -38.241  -6.000  16.898  0.00  0.00     0.089 H 
ATOM     50  H   SGN d 141     -37.540  -8.698  17.428  0.00  0.00     0.210 HD
ATOM     51  H   SGN d 141     -36.251  -6.388  20.816  0.00  0.00     0.231 HD
ATOM     52  H   SGN d 141     -38.936  -5.297  19.568  0.00  0.00     0.140 HD
ATOM     53  H   SGN d 141     -41.104  -6.314  19.192  0.00  0.00     0.131 H 
ATOM     54  H   SGN d 141     -42.264  -7.285  14.546  0.00  0.00     0.080 H 
ATOM     55  H   SGN d 141     -41.083  -8.561  14.570  0.00  0.00     0.080 H 
ATOM     56  H   SGN d 141     -37.210  -8.310  20.052  0.00  0.00     0.231 HD
ATOM     57  H   SGN d 141     -39.462  -5.633  21.825  0.00  0.00     0.231 HD
ATOM     58  H   SGN d 141     -39.598  -8.696  16.392  0.00  0.00     0.091 H 
ATOM     59  H   SGN d 141     -40.619  -6.070  15.591  0.00  0.00     0.090 H 
ENDROOT
TORSDOF 18
ENDMDL
MODEL 37
REMARK VINA RESULT:      -4.9      3.187      8.155
REMARK  0 active torsions:
REMARK  status: ('A' for Active; 'I' for Inactive)
REMARK       I    between atoms: C2_2  and  O2_34 
REMARK       I    between atoms: O4_3  and  C4_29 
REMARK       I    between atoms: O6_4  and  C6_17 
REMARK       I    between atoms: O6_4  and  S2_35 
REMARK       I    between atoms: C2_6  and  N_15 
REMARK       I    between atoms: O1_8  and  C1_19 
REMARK       I    between atoms: O1_8  and  C7_24 
REMARK       I    between atoms: C4_9  and  O4_22 
REMARK       I    between atoms: C3_10  and  O3_13 
REMARK       I    between atoms: O1S_14  and  S1_21 
REMARK       I    between atoms: N_15  and  S1_21 
REMARK       I    between atoms: C1_16  and  O4_22 
REMARK       I    between atoms: C6_17  and  C5_36 
REMARK       I    between atoms: O2S_18  and  S1_21 
REMARK       I    between atoms: O3S_20  and  S1_21 
REMARK       I    between atoms: O3_23  and  C3_25 
REMARK       I    between atoms: S_28  and  O2_34 
REMARK       I    between atoms: C6_32  and  C5_33 
ROOT
ATOM      1  OS3 IDY d 142     -42.453 -10.239  14.732  0.00  0.00    -0.572 OA
ATOM      2  C2  IDY d 142     -41.537  -7.519  14.275  0.00  0.00     0.134 C 
ATOM      3  O61 IDY d 142     -44.467  -3.707  16.511  0.00  0.00    -0.646 OA
ATOM      4  O1  IDY d 142     -43.641  -7.557  13.361  0.00  0.00    -0.363 OA
ATOM      5  C4  IDY d 142     -41.657  -5.146  15.138  0.00  0.00     0.103 C 
ATOM      6  OS2 IDY d 142     -40.090 -10.321  14.252  0.00  0.00    -0.572 OA
ATOM      7  O62 IDY d 142     -43.537  -5.492  17.685  0.00  0.00    -0.646 OA
ATOM      8  C1  IDY d 142     -43.034  -7.556  14.438  0.00  0.00     0.160 C 
ATOM      9  O4  IDY d 142     -41.010  -5.064  16.498  0.00  0.00    -0.348 OA
ATOM     10  O3  IDY d 142     -40.903  -5.658  12.882  0.00  0.00    -0.390 OA
ATOM     11  C7  IDY d 142     -43.986  -7.382  12.000  0.00  0.00     0.007 C 
ATOM     12  C3  IDY d 142     -40.950  -6.144  14.286  0.00  0.00     0.094 C 
ATOM     13  S   IDY d 142     -41.093  -9.843  15.228  0.00  0.00     0.252 S 
ATOM     14  O5  IDY d 142     -43.564  -6.711  15.438  0.00  0.00    -0.340 OA
ATOM     15  C6  IDY d 142     -43.614  -4.695  16.602  0.00  0.00     0.206 C 
ATOM     16  C5  IDY d 142     -43.155  -5.339  15.314  0.00  0.00     0.152 C 
ATOM     17  O2  IDY d 142     -40.980  -8.338  15.326  0.00  0.00    -0.244 OA
ATOM     18  OS1 IDY d 142     -40.807 -10.422  16.550  0.00  0.00    -0.572 OA
ATOM     19  H   IDY d 142     -41.289  -7.897  13.305  0.00  0.00     0.097 H 
ATOM     20  H   IDY d 142     -41.555  -4.233  14.590  0.00  0.00     0.092 H 
ATOM     21  H   IDY d 142     -43.233  -8.520  14.858  0.00  0.00     0.133 H 
ATOM     22  H   IDY d 142     -40.443  -6.309  12.329  0.00  0.00     0.210 HD
ATOM     23  H   IDY d 142     -44.974  -7.758  11.831  0.00  0.00     0.066 H 
ATOM     24  H   IDY d 142     -43.291  -7.913  11.384  0.00  0.00     0.066 H 
ATOM     25  H   IDY d 142     -43.955  -6.341  11.756  0.00  0.00     0.066 H 
ATOM     26  H   IDY d 142     -39.979  -6.234  14.727  0.00  0.00     0.091 H 
ATOM     27  H   IDY d 142     -43.579  -4.909  14.431  0.00  0.00     0.104 H 
ATOM     28  O4  SGN d 141     -41.178  -4.804  20.752  0.00  0.00    -0.390 OA
ATOM     29  O6  SGN d 141     -39.750  -1.351  18.943  0.00  0.00    -0.254 OA
ATOM     30  O5S SGN d 141     -40.414   0.515  20.203  0.00  0.00    -0.572 OA
ATOM     31  C2  SGN d 141     -39.121  -5.593  17.887  0.00  0.00     0.081 C 
ATOM     32  C3  SGN d 141     -39.989  -5.803  19.112  0.00  0.00     0.083 C 
ATOM     33  O3  SGN d 141     -39.371  -6.584  20.108  0.00  0.00    -0.391 OA
ATOM     34  O1S SGN d 141     -37.487  -8.722  16.627  0.00  0.00    -0.296 OA
ATOM     35  N   SGN d 141     -38.954  -6.838  17.181  0.00  0.00    -0.210 NA
ATOM     36  C1  SGN d 141     -39.789  -4.563  16.975  0.00  0.00     0.150 C 
ATOM     37  C6  SGN d 141     -40.857  -2.077  19.420  0.00  0.00     0.067 C 
ATOM     38  O2S SGN d 141     -36.700  -6.892  17.884  0.00  0.00    -0.296 OA
ATOM     39  O3S SGN d 141     -37.119  -6.597  15.591  0.00  0.00    -0.296 OA
ATOM     40  S1  SGN d 141     -37.502  -7.300  16.779  0.00  0.00     0.156 S 
ATOM     41  O4S SGN d 141     -38.575   0.764  18.687  0.00  0.00    -0.572 OA
ATOM     42  O5  SGN d 141     -40.033  -3.337  17.640  0.00  0.00    -0.349 OA
ATOM     43  C4  SGN d 141     -40.262  -4.469  19.751  0.00  0.00     0.089 C 
ATOM     44  O6S SGN d 141     -40.830   0.547  17.855  0.00  0.00    -0.572 OA
ATOM     45  S2  SGN d 141     -39.886   0.189  18.905  0.00  0.00     0.251 S 
ATOM     46  C5  SGN d 141     -40.839  -3.446  18.780  0.00  0.00     0.090 C 
ATOM     47  H   SGN d 141     -40.779  -5.455  21.351  0.00  0.00     0.210 HD
ATOM     48  H   SGN d 141     -38.158  -5.237  18.186  0.00  0.00     0.076 H 
ATOM     49  H   SGN d 141     -40.870  -6.303  18.768  0.00  0.00     0.089 H 
ATOM     50  H   SGN d 141     -38.571  -6.133  20.423  0.00  0.00     0.210 HD
ATOM     51  H   SGN d 141     -37.755  -9.139  17.461  0.00  0.00     0.231 HD
ATOM     52  H   SGN d 141     -39.495  -6.768  16.319  0.00  0.00     0.140 HD
ATOM     53  H   SGN d 141     -39.115  -4.379  16.165  0.00  0.00     0.131 H 
ATOM     54  H   SGN d 141     -41.762  -1.568  19.160  0.00  0.00     0.080 H 
ATOM     55  H   SGN d 141     -40.808  -2.167  20.485  0.00  0.00     0.080 H 
ATOM     56  H   SGN d 141     -36.973  -7.377  18.678  0.00  0.00     0.231 HD
ATOM     57  H   SGN d 141     -37.675  -6.886  14.850  0.00  0.00     0.231 HD
ATOM     58  H   SGN d 141     -39.373  -3.996  20.111  0.00  0.00     0.091 H 
ATOM     59  H   SGN d 141     -41.824  -3.773  18.523  0.00  0.00     0.090 H 
ENDROOT
TORSDOF 18
ENDMDL
MODEL 38
REMARK VINA RESULT:      -4.9      2.570      7.596
REMARK  0 active torsions:
REMARK  status: ('A' for Active; 'I' for Inactive)
REMARK       I    between atoms: C2_2  and  O2_34 
REMARK       I    between atoms: O4_3  and  C4_29 
REMARK       I    between atoms: O6_4  and  C6_17 
REMARK       I    between atoms: O6_4  and  S2_35 
REMARK       I    between atoms: C2_6  and  N_15 
REMARK       I    between atoms: O1_8  and  C1_19 
REMARK       I    between atoms: O1_8  and  C7_24 
REMARK       I    between atoms: C4_9  and  O4_22 
REMARK       I    between atoms: C3_10  and  O3_13 
REMARK       I    between atoms: O1S_14  and  S1_21 
REMARK       I    between atoms: N_15  and  S1_21 
REMARK       I    between atoms: C1_16  and  O4_22 
REMARK       I    between atoms: C6_17  and  C5_36 
REMARK       I    between atoms: O2S_18  and  S1_21 
REMARK       I    between atoms: O3S_20  and  S1_21 
REMARK       I    between atoms: O3_23  and  C3_25 
REMARK       I    between atoms: S_28  and  O2_34 
REMARK       I    between atoms: C6_32  and  C5_33 
ROOT
ATOM      1  OS3 IDY d 142     -44.526  -5.121  17.003  0.00  0.00    -0.572 OA
ATOM      2  C2  IDY d 142     -41.685  -5.017  17.611  0.00  0.00     0.134 C 
ATOM      3  O61 IDY d 142     -39.601  -0.158  18.001  0.00  0.00    -0.646 OA
ATOM      4  O1  IDY d 142     -41.858  -3.962  15.581  0.00  0.00    -0.363 OA
ATOM      5  C4  IDY d 142     -39.839  -3.552  18.525  0.00  0.00     0.103 C 
ATOM      6  OS2 IDY d 142     -43.927  -7.178  18.115  0.00  0.00    -0.572 OA
ATOM      7  O62 IDY d 142     -41.437  -0.890  19.235  0.00  0.00    -0.646 OA
ATOM      8  C1  IDY d 142     -42.097  -3.825  16.785  0.00  0.00     0.160 C 
ATOM      9  O4  IDY d 142     -40.094  -3.260  19.982  0.00  0.00    -0.348 OA
ATOM     10  O3  IDY d 142     -39.369  -5.541  17.206  0.00  0.00    -0.390 OA
ATOM     11  C7  IDY d 142     -41.303  -4.381  14.348  0.00  0.00     0.007 C 
ATOM     12  C3  IDY d 142     -40.306  -4.925  18.180  0.00  0.00     0.094 C 
ATOM     13  S   IDY d 142     -44.042  -5.714  18.295  0.00  0.00     0.252 S 
ATOM     14  O5  IDY d 142     -41.783  -2.562  17.333  0.00  0.00    -0.340 OA
ATOM     15  C6  IDY d 142     -40.352  -1.120  18.471  0.00  0.00     0.206 C 
ATOM     16  C5  IDY d 142     -40.399  -2.412  17.687  0.00  0.00     0.152 C 
ATOM     17  O2  IDY d 142     -42.676  -5.171  18.650  0.00  0.00    -0.244 OA
ATOM     18  OS1 IDY d 142     -44.964  -5.426  19.404  0.00  0.00    -0.572 OA
ATOM     19  H   IDY d 142     -41.644  -5.876  16.974  0.00  0.00     0.097 H 
ATOM     20  H   IDY d 142     -38.794  -3.579  18.297  0.00  0.00     0.092 H 
ATOM     21  H   IDY d 142     -43.165  -3.815  16.847  0.00  0.00     0.133 H 
ATOM     22  H   IDY d 142     -39.674  -6.435  16.983  0.00  0.00     0.210 HD
ATOM     23  H   IDY d 142     -41.801  -3.880  13.544  0.00  0.00     0.066 H 
ATOM     24  H   IDY d 142     -41.428  -5.438  14.242  0.00  0.00     0.066 H 
ATOM     25  H   IDY d 142     -40.261  -4.141  14.326  0.00  0.00     0.066 H 
ATOM     26  H   IDY d 142     -40.332  -5.443  19.117  0.00  0.00     0.091 H 
ATOM     27  H   IDY d 142     -39.792  -2.414  16.805  0.00  0.00     0.104 H 
ATOM     28  O4  SGN d 141     -41.356  -0.712  23.161  0.00  0.00    -0.390 OA
ATOM     29  O6  SGN d 141     -37.270  -1.449  23.161  0.00  0.00    -0.254 OA
ATOM     30  O5S SGN d 141     -36.141   0.446  23.964  0.00  0.00    -0.572 OA
ATOM     31  C2  SGN d 141     -40.648  -4.111  22.159  0.00  0.00     0.081 C 
ATOM     32  C3  SGN d 141     -41.449  -2.875  22.519  0.00  0.00     0.083 C 
ATOM     33  O3  SGN d 141     -42.373  -3.090  23.561  0.00  0.00    -0.391 OA
ATOM     34  O1S SGN d 141     -42.724  -7.211  21.792  0.00  0.00    -0.296 OA
ATOM     35  N   SGN d 141     -41.508  -5.097  21.553  0.00  0.00    -0.210 NA
ATOM     36  C1  SGN d 141     -39.537  -3.719  21.186  0.00  0.00     0.150 C 
ATOM     37  C6  SGN d 141     -38.336  -0.639  22.726  0.00  0.00     0.067 C 
ATOM     38  O2S SGN d 141     -41.314  -6.414  23.503  0.00  0.00    -0.296 OA
ATOM     39  O3S SGN d 141     -40.345  -7.242  21.529  0.00  0.00    -0.296 OA
ATOM     40  S1  SGN d 141     -41.479  -6.575  22.097  0.00  0.00     0.156 S 
ATOM     41  O4S SGN d 141     -34.996  -1.658  24.000  0.00  0.00    -0.572 OA
ATOM     42  O5  SGN d 141     -38.698  -2.707  21.711  0.00  0.00    -0.349 OA
ATOM     43  C4  SGN d 141     -40.509  -1.814  23.021  0.00  0.00     0.089 C 
ATOM     44  O6S SGN d 141     -35.393  -0.514  21.913  0.00  0.00    -0.572 OA
ATOM     45  S2  SGN d 141     -35.879  -0.781  23.260  0.00  0.00     0.251 S 
ATOM     46  C5  SGN d 141     -39.364  -1.524  22.058  0.00  0.00     0.090 C 
ATOM     47  H   SGN d 141     -42.071  -0.930  23.779  0.00  0.00     0.210 HD
ATOM     48  H   SGN d 141     -40.219  -4.532  23.045  0.00  0.00     0.076 H 
ATOM     49  H   SGN d 141     -41.977  -2.597  21.631  0.00  0.00     0.089 H 
ATOM     50  H   SGN d 141     -41.897  -3.343  24.368  0.00  0.00     0.210 HD
ATOM     51  H   SGN d 141     -43.450  -6.715  22.202  0.00  0.00     0.231 HD
ATOM     52  H   SGN d 141     -41.263  -5.137  20.564  0.00  0.00     0.140 HD
ATOM     53  H   SGN d 141     -38.945  -4.594  21.018  0.00  0.00     0.131 H 
ATOM     54  H   SGN d 141     -37.976   0.088  22.027  0.00  0.00     0.080 H 
ATOM     55  H   SGN d 141     -38.774  -0.128  23.557  0.00  0.00     0.080 H 
ATOM     56  H   SGN d 141     -42.090  -5.962  23.870  0.00  0.00     0.231 HD
ATOM     57  H   SGN d 141     -40.475  -7.342  20.573  0.00  0.00     0.231 HD
ATOM     58  H   SGN d 141     -40.009  -2.100  23.922  0.00  0.00     0.091 H 
ATOM     59  H   SGN d 141     -39.786  -1.055  21.195  0.00  0.00     0.090 H 
ENDROOT
TORSDOF 18
ENDMDL
MODEL 39
REMARK VINA RESULT:      -4.9      2.609      7.339
REMARK  0 active torsions:
REMARK  status: ('A' for Active; 'I' for Inactive)
REMARK       I    between atoms: C2_2  and  O2_34 
REMARK       I    between atoms: O4_3  and  C4_29 
REMARK       I    between atoms: O6_4  and  C6_17 
REMARK       I    between atoms: O6_4  and  S2_35 
REMARK       I    between atoms: C2_6  and  N_15 
REMARK       I    between atoms: O1_8  and  C1_19 
REMARK       I    between atoms: O1_8  and  C7_24 
REMARK       I    between atoms: C4_9  and  O4_22 
REMARK       I    between atoms: C3_10  and  O3_13 
REMARK       I    between atoms: O1S_14  and  S1_21 
REMARK       I    between atoms: N_15  and  S1_21 
REMARK       I    between atoms: C1_16  and  O4_22 
REMARK       I    between atoms: C6_17  and  C5_36 
REMARK       I    between atoms: O2S_18  and  S1_21 
REMARK       I    between atoms: O3S_20  and  S1_21 
REMARK       I    between atoms: O3_23  and  C3_25 
REMARK       I    between atoms: S_28  and  O2_34 
REMARK       I    between atoms: C6_32  and  C5_33 
ROOT
ATOM      1  OS3 IDY d 142     -40.358 -10.240  15.214  0.00  0.00    -0.572 OA
ATOM      2  C2  IDY d 142     -40.693  -8.785  17.708  0.00  0.00     0.134 C 
ATOM      3  O61 IDY d 142     -36.790  -5.415  18.939  0.00  0.00    -0.646 OA
ATOM      4  O1  IDY d 142     -38.751  -9.967  18.012  0.00  0.00    -0.363 OA
ATOM      5  C4  IDY d 142     -39.970  -6.733  18.994  0.00  0.00     0.103 C 
ATOM      6  OS2 IDY d 142     -42.717 -10.157  15.715  0.00  0.00    -0.572 OA
ATOM      7  O62 IDY d 142     -37.969  -5.365  16.929  0.00  0.00    -0.646 OA
ATOM      8  C1  IDY d 142     -39.232  -9.001  17.411  0.00  0.00     0.160 C 
ATOM      9  O4  IDY d 142     -40.444  -5.491  18.283  0.00  0.00    -0.348 OA
ATOM     10  O3  IDY d 142     -41.037  -8.626  20.088  0.00  0.00    -0.390 OA
ATOM     11  C7  IDY d 142     -38.512 -10.993  18.957  0.00  0.00     0.007 C 
ATOM     12  C3  IDY d 142     -40.960  -7.836  18.832  0.00  0.00     0.094 C 
ATOM     13  S   IDY d 142     -41.542  -9.329  15.365  0.00  0.00     0.252 S 
ATOM     14  O5  IDY d 142     -38.433  -7.837  17.382  0.00  0.00    -0.340 OA
ATOM     15  C6  IDY d 142     -37.826  -5.749  18.212  0.00  0.00     0.206 C 
ATOM     16  C5  IDY d 142     -38.541  -7.032  18.567  0.00  0.00     0.152 C 
ATOM     17  O2  IDY d 142     -41.310  -8.337  16.482  0.00  0.00    -0.244 OA
ATOM     18  OS1 IDY d 142     -41.816  -8.586  14.125  0.00  0.00    -0.572 OA
ATOM     19  H   IDY d 142     -41.113  -9.709  18.047  0.00  0.00     0.097 H 
ATOM     20  H   IDY d 142     -39.921  -6.595  20.054  0.00  0.00     0.092 H 
ATOM     21  H   IDY d 142     -39.210  -9.290  16.380  0.00  0.00     0.133 H 
ATOM     22  H   IDY d 142     -41.682  -9.343  19.980  0.00  0.00     0.210 HD
ATOM     23  H   IDY d 142     -37.654 -11.559  18.661  0.00  0.00     0.066 H 
ATOM     24  H   IDY d 142     -39.365 -11.638  19.007  0.00  0.00     0.066 H 
ATOM     25  H   IDY d 142     -38.338 -10.558  19.919  0.00  0.00     0.066 H 
ATOM     26  H   IDY d 142     -41.878  -7.339  18.596  0.00  0.00     0.091 H 
ATOM     27  H   IDY d 142     -38.122  -7.553  19.403  0.00  0.00     0.104 H 
ATOM     28  O4  SGN d 141     -39.802  -2.071  15.816  0.00  0.00    -0.390 OA
ATOM     29  O6  SGN d 141     -40.608  -1.121  19.777  0.00  0.00    -0.254 OA
ATOM     30  O5S SGN d 141     -39.427   0.822  20.362  0.00  0.00    -0.572 OA
ATOM     31  C2  SGN d 141     -42.256  -4.323  17.221  0.00  0.00     0.081 C 
ATOM     32  C3  SGN d 141     -41.338  -3.683  16.197  0.00  0.00     0.083 C 
ATOM     33  O3  SGN d 141     -42.012  -3.240  15.041  0.00  0.00    -0.391 OA
ATOM     34  O1S SGN d 141     -44.655  -6.808  15.765  0.00  0.00    -0.296 OA
ATOM     35  N   SGN d 141     -42.762  -5.574  16.715  0.00  0.00    -0.210 NA
ATOM     36  C1  SGN d 141     -41.471  -4.562  18.511  0.00  0.00     0.150 C 
ATOM     37  C6  SGN d 141     -39.645  -1.418  18.793  0.00  0.00     0.067 C 
ATOM     38  O2S SGN d 141     -44.892  -4.578  16.487  0.00  0.00    -0.296 OA
ATOM     39  O3S SGN d 141     -44.648  -6.272  18.098  0.00  0.00    -0.296 OA
ATOM     40  S1  SGN d 141     -44.313  -5.849  16.770  0.00  0.00     0.156 S 
ATOM     41  O4S SGN d 141     -41.307   0.187  21.705  0.00  0.00    -0.572 OA
ATOM     42  O5  SGN d 141     -40.899  -3.371  19.018  0.00  0.00    -0.349 OA
ATOM     43  C4  SGN d 141     -40.717  -2.454  16.801  0.00  0.00     0.089 C 
ATOM     44  O6S SGN d 141     -39.250  -1.070  21.803  0.00  0.00    -0.572 OA
ATOM     45  S2  SGN d 141     -40.140  -0.265  20.977  0.00  0.00     0.251 S 
ATOM     46  C5  SGN d 141     -40.028  -2.723  18.133  0.00  0.00     0.090 C 
ATOM     47  H   SGN d 141     -40.273  -1.907  14.983  0.00  0.00     0.210 HD
ATOM     48  H   SGN d 141     -43.083  -3.674  17.417  0.00  0.00     0.076 H 
ATOM     49  H   SGN d 141     -40.628  -4.435  15.926  0.00  0.00     0.089 H 
ATOM     50  H   SGN d 141     -42.658  -2.558  15.284  0.00  0.00     0.210 HD
ATOM     51  H   SGN d 141     -44.405  -6.465  14.893  0.00  0.00     0.231 HD
ATOM     52  H   SGN d 141     -42.308  -6.316  17.245  0.00  0.00     0.140 HD
ATOM     53  H   SGN d 141     -42.165  -4.937  19.234  0.00  0.00     0.131 H 
ATOM     54  H   SGN d 141     -38.681  -1.512  19.248  0.00  0.00     0.080 H 
ATOM     55  H   SGN d 141     -39.607  -0.635  18.066  0.00  0.00     0.080 H 
ATOM     56  H   SGN d 141     -44.655  -4.308  15.586  0.00  0.00     0.231 HD
ATOM     57  H   SGN d 141     -44.246  -7.137  18.272  0.00  0.00     0.231 HD
ATOM     58  H   SGN d 141     -41.439  -1.703  17.043  0.00  0.00     0.091 H 
ATOM     59  H   SGN d 141     -39.169  -3.328  17.930  0.00  0.00     0.090 H 
ENDROOT
TORSDOF 18
ENDMDL
MODEL 40
REMARK VINA RESULT:      -4.8      2.679      7.944
REMARK  0 active torsions:
REMARK  status: ('A' for Active; 'I' for Inactive)
REMARK       I    between atoms: C2_2  and  O2_34 
REMARK       I    between atoms: O4_3  and  C4_29 
REMARK       I    between atoms: O6_4  and  C6_17 
REMARK       I    between atoms: O6_4  and  S2_35 
REMARK       I    between atoms: C2_6  and  N_15 
REMARK       I    between atoms: O1_8  and  C1_19 
REMARK       I    between atoms: O1_8  and  C7_24 
REMARK       I    between atoms: C4_9  and  O4_22 
REMARK       I    between atoms: C3_10  and  O3_13 
REMARK       I    between atoms: O1S_14  and  S1_21 
REMARK       I    between atoms: N_15  and  S1_21 
REMARK       I    between atoms: C1_16  and  O4_22 
REMARK       I    between atoms: C6_17  and  C5_36 
REMARK       I    between atoms: O2S_18  and  S1_21 
REMARK       I    between atoms: O3S_20  and  S1_21 
REMARK       I    between atoms: O3_23  and  C3_25 
REMARK       I    between atoms: S_28  and  O2_34 
REMARK       I    between atoms: C6_32  and  C5_33 
ROOT
ATOM      1  OS3 IDY d 142     -43.004  -9.567  15.025  0.00  0.00    -0.572 OA
ATOM      2  C2  IDY d 142     -40.913  -7.570  15.321  0.00  0.00     0.134 C 
ATOM      3  O61 IDY d 142     -42.523  -2.522  15.161  0.00  0.00    -0.646 OA
ATOM      4  O1  IDY d 142     -41.809  -7.134  13.254  0.00  0.00    -0.363 OA
ATOM      5  C4  IDY d 142     -40.454  -5.162  15.934  0.00  0.00     0.103 C 
ATOM      6  OS2 IDY d 142     -41.162 -10.588  16.203  0.00  0.00    -0.572 OA
ATOM      7  O62 IDY d 142     -43.380  -4.116  16.629  0.00  0.00    -0.646 OA
ATOM      8  C1  IDY d 142     -42.035  -7.042  14.465  0.00  0.00     0.160 C 
ATOM      9  O4  IDY d 142     -40.785  -4.933  17.387  0.00  0.00    -0.348 OA
ATOM     10  O3  IDY d 142     -38.839  -6.507  14.709  0.00  0.00    -0.390 OA
ATOM     11  C7  IDY d 142     -41.159  -7.236  12.001  0.00  0.00     0.007 C 
ATOM     12  C3  IDY d 142     -39.915  -6.537  15.734  0.00  0.00     0.094 C 
ATOM     13  S   IDY d 142     -42.204  -9.542  16.295  0.00  0.00     0.252 S 
ATOM     14  O5  IDY d 142     -42.610  -5.824  14.890  0.00  0.00    -0.340 OA
ATOM     15  C6  IDY d 142     -42.440  -3.676  15.771  0.00  0.00     0.206 C 
ATOM     16  C5  IDY d 142     -41.653  -4.770  15.086  0.00  0.00     0.152 C 
ATOM     17  O2  IDY d 142     -41.520  -8.205  16.467  0.00  0.00    -0.244 OA
ATOM     18  OS1 IDY d 142     -43.049  -9.793  17.473  0.00  0.00    -0.572 OA
ATOM     19  H   IDY d 142     -40.340  -8.264  14.742  0.00  0.00     0.097 H 
ATOM     20  H   IDY d 142     -39.657  -4.530  15.600  0.00  0.00     0.092 H 
ATOM     21  H   IDY d 142     -42.844  -7.722  14.638  0.00  0.00     0.133 H 
ATOM     22  H   IDY d 142     -38.489  -7.403  14.581  0.00  0.00     0.210 HD
ATOM     23  H   IDY d 142     -41.892  -7.281  11.222  0.00  0.00     0.066 H 
ATOM     24  H   IDY d 142     -40.562  -8.124  11.980  0.00  0.00     0.066 H 
ATOM     25  H   IDY d 142     -40.533  -6.382  11.853  0.00  0.00     0.066 H 
ATOM     26  H   IDY d 142     -39.560  -6.830  16.701  0.00  0.00     0.091 H 
ATOM     27  H   IDY d 142     -41.227  -4.483  14.146  0.00  0.00     0.104 H 
ATOM     28  O4  SGN d 141     -43.297  -3.458  20.503  0.00  0.00    -0.390 OA
ATOM     29  O6  SGN d 141     -39.737  -1.357  20.121  0.00  0.00    -0.254 OA
ATOM     30  O5S SGN d 141     -40.104   0.895  20.671  0.00  0.00    -0.572 OA
ATOM     31  C2  SGN d 141     -40.565  -5.671  19.663  0.00  0.00     0.081 C 
ATOM     32  C3  SGN d 141     -41.968  -5.220  20.021  0.00  0.00     0.083 C 
ATOM     33  O3  SGN d 141     -42.485  -5.856  21.167  0.00  0.00    -0.391 OA
ATOM     34  O1S SGN d 141     -40.103  -9.390  19.726  0.00  0.00    -0.296 OA
ATOM     35  N   SGN d 141     -40.586  -7.042  19.219  0.00  0.00    -0.210 NA
ATOM     36  C1  SGN d 141     -40.022  -4.771  18.553  0.00  0.00     0.150 C 
ATOM     37  C6  SGN d 141     -41.087  -1.494  19.747  0.00  0.00     0.067 C 
ATOM     38  O2S SGN d 141     -39.505  -7.671  21.222  0.00  0.00    -0.296 OA
ATOM     39  O3S SGN d 141     -38.302  -7.900  19.216  0.00  0.00    -0.296 OA
ATOM     40  S1  SGN d 141     -39.574  -8.068  19.855  0.00  0.00     0.156 S 
ATOM     41  O4S SGN d 141     -37.857   0.063  20.727  0.00  0.00    -0.572 OA
ATOM     42  O5  SGN d 141     -40.036  -3.403  18.918  0.00  0.00    -0.349 OA
ATOM     43  C4  SGN d 141     -41.940  -3.753  20.348  0.00  0.00     0.089 C 
ATOM     44  O6S SGN d 141     -38.982   0.414  18.622  0.00  0.00    -0.572 OA
ATOM     45  S2  SGN d 141     -39.125   0.060  20.028  0.00  0.00     0.251 S 
ATOM     46  C5  SGN d 141     -41.302  -2.906  19.253  0.00  0.00     0.090 C 
ATOM     47  H   SGN d 141     -43.670  -4.013  21.206  0.00  0.00     0.210 HD
ATOM     48  H   SGN d 141     -39.935  -5.601  20.525  0.00  0.00     0.076 H 
ATOM     49  H   SGN d 141     -42.580  -5.461  19.177  0.00  0.00     0.089 H 
ATOM     50  H   SGN d 141     -41.932  -5.640  21.935  0.00  0.00     0.210 HD
ATOM     51  H   SGN d 141     -40.962  -9.440  20.177  0.00  0.00     0.231 HD
ATOM     52  H   SGN d 141     -40.411  -7.032  18.214  0.00  0.00     0.140 HD
ATOM     53  H   SGN d 141     -39.007  -5.063  18.383  0.00  0.00     0.131 H 
ATOM     54  H   SGN d 141     -41.319  -0.799  18.967  0.00  0.00     0.080 H 
ATOM     55  H   SGN d 141     -41.723  -1.296  20.584  0.00  0.00     0.080 H 
ATOM     56  H   SGN d 141     -40.374  -7.791  21.637  0.00  0.00     0.231 HD
ATOM     57  H   SGN d 141     -38.367  -8.174  18.288  0.00  0.00     0.231 HD
ATOM     58  H   SGN d 141     -41.343  -3.534  21.209  0.00  0.00     0.091 H 
ATOM     59  H   SGN d 141     -41.960  -2.932  18.409  0.00  0.00     0.090 H 
ENDROOT
TORSDOF 18
ENDMDL
MODEL 41
REMARK VINA RESULT:      -4.8      3.747      6.316
REMARK  0 active torsions:
REMARK  status: ('A' for Active; 'I' for Inactive)
REMARK       I    between atoms: C2_2  and  O2_34 
REMARK       I    between atoms: O4_3  and  C4_29 
REMARK       I    between atoms: O6_4  and  C6_17 
REMARK       I    between atoms: O6_4  and  S2_35 
REMARK       I    between atoms: C2_6  and  N_15 
REMARK       I    between atoms: O1_8  and  C1_19 
REMARK       I    between atoms: O1_8  and  C7_24 
REMARK       I    between atoms: C4_9  and  O4_22 
REMARK       I    between atoms: C3_10  and  O3_13 
REMARK       I    between atoms: O1S_14  and  S1_21 
REMARK       I    between atoms: N_15  and  S1_21 
REMARK       I    between atoms: C1_16  and  O4_22 
REMARK       I    between atoms: C6_17  and  C5_36 
REMARK       I    between atoms: O2S_18  and  S1_21 
REMARK       I    between atoms: O3S_20  and  S1_21 
REMARK       I    between atoms: O3_23  and  C3_25 
REMARK       I    between atoms: S_28  and  O2_34 
REMARK       I    between atoms: C6_32  and  C5_33 
ROOT
ATOM      1  OS3 IDY d 142     -34.023  -7.596  16.989  0.00  0.00    -0.572 OA
ATOM      2  C2  IDY d 142     -36.412  -7.619  18.644  0.00  0.00     0.134 C 
ATOM      3  O61 IDY d 142     -37.358  -3.168  21.366  0.00  0.00    -0.646 OA
ATOM      4  O1  IDY d 142     -34.705  -7.277  20.138  0.00  0.00    -0.363 OA
ATOM      5  C4  IDY d 142     -38.103  -6.152  19.819  0.00  0.00     0.103 C 
ATOM      6  OS2 IDY d 142     -35.547  -9.227  16.072  0.00  0.00    -0.572 OA
ATOM      7  O62 IDY d 142     -37.056  -3.243  19.057  0.00  0.00    -0.646 OA
ATOM      8  C1  IDY d 142     -35.358  -6.726  19.245  0.00  0.00     0.160 C 
ATOM      9  O4  IDY d 142     -38.896  -5.371  18.802  0.00  0.00    -0.348 OA
ATOM     10  O3  IDY d 142     -37.830  -8.504  20.379  0.00  0.00    -0.390 OA
ATOM     11  C7  IDY d 142     -34.300  -8.137  21.186  0.00  0.00     0.007 C 
ATOM     12  C3  IDY d 142     -37.758  -7.501  19.285  0.00  0.00     0.094 C 
ATOM     13  S   IDY d 142     -35.358  -7.782  16.327  0.00  0.00     0.252 S 
ATOM     14  O5  IDY d 142     -35.756  -5.396  19.508  0.00  0.00    -0.340 OA
ATOM     15  C6  IDY d 142     -37.317  -3.832  20.240  0.00  0.00     0.206 C 
ATOM     16  C5  IDY d 142     -36.945  -5.296  20.307  0.00  0.00     0.152 C 
ATOM     17  O2  IDY d 142     -36.471  -7.310  17.235  0.00  0.00    -0.244 OA
ATOM     18  OS1 IDY d 142     -35.441  -7.044  15.058  0.00  0.00    -0.572 OA
ATOM     19  H   IDY d 142     -36.135  -8.638  18.815  0.00  0.00     0.097 H 
ATOM     20  H   IDY d 142     -38.678  -6.370  20.695  0.00  0.00     0.092 H 
ATOM     21  H   IDY d 142     -34.653  -6.576  18.453  0.00  0.00     0.133 H 
ATOM     22  H   IDY d 142     -37.606  -9.381  20.029  0.00  0.00     0.210 HD
ATOM     23  H   IDY d 142     -33.310  -7.876  21.500  0.00  0.00     0.066 H 
ATOM     24  H   IDY d 142     -34.309  -9.150  20.840  0.00  0.00     0.066 H 
ATOM     25  H   IDY d 142     -34.973  -8.037  22.011  0.00  0.00     0.066 H 
ATOM     26  H   IDY d 142     -38.477  -7.675  18.512  0.00  0.00     0.091 H 
ATOM     27  H   IDY d 142     -36.752  -5.656  21.297  0.00  0.00     0.104 H 
ATOM     28  O4  SGN d 141     -39.824  -1.795  16.671  0.00  0.00    -0.390 OA
ATOM     29  O6  SGN d 141     -42.794  -2.947  19.334  0.00  0.00    -0.254 OA
ATOM     30  O5S SGN d 141     -43.837  -1.033  20.205  0.00  0.00    -0.572 OA
ATOM     31  C2  SGN d 141     -40.165  -5.392  16.762  0.00  0.00     0.081 C 
ATOM     32  C3  SGN d 141     -39.659  -4.024  16.348  0.00  0.00     0.083 C 
ATOM     33  O3  SGN d 141     -39.776  -3.779  14.965  0.00  0.00    -0.391 OA
ATOM     34  O1S SGN d 141     -38.959  -8.186  14.574  0.00  0.00    -0.296 OA
ATOM     35  N   SGN d 141     -39.301  -6.418  16.237  0.00  0.00    -0.210 NA
ATOM     36  C1  SGN d 141     -40.198  -5.469  18.289  0.00  0.00     0.150 C 
ATOM     37  C6  SGN d 141     -41.616  -2.210  19.106  0.00  0.00     0.067 C 
ATOM     38  O2S SGN d 141     -41.009  -7.035  14.727  0.00  0.00    -0.296 OA
ATOM     39  O3S SGN d 141     -40.440  -8.569  16.413  0.00  0.00    -0.296 OA
ATOM     40  S1  SGN d 141     -39.938  -7.629  15.456  0.00  0.00     0.156 S 
ATOM     41  O4S SGN d 141     -45.000  -3.123  20.344  0.00  0.00    -0.572 OA
ATOM     42  O5  SGN d 141     -40.988  -4.442  18.860  0.00  0.00    -0.349 OA
ATOM     43  C4  SGN d 141     -40.495  -2.970  17.020  0.00  0.00     0.089 C 
ATOM     44  O6S SGN d 141     -43.083  -2.692  21.744  0.00  0.00    -0.572 OA
ATOM     45  S2  SGN d 141     -43.727  -2.444  20.460  0.00  0.00     0.251 S 
ATOM     46  C5  SGN d 141     -40.576  -3.143  18.532  0.00  0.00     0.090 C 
ATOM     47  H   SGN d 141     -39.792  -1.716  15.704  0.00  0.00     0.210 HD
ATOM     48  H   SGN d 141     -41.151  -5.543  16.373  0.00  0.00     0.076 H 
ATOM     49  H   SGN d 141     -38.626  -3.995  16.625  0.00  0.00     0.089 H 
ATOM     50  H   SGN d 141     -40.712  -3.804  14.710  0.00  0.00     0.210 HD
ATOM     51  H   SGN d 141     -38.659  -7.504  13.952  0.00  0.00     0.231 HD
ATOM     52  H   SGN d 141     -38.787  -6.809  17.026  0.00  0.00     0.140 HD
ATOM     53  H   SGN d 141     -40.635  -6.411  18.545  0.00  0.00     0.131 H 
ATOM     54  H   SGN d 141     -41.263  -1.798  20.029  0.00  0.00     0.080 H 
ATOM     55  H   SGN d 141     -41.809  -1.409  18.425  0.00  0.00     0.080 H 
ATOM     56  H   SGN d 141     -40.651  -6.403  14.084  0.00  0.00     0.231 HD
ATOM     57  H   SGN d 141     -39.699  -8.962  16.899  0.00  0.00     0.231 HD
ATOM     58  H   SGN d 141     -41.519  -2.999  16.713  0.00  0.00     0.091 H 
ATOM     59  H   SGN d 141     -39.603  -2.939  18.927  0.00  0.00     0.090 H 
ENDROOT
TORSDOF 18
ENDMDL
MODEL 42
REMARK VINA RESULT:      -4.8      2.978      7.049
REMARK  0 active torsions:
REMARK  status: ('A' for Active; 'I' for Inactive)
REMARK       I    between atoms: C2_2  and  O2_34 
REMARK       I    between atoms: O4_3  and  C4_29 
REMARK       I    between atoms: O6_4  and  C6_17 
REMARK       I    between atoms: O6_4  and  S2_35 
REMARK       I    between atoms: C2_6  and  N_15 
REMARK       I    between atoms: O1_8  and  C1_19 
REMARK       I    between atoms: O1_8  and  C7_24 
REMARK       I    between atoms: C4_9  and  O4_22 
REMARK       I    between atoms: C3_10  and  O3_13 
REMARK       I    between atoms: O1S_14  and  S1_21 
REMARK       I    between atoms: N_15  and  S1_21 
REMARK       I    between atoms: C1_16  and  O4_22 
REMARK       I    between atoms: C6_17  and  C5_36 
REMARK       I    between atoms: O2S_18  and  S1_21 
REMARK       I    between atoms: O3S_20  and  S1_21 
REMARK       I    between atoms: O3_23  and  C3_25 
REMARK       I    between atoms: S_28  and  O2_34 
REMARK       I    between atoms: C6_32  and  C5_33 
ROOT
ATOM      1  OS3 IDY d 142     -40.068  -8.237  13.270  0.00  0.00    -0.572 OA
ATOM      2  C2  IDY d 142     -40.612  -8.037  16.118  0.00  0.00     0.134 C 
ATOM      3  O61 IDY d 142     -36.663  -6.097  19.077  0.00  0.00    -0.646 OA
ATOM      4  O1  IDY d 142     -38.816  -9.458  15.995  0.00  0.00    -0.363 OA
ATOM      5  C4  IDY d 142     -39.912  -6.894  18.261  0.00  0.00     0.103 C 
ATOM      6  OS2 IDY d 142     -42.459  -8.098  13.562  0.00  0.00    -0.572 OA
ATOM      7  O62 IDY d 142     -37.568  -4.999  17.231  0.00  0.00    -0.646 OA
ATOM      8  C1  IDY d 142     -39.145  -8.274  15.873  0.00  0.00     0.160 C 
ATOM      9  O4  IDY d 142     -40.200  -5.417  18.170  0.00  0.00    -0.348 OA
ATOM     10  O3  IDY d 142     -41.245  -8.929  18.265  0.00  0.00    -0.390 OA
ATOM     11  C7  IDY d 142     -38.775 -10.821  16.374  0.00  0.00     0.007 C 
ATOM     12  C3  IDY d 142     -40.950  -7.672  17.528  0.00  0.00     0.094 C 
ATOM     13  S   IDY d 142     -41.192  -7.354  13.729  0.00  0.00     0.252 S 
ATOM     14  O5  IDY d 142     -38.266  -7.331  16.450  0.00  0.00    -0.340 OA
ATOM     15  C6  IDY d 142     -37.619  -5.936  18.198  0.00  0.00     0.206 C 
ATOM     16  C5  IDY d 142     -38.466  -7.142  17.860  0.00  0.00     0.152 C 
ATOM     17  O2  IDY d 142     -41.033  -7.011  15.193  0.00  0.00    -0.244 OA
ATOM     18  OS1 IDY d 142     -41.250  -6.104  12.957  0.00  0.00    -0.572 OA
ATOM     19  H   IDY d 142     -41.138  -8.954  15.957  0.00  0.00     0.097 H 
ATOM     20  H   IDY d 142     -39.989  -7.257  19.265  0.00  0.00     0.092 H 
ATOM     21  H   IDY d 142     -39.012  -8.066  14.831  0.00  0.00     0.133 H 
ATOM     22  H   IDY d 142     -41.921  -9.434  17.786  0.00  0.00     0.210 HD
ATOM     23  H   IDY d 142     -37.929 -11.293  15.919  0.00  0.00     0.066 H 
ATOM     24  H   IDY d 142     -39.672 -11.308  16.052  0.00  0.00     0.066 H 
ATOM     25  H   IDY d 142     -38.694 -10.893  17.438  0.00  0.00     0.066 H 
ATOM     26  H   IDY d 142     -41.792  -7.014  17.476  0.00  0.00     0.091 H 
ATOM     27  H   IDY d 142     -38.196  -8.031  18.391  0.00  0.00     0.104 H 
ATOM     28  O4  SGN d 141     -39.000  -1.360  17.625  0.00  0.00    -0.390 OA
ATOM     29  O6  SGN d 141     -40.234  -2.210  21.497  0.00  0.00    -0.254 OA
ATOM     30  O5S SGN d 141     -39.000  -0.904  23.008  0.00  0.00    -0.572 OA
ATOM     31  C2  SGN d 141     -41.770  -3.681  17.627  0.00  0.00     0.081 C 
ATOM     32  C3  SGN d 141     -40.685  -2.766  17.093  0.00  0.00     0.083 C 
ATOM     33  O3  SGN d 141     -41.172  -1.770  16.223  0.00  0.00    -0.391 OA
ATOM     34  O1S SGN d 141     -44.138  -4.923  15.000  0.00  0.00    -0.296 OA
ATOM     35  N   SGN d 141     -42.298  -4.495  16.561  0.00  0.00    -0.210 NA
ATOM     36  C1  SGN d 141     -41.177  -4.572  18.718  0.00  0.00     0.150 C 
ATOM     37  C6  SGN d 141     -39.178  -2.148  20.568  0.00  0.00     0.067 C 
ATOM     38  O2S SGN d 141     -44.303  -3.250  16.650  0.00  0.00    -0.296 OA
ATOM     39  O3S SGN d 141     -44.391  -5.504  17.308  0.00  0.00    -0.296 OA
ATOM     40  S1  SGN d 141     -43.859  -4.572  16.358  0.00  0.00     0.156 S 
ATOM     41  O4S SGN d 141     -41.077  -1.840  23.749  0.00  0.00    -0.572 OA
ATOM     42  O5  SGN d 141     -40.589  -3.820  19.763  0.00  0.00    -0.349 OA
ATOM     43  C4  SGN d 141     -40.059  -2.030  18.245  0.00  0.00     0.089 C 
ATOM     44  O6S SGN d 141     -39.146  -3.248  23.419  0.00  0.00    -0.572 OA
ATOM     45  S2  SGN d 141     -39.863  -2.054  22.990  0.00  0.00     0.251 S 
ATOM     46  C5  SGN d 141     -39.567  -2.955  19.351  0.00  0.00     0.090 C 
ATOM     47  H   SGN d 141     -39.347  -0.781  16.928  0.00  0.00     0.210 HD
ATOM     48  H   SGN d 141     -42.567  -3.094  18.035  0.00  0.00     0.076 H 
ATOM     49  H   SGN d 141     -40.003  -3.396  16.562  0.00  0.00     0.089 H 
ATOM     50  H   SGN d 141     -41.791  -1.197  16.701  0.00  0.00     0.210 HD
ATOM     51  H   SGN d 141     -43.754  -4.257  14.408  0.00  0.00     0.231 HD
ATOM     52  H   SGN d 141     -41.970  -5.447  16.722  0.00  0.00     0.140 HD
ATOM     53  H   SGN d 141     -41.983  -5.144  19.127  0.00  0.00     0.131 H 
ATOM     54  H   SGN d 141     -38.289  -2.554  21.004  0.00  0.00     0.080 H 
ATOM     55  H   SGN d 141     -38.990  -1.131  20.292  0.00  0.00     0.080 H 
ATOM     56  H   SGN d 141     -43.933  -2.634  15.999  0.00  0.00     0.231 HD
ATOM     57  H   SGN d 141     -44.078  -6.397  17.094  0.00  0.00     0.231 HD
ATOM     58  H   SGN d 141     -40.750  -1.387  18.748  0.00  0.00     0.091 H 
ATOM     59  H   SGN d 141     -38.736  -3.503  18.961  0.00  0.00     0.090 H 
ENDROOT
TORSDOF 18
ENDMDL
MODEL 43
REMARK VINA RESULT:      -4.8      2.505      3.776
REMARK  0 active torsions:
REMARK  status: ('A' for Active; 'I' for Inactive)
REMARK       I    between atoms: C2_2  and  O2_34 
REMARK       I    between atoms: O4_3  and  C4_29 
REMARK       I    between atoms: O6_4  and  C6_17 
REMARK       I    between atoms: O6_4  and  S2_35 
REMARK       I    between atoms: C2_6  and  N_15 
REMARK       I    between atoms: O1_8  and  C1_19 
REMARK       I    between atoms: O1_8  and  C7_24 
REMARK       I    between atoms: C4_9  and  O4_22 
REMARK       I    between atoms: C3_10  and  O3_13 
REMARK       I    between atoms: O1S_14  and  S1_21 
REMARK       I    between atoms: N_15  and  S1_21 
REMARK       I    between atoms: C1_16  and  O4_22 
REMARK       I    between atoms: C6_17  and  C5_36 
REMARK       I    between atoms: O2S_18  and  S1_21 
REMARK       I    between atoms: O3S_20  and  S1_21 
REMARK       I    between atoms: O3_23  and  C3_25 
REMARK       I    between atoms: S_28  and  O2_34 
REMARK       I    between atoms: C6_32  and  C5_33 
ROOT
ATOM      1  OS3 IDY d 142     -36.951   0.125  22.817  0.00  0.00    -0.572 OA
ATOM      2  C2  IDY d 142     -38.083  -0.987  20.382  0.00  0.00     0.134 C 
ATOM      3  O61 IDY d 142     -37.004  -6.098  19.477  0.00  0.00    -0.646 OA
ATOM      4  O1  IDY d 142     -35.819  -1.237  20.106  0.00  0.00    -0.363 OA
ATOM      5  C4  IDY d 142     -38.740  -3.136  19.225  0.00  0.00     0.103 C 
ATOM      6  OS2 IDY d 142     -38.877   1.450  22.221  0.00  0.00    -0.572 OA
ATOM      7  O62 IDY d 142     -37.985  -5.301  21.434  0.00  0.00    -0.646 OA
ATOM      8  C1  IDY d 142     -36.790  -1.678  20.731  0.00  0.00     0.160 C 
ATOM      9  O4  IDY d 142     -39.872  -3.793  19.972  0.00  0.00    -0.348 OA
ATOM     10  O3  IDY d 142     -38.439  -1.056  18.000  0.00  0.00    -0.390 OA
ATOM     11  C7  IDY d 142     -35.004  -0.625  19.125  0.00  0.00     0.007 C 
ATOM     12  C3  IDY d 142     -38.863  -1.652  19.294  0.00  0.00     0.094 C 
ATOM     13  S   IDY d 142     -38.443   0.105  22.659  0.00  0.00     0.252 S 
ATOM     14  O5  IDY d 142     -36.858  -3.084  20.847  0.00  0.00    -0.340 OA
ATOM     15  C6  IDY d 142     -37.631  -5.163  20.142  0.00  0.00     0.206 C 
ATOM     16  C5  IDY d 142     -37.424  -3.733  19.698  0.00  0.00     0.152 C 
ATOM     17  O2  IDY d 142     -38.852  -0.894  21.601  0.00  0.00    -0.244 OA
ATOM     18  OS1 IDY d 142     -39.118  -0.243  23.919  0.00  0.00    -0.572 OA
ATOM     19  H   IDY d 142     -37.857  -0.020  19.983  0.00  0.00     0.097 H 
ATOM     20  H   IDY d 142     -38.779  -3.342  18.176  0.00  0.00     0.092 H 
ATOM     21  H   IDY d 142     -36.604  -1.397  21.747  0.00  0.00     0.133 H 
ATOM     22  H   IDY d 142     -38.521  -0.090  18.047  0.00  0.00     0.210 HD
ATOM     23  H   IDY d 142     -33.980  -0.674  19.431  0.00  0.00     0.066 H 
ATOM     24  H   IDY d 142     -35.293   0.399  19.009  0.00  0.00     0.066 H 
ATOM     25  H   IDY d 142     -35.122  -1.136  18.193  0.00  0.00     0.066 H 
ATOM     26  H   IDY d 142     -39.896  -1.478  19.513  0.00  0.00     0.091 H 
ATOM     27  H   IDY d 142     -36.770  -3.624  18.857  0.00  0.00     0.104 H 
ATOM     28  O4  SGN d 141     -41.443  -6.745  22.622  0.00  0.00    -0.390 OA
ATOM     29  O6  SGN d 141     -42.636  -7.264  18.679  0.00  0.00    -0.254 OA
ATOM     30  O5S SGN d 141     -42.867  -9.557  18.235  0.00  0.00    -0.572 OA
ATOM     31  C2  SGN d 141     -42.028  -3.563  21.010  0.00  0.00     0.081 C 
ATOM     32  C3  SGN d 141     -41.690  -4.561  22.101  0.00  0.00     0.083 C 
ATOM     33  O3  SGN d 141     -42.500  -4.434  23.246  0.00  0.00    -0.391 OA
ATOM     34  O1S SGN d 141     -42.445  -0.048  22.245  0.00  0.00    -0.296 OA
ATOM     35  N   SGN d 141     -41.678  -2.231  21.436  0.00  0.00    -0.210 NA
ATOM     36  C1  SGN d 141     -41.251  -3.927  19.745  0.00  0.00     0.150 C 
ATOM     37  C6  SGN d 141     -41.695  -7.545  19.687  0.00  0.00     0.067 C 
ATOM     38  O2S SGN d 141     -43.977  -1.724  21.618  0.00  0.00    -0.296 OA
ATOM     39  O3S SGN d 141     -42.750  -0.625  19.943  0.00  0.00    -0.296 OA
ATOM     40  S1  SGN d 141     -42.747  -1.080  21.301  0.00  0.00     0.156 S 
ATOM     41  O4S SGN d 141     -43.973  -8.003  16.785  0.00  0.00    -0.572 OA
ATOM     42  O5  SGN d 141     -41.513  -5.251  19.318  0.00  0.00    -0.349 OA
ATOM     43  C4  SGN d 141     -41.934  -5.951  21.582  0.00  0.00     0.089 C 
ATOM     44  O6S SGN d 141     -41.574  -8.250  16.716  0.00  0.00    -0.572 OA
ATOM     45  S2  SGN d 141     -42.774  -8.301  17.541  0.00  0.00     0.251 S 
ATOM     46  C5  SGN d 141     -41.215  -6.236  20.269  0.00  0.00     0.090 C 
ATOM     47  H   SGN d 141     -41.921  -6.539  23.440  0.00  0.00     0.210 HD
ATOM     48  H   SGN d 141     -43.078  -3.592  20.809  0.00  0.00     0.076 H 
ATOM     49  H   SGN d 141     -40.671  -4.374  22.366  0.00  0.00     0.089 H 
ATOM     50  H   SGN d 141     -43.426  -4.602  23.009  0.00  0.00     0.210 HD
ATOM     51  H   SGN d 141     -42.457  -0.417  23.143  0.00  0.00     0.231 HD
ATOM     52  H   SGN d 141     -40.864  -1.948  20.891  0.00  0.00     0.140 HD
ATOM     53  H   SGN d 141     -41.573  -3.255  18.977  0.00  0.00     0.131 H 
ATOM     54  H   SGN d 141     -40.868  -8.081  19.270  0.00  0.00     0.080 H 
ATOM     55  H   SGN d 141     -42.143  -8.146  20.451  0.00  0.00     0.080 H 
ATOM     56  H   SGN d 141     -43.957  -2.025  22.540  0.00  0.00     0.231 HD
ATOM     57  H   SGN d 141     -41.906  -0.191  19.745  0.00  0.00     0.231 HD
ATOM     58  H   SGN d 141     -42.962  -6.127  21.344  0.00  0.00     0.091 H 
ATOM     59  H   SGN d 141     -40.167  -6.260  20.480  0.00  0.00     0.090 H 
ENDROOT
TORSDOF 18
ENDMDL
MODEL 44
REMARK VINA RESULT:      -4.8      2.690      5.156
REMARK  0 active torsions:
REMARK  status: ('A' for Active; 'I' for Inactive)
REMARK       I    between atoms: C2_2  and  O2_34 
REMARK       I    between atoms: O4_3  and  C4_29 
REMARK       I    between atoms: O6_4  and  C6_17 
REMARK       I    between atoms: O6_4  and  S2_35 
REMARK       I    between atoms: C2_6  and  N_15 
REMARK       I    between atoms: O1_8  and  C1_19 
REMARK       I    between atoms: O1_8  and  C7_24 
REMARK       I    between atoms: C4_9  and  O4_22 
REMARK       I    between atoms: C3_10  and  O3_13 
REMARK       I    between atoms: O1S_14  and  S1_21 
REMARK       I    between atoms: N_15  and  S1_21 
REMARK       I    between atoms: C1_16  and  O4_22 
REMARK       I    between atoms: C6_17  and  C5_36 
REMARK       I    between atoms: O2S_18  and  S1_21 
REMARK       I    between atoms: O3S_20  and  S1_21 
REMARK       I    between atoms: O3_23  and  C3_25 
REMARK       I    between atoms: S_28  and  O2_34 
REMARK       I    between atoms: C6_32  and  C5_33 
ROOT
ATOM      1  OS3 IDY d 142     -40.972  -2.852  23.995  0.00  0.00    -0.572 OA
ATOM      2  C2  IDY d 142     -41.310  -2.230  21.176  0.00  0.00     0.134 C 
ATOM      3  O61 IDY d 142     -37.126  -3.252  18.084  0.00  0.00    -0.646 OA
ATOM      4  O1  IDY d 142     -39.554  -0.906  21.829  0.00  0.00    -0.363 OA
ATOM      5  C4  IDY d 142     -40.438  -2.714  18.853  0.00  0.00     0.103 C 
ATOM      6  OS2 IDY d 142     -43.334  -2.897  23.502  0.00  0.00    -0.572 OA
ATOM      7  O62 IDY d 142     -38.138  -4.829  19.469  0.00  0.00    -0.646 OA
ATOM      8  C1  IDY d 142     -39.869  -2.076  21.585  0.00  0.00     0.160 C 
ATOM      9  O4  IDY d 142     -40.704  -4.155  18.499  0.00  0.00    -0.348 OA
ATOM     10  O3  IDY d 142     -41.807  -0.760  19.332  0.00  0.00    -0.390 OA
ATOM     11  C7  IDY d 142     -39.513   0.508  21.858  0.00  0.00     0.007 C 
ATOM     12  C3  IDY d 142     -41.541  -2.176  19.700  0.00  0.00     0.094 C 
ATOM     13  S   IDY d 142     -42.044  -3.565  23.222  0.00  0.00     0.252 S 
ATOM     14  O5  IDY d 142     -38.933  -2.816  20.828  0.00  0.00    -0.340 OA
ATOM     15  C6  IDY d 142     -38.138  -3.655  18.808  0.00  0.00     0.206 C 
ATOM     16  C5  IDY d 142     -39.029  -2.594  19.412  0.00  0.00     0.152 C 
ATOM     17  O2  IDY d 142     -41.776  -3.476  21.737  0.00  0.00    -0.244 OA
ATOM     18  OS1 IDY d 142     -42.133  -4.983  23.600  0.00  0.00    -0.572 OA
ATOM     19  H   IDY d 142     -41.864  -1.395  21.553  0.00  0.00     0.097 H 
ATOM     20  H   IDY d 142     -40.452  -2.080  17.992  0.00  0.00     0.092 H 
ATOM     21  H   IDY d 142     -39.806  -2.572  22.531  0.00  0.00     0.133 H 
ATOM     22  H   IDY d 142     -42.524  -0.412  19.884  0.00  0.00     0.210 HD
ATOM     23  H   IDY d 142     -38.710   0.829  22.489  0.00  0.00     0.066 H 
ATOM     24  H   IDY d 142     -40.439   0.885  22.240  0.00  0.00     0.066 H 
ATOM     25  H   IDY d 142     -39.358   0.881  20.868  0.00  0.00     0.066 H 
ATOM     26  H   IDY d 142     -42.372  -2.820  19.500  0.00  0.00     0.091 H 
ATOM     27  H   IDY d 142     -38.739  -1.591  19.178  0.00  0.00     0.104 H 
ATOM     28  O4  SGN d 141     -39.469  -8.202  17.951  0.00  0.00    -0.390 OA
ATOM     29  O6  SGN d 141     -40.443  -6.279  14.402  0.00  0.00    -0.254 OA
ATOM     30  O5S SGN d 141     -39.081  -7.102  12.677  0.00  0.00    -0.572 OA
ATOM     31  C2  SGN d 141     -42.276  -5.971  18.409  0.00  0.00     0.081 C 
ATOM     32  C3  SGN d 141     -41.214  -7.002  18.737  0.00  0.00     0.083 C 
ATOM     33  O3  SGN d 141     -41.742  -8.205  19.250  0.00  0.00    -0.391 OA
ATOM     34  O1S SGN d 141     -44.847  -5.526  21.100  0.00  0.00    -0.296 OA
ATOM     35  N   SGN d 141     -42.893  -5.494  19.621  0.00  0.00    -0.210 NA
ATOM     36  C1  SGN d 141     -41.624  -4.806  17.662  0.00  0.00     0.150 C 
ATOM     37  C6  SGN d 141     -39.454  -6.606  15.350  0.00  0.00     0.067 C 
ATOM     38  O2S SGN d 141     -44.862  -6.658  19.034  0.00  0.00    -0.296 OA
ATOM     39  O3S SGN d 141     -44.946  -4.310  19.042  0.00  0.00    -0.296 OA
ATOM     40  S1  SGN d 141     -44.465  -5.475  19.722  0.00  0.00     0.156 S 
ATOM     41  O4S SGN d 141     -41.118  -5.989  12.083  0.00  0.00    -0.572 OA
ATOM     42  O5  SGN d 141     -40.950  -5.231  16.492  0.00  0.00    -0.349 OA
ATOM     43  C4  SGN d 141     -40.494  -7.381  17.473  0.00  0.00     0.089 C 
ATOM     44  O6S SGN d 141     -39.242  -4.738  12.941  0.00  0.00    -0.572 OA
ATOM     45  S2  SGN d 141     -39.964  -6.003  12.958  0.00  0.00     0.251 S 
ATOM     46  C5  SGN d 141     -39.943  -6.179  16.714  0.00  0.00     0.090 C 
ATOM     47  H   SGN d 141     -39.854  -8.955  18.427  0.00  0.00     0.210 HD
ATOM     48  H   SGN d 141     -43.030  -6.416  17.793  0.00  0.00     0.076 H 
ATOM     49  H   SGN d 141     -40.583  -6.552  19.474  0.00  0.00     0.089 H 
ATOM     50  H   SGN d 141     -42.315  -8.616  18.584  0.00  0.00     0.210 HD
ATOM     51  H   SGN d 141     -44.492  -6.334  21.504  0.00  0.00     0.231 HD
ATOM     52  H   SGN d 141     -42.572  -4.536  19.762  0.00  0.00     0.140 HD
ATOM     53  H   SGN d 141     -42.410  -4.140  17.376  0.00  0.00     0.131 H 
ATOM     54  H   SGN d 141     -38.544  -6.094  15.114  0.00  0.00     0.080 H 
ATOM     55  H   SGN d 141     -39.267  -7.660  15.338  0.00  0.00     0.080 H 
ATOM     56  H   SGN d 141     -44.528  -7.435  19.509  0.00  0.00     0.231 HD
ATOM     57  H   SGN d 141     -44.667  -3.516  19.523  0.00  0.00     0.231 HD
ATOM     58  H   SGN d 141     -41.135  -7.852  16.758  0.00  0.00     0.091 H 
ATOM     59  H   SGN d 141     -39.152  -5.767  17.304  0.00  0.00     0.090 H 
ENDROOT
TORSDOF 18
ENDMDL
MODEL 45
REMARK VINA RESULT:      -4.8      2.607      7.518
REMARK  0 active torsions:
REMARK  status: ('A' for Active; 'I' for Inactive)
REMARK       I    between atoms: C2_2  and  O2_34 
REMARK       I    between atoms: O4_3  and  C4_29 
REMARK       I    between atoms: O6_4  and  C6_17 
REMARK       I    between atoms: O6_4  and  S2_35 
REMARK       I    between atoms: C2_6  and  N_15 
REMARK       I    between atoms: O1_8  and  C1_19 
REMARK       I    between atoms: O1_8  and  C7_24 
REMARK       I    between atoms: C4_9  and  O4_22 
REMARK       I    between atoms: C3_10  and  O3_13 
REMARK       I    between atoms: O1S_14  and  S1_21 
REMARK       I    between atoms: N_15  and  S1_21 
REMARK       I    between atoms: C1_16  and  O4_22 
REMARK       I    between atoms: C6_17  and  C5_36 
REMARK       I    between atoms: O2S_18  and  S1_21 
REMARK       I    between atoms: O3S_20  and  S1_21 
REMARK       I    between atoms: O3_23  and  C3_25 
REMARK       I    between atoms: S_28  and  O2_34 
REMARK       I    between atoms: C6_32  and  C5_33 
ROOT
ATOM      1  OS3 IDY d 142     -44.587  -6.143  18.677  0.00  0.00    -0.572 OA
ATOM      2  C2  IDY d 142     -42.031  -6.122  20.060  0.00  0.00     0.134 C 
ATOM      3  O61 IDY d 142     -37.785  -5.214  17.018  0.00  0.00    -0.646 OA
ATOM      4  O1  IDY d 142     -41.823  -7.824  18.536  0.00  0.00    -0.363 OA
ATOM      5  C4  IDY d 142     -39.633  -5.334  19.919  0.00  0.00     0.103 C 
ATOM      6  OS2 IDY d 142     -45.000  -5.607  20.993  0.00  0.00    -0.572 OA
ATOM      7  O62 IDY d 142     -39.634  -3.800  17.129  0.00  0.00    -0.646 OA
ATOM      8  C1  IDY d 142     -41.863  -6.593  18.639  0.00  0.00     0.160 C 
ATOM      9  O4  IDY d 142     -39.589  -3.828  19.953  0.00  0.00    -0.348 OA
ATOM     10  O3  IDY d 142     -40.322  -7.088  21.458  0.00  0.00    -0.390 OA
ATOM     11  C7  IDY d 142     -41.653  -9.202  18.810  0.00  0.00     0.007 C 
ATOM     12  C3  IDY d 142     -40.747  -5.840  20.772  0.00  0.00     0.094 C 
ATOM     13  S   IDY d 142     -44.357  -5.121  19.752  0.00  0.00     0.252 S 
ATOM     14  O5  IDY d 142     -40.919  -5.883  17.864  0.00  0.00    -0.340 OA
ATOM     15  C6  IDY d 142     -38.874  -4.800  17.614  0.00  0.00     0.206 C 
ATOM     16  C5  IDY d 142     -39.619  -5.797  18.471  0.00  0.00     0.152 C 
ATOM     17  O2  IDY d 142     -42.878  -4.954  20.018  0.00  0.00    -0.244 OA
ATOM     18  OS1 IDY d 142     -44.920  -3.813  19.387  0.00  0.00    -0.572 OA
ATOM     19  H   IDY d 142     -42.473  -6.911  20.632  0.00  0.00     0.097 H 
ATOM     20  H   IDY d 142     -38.762  -5.771  20.361  0.00  0.00     0.092 H 
ATOM     21  H   IDY d 142     -42.776  -6.314  18.156  0.00  0.00     0.133 H 
ATOM     22  H   IDY d 142     -41.048  -7.415  22.012  0.00  0.00     0.210 HD
ATOM     23  H   IDY d 142     -41.901  -9.772  17.939  0.00  0.00     0.066 H 
ATOM     24  H   IDY d 142     -42.294  -9.487  19.617  0.00  0.00     0.066 H 
ATOM     25  H   IDY d 142     -40.635  -9.389  19.080  0.00  0.00     0.066 H 
ATOM     26  H   IDY d 142     -40.949  -5.039  21.452  0.00  0.00     0.091 H 
ATOM     27  H   IDY d 142     -39.169  -6.767  18.511  0.00  0.00     0.104 H 
ATOM     28  O4  SGN d 141     -39.153  -0.017  18.084  0.00  0.00    -0.390 OA
ATOM     29  O6  SGN d 141     -35.988  -1.000  20.586  0.00  0.00    -0.254 OA
ATOM     30  O5S SGN d 141     -34.006  -0.087  19.722  0.00  0.00    -0.572 OA
ATOM     31  C2  SGN d 141     -40.312  -1.794  21.010  0.00  0.00     0.081 C 
ATOM     32  C3  SGN d 141     -40.360  -1.042  19.695  0.00  0.00     0.083 C 
ATOM     33  O3  SGN d 141     -41.180   0.104  19.736  0.00  0.00    -0.391 OA
ATOM     34  O1S SGN d 141     -43.674  -2.335  22.576  0.00  0.00    -0.296 OA
ATOM     35  N   SGN d 141     -41.593  -2.395  21.283  0.00  0.00    -0.210 NA
ATOM     36  C1  SGN d 141     -39.236  -2.878  20.924  0.00  0.00     0.150 C 
ATOM     37  C6  SGN d 141     -36.543  -1.039  19.293  0.00  0.00     0.067 C 
ATOM     38  O2S SGN d 141     -41.920  -0.825  23.017  0.00  0.00    -0.296 OA
ATOM     39  O3S SGN d 141     -41.656  -3.079  23.624  0.00  0.00    -0.296 OA
ATOM     40  S1  SGN d 141     -42.258  -2.171  22.694  0.00  0.00     0.156 S 
ATOM     41  O4S SGN d 141     -34.058  -0.702  22.037  0.00  0.00    -0.572 OA
ATOM     42  O5  SGN d 141     -37.966  -2.346  20.598  0.00  0.00    -0.349 OA
ATOM     43  C4  SGN d 141     -38.980  -0.543  19.368  0.00  0.00     0.089 C 
ATOM     44  O6S SGN d 141     -34.005  -2.395  20.319  0.00  0.00    -0.572 OA
ATOM     45  S2  SGN d 141     -34.447  -1.057  20.688  0.00  0.00     0.251 S 
ATOM     46  C5  SGN d 141     -37.925  -1.643  19.387  0.00  0.00     0.090 C 
ATOM     47  H   SGN d 141     -39.829   0.678  18.108  0.00  0.00     0.210 HD
ATOM     48  H   SGN d 141     -40.077  -1.116  21.804  0.00  0.00     0.076 H 
ATOM     49  H   SGN d 141     -40.751  -1.730  18.975  0.00  0.00     0.089 H 
ATOM     50  H   SGN d 141     -40.828   0.730  20.388  0.00  0.00     0.210 HD
ATOM     51  H   SGN d 141     -44.022  -1.695  21.935  0.00  0.00     0.231 HD
ATOM     52  H   SGN d 141     -41.484  -3.401  21.160  0.00  0.00     0.140 HD
ATOM     53  H   SGN d 141     -39.173  -3.333  21.891  0.00  0.00     0.131 H 
ATOM     54  H   SGN d 141     -35.928  -1.638  18.654  0.00  0.00     0.080 H 
ATOM     55  H   SGN d 141     -36.600  -0.051  18.886  0.00  0.00     0.080 H 
ATOM     56  H   SGN d 141     -42.336  -0.225  22.378  0.00  0.00     0.231 HD
ATOM     57  H   SGN d 141     -41.896  -3.989  23.389  0.00  0.00     0.231 HD
ATOM     58  H   SGN d 141     -38.615   0.162  20.084  0.00  0.00     0.091 H 
ATOM     59  H   SGN d 141     -38.128  -2.292  18.560  0.00  0.00     0.090 H 
ENDROOT
TORSDOF 18
ENDMDL
MODEL 46
REMARK VINA RESULT:      -4.8      3.220      7.866
REMARK  0 active torsions:
REMARK  status: ('A' for Active; 'I' for Inactive)
REMARK       I    between atoms: C2_2  and  O2_34 
REMARK       I    between atoms: O4_3  and  C4_29 
REMARK       I    between atoms: O6_4  and  C6_17 
REMARK       I    between atoms: O6_4  and  S2_35 
REMARK       I    between atoms: C2_6  and  N_15 
REMARK       I    between atoms: O1_8  and  C1_19 
REMARK       I    between atoms: O1_8  and  C7_24 
REMARK       I    between atoms: C4_9  and  O4_22 
REMARK       I    between atoms: C3_10  and  O3_13 
REMARK       I    between atoms: O1S_14  and  S1_21 
REMARK       I    between atoms: N_15  and  S1_21 
REMARK       I    between atoms: C1_16  and  O4_22 
REMARK       I    between atoms: C6_17  and  C5_36 
REMARK       I    between atoms: O2S_18  and  S1_21 
REMARK       I    between atoms: O3S_20  and  S1_21 
REMARK       I    between atoms: O3_23  and  C3_25 
REMARK       I    between atoms: S_28  and  O2_34 
REMARK       I    between atoms: C6_32  and  C5_33 
ROOT
ATOM      1  OS3 IDY d 142     -43.182  -9.031  13.477  0.00  0.00    -0.572 OA
ATOM      2  C2  IDY d 142     -41.670  -8.781  15.946  0.00  0.00     0.134 C 
ATOM      3  O61 IDY d 142     -36.737  -6.906  15.435  0.00  0.00    -0.646 OA
ATOM      4  O1  IDY d 142     -40.437 -10.249  14.687  0.00  0.00    -0.363 OA
ATOM      5  C4  IDY d 142     -39.699  -7.630  17.033  0.00  0.00     0.103 C 
ATOM      6  OS2 IDY d 142     -44.756  -8.828  15.295  0.00  0.00    -0.572 OA
ATOM      7  O62 IDY d 142     -38.636  -5.808  14.647  0.00  0.00    -0.646 OA
ATOM      8  C1  IDY d 142     -40.750  -9.058  14.786  0.00  0.00     0.160 C 
ATOM      9  O4  IDY d 142     -39.958  -6.147  17.120  0.00  0.00    -0.348 OA
ATOM     10  O3  IDY d 142     -40.705  -9.630  17.985  0.00  0.00    -0.390 OA
ATOM     11  C7  IDY d 142     -40.166 -11.608  14.976  0.00  0.00     0.007 C 
ATOM     12  C3  IDY d 142     -40.969  -8.391  17.208  0.00  0.00     0.094 C 
ATOM     13  S   IDY d 142     -43.696  -8.114  14.548  0.00  0.00     0.252 S 
ATOM     14  O5  IDY d 142     -39.701  -8.131  14.599  0.00  0.00    -0.340 OA
ATOM     15  C6  IDY d 142     -38.034  -6.731  15.422  0.00  0.00     0.206 C 
ATOM     16  C5  IDY d 142     -38.900  -7.919  15.772  0.00  0.00     0.152 C 
ATOM     17  O2  IDY d 142     -42.592  -7.756  15.517  0.00  0.00    -0.244 OA
ATOM     18  OS1 IDY d 142     -44.246  -6.872  13.982  0.00  0.00    -0.572 OA
ATOM     19  H   IDY d 142     -42.177  -9.687  16.204  0.00  0.00     0.097 H 
ATOM     20  H   IDY d 142     -39.086  -7.978  17.838  0.00  0.00     0.092 H 
ATOM     21  H   IDY d 142     -41.349  -8.867  13.920  0.00  0.00     0.133 H 
ATOM     22  H   IDY d 142     -41.533 -10.123  18.098  0.00  0.00     0.210 HD
ATOM     23  H   IDY d 142     -39.850 -12.107  14.084  0.00  0.00     0.066 H 
ATOM     24  H   IDY d 142     -41.052 -12.076  15.352  0.00  0.00     0.066 H 
ATOM     25  H   IDY d 142     -39.392 -11.668  15.712  0.00  0.00     0.066 H 
ATOM     26  H   IDY d 142     -41.621  -7.711  17.717  0.00  0.00     0.091 H 
ATOM     27  H   IDY d 142     -38.353  -8.809  16.007  0.00  0.00     0.104 H 
ATOM     28  O4  SGN d 141     -39.394  -2.129  15.804  0.00  0.00    -0.390 OA
ATOM     29  O6  SGN d 141     -37.715  -2.899  19.523  0.00  0.00    -0.254 OA
ATOM     30  O5S SGN d 141     -35.773  -1.606  19.779  0.00  0.00    -0.572 OA
ATOM     31  C2  SGN d 141     -41.468  -4.379  17.727  0.00  0.00     0.081 C 
ATOM     32  C3  SGN d 141     -41.014  -3.499  16.579  0.00  0.00     0.083 C 
ATOM     33  O3  SGN d 141     -41.948  -2.501  16.235  0.00  0.00    -0.391 OA
ATOM     34  O1S SGN d 141     -45.000  -5.593  17.404  0.00  0.00    -0.296 OA
ATOM     35  N   SGN d 141     -42.584  -5.192  17.313  0.00  0.00    -0.210 NA
ATOM     36  C1  SGN d 141     -40.305  -5.271  18.160  0.00  0.00     0.150 C 
ATOM     37  C6  SGN d 141     -37.557  -2.875  18.124  0.00  0.00     0.067 C 
ATOM     38  O2S SGN d 141     -43.996  -3.896  18.692  0.00  0.00    -0.296 OA
ATOM     39  O3S SGN d 141     -43.643  -6.139  19.298  0.00  0.00    -0.296 OA
ATOM     40  S1  SGN d 141     -43.877  -5.232  18.213  0.00  0.00     0.156 S 
ATOM     41  O4S SGN d 141     -36.823  -2.479  21.747  0.00  0.00    -0.572 OA
ATOM     42  O5  SGN d 141     -39.160  -4.521  18.520  0.00  0.00    -0.349 OA
ATOM     43  C4  SGN d 141     -39.768  -2.764  16.992  0.00  0.00     0.089 C 
ATOM     44  O6S SGN d 141     -35.629  -3.941  20.243  0.00  0.00    -0.572 OA
ATOM     45  S2  SGN d 141     -36.436  -2.734  20.375  0.00  0.00     0.251 S 
ATOM     46  C5  SGN d 141     -38.670  -3.687  17.506  0.00  0.00     0.090 C 
ATOM     47  H   SGN d 141     -40.113  -1.550  15.506  0.00  0.00     0.210 HD
ATOM     48  H   SGN d 141     -41.778  -3.767  18.548  0.00  0.00     0.076 H 
ATOM     49  H   SGN d 141     -40.871  -4.152  15.744  0.00  0.00     0.089 H 
ATOM     50  H   SGN d 141     -42.080  -1.907  16.990  0.00  0.00     0.210 HD
ATOM     51  H   SGN d 141     -45.106  -4.944  16.690  0.00  0.00     0.231 HD
ATOM     52  H   SGN d 141     -42.243  -6.150  17.237  0.00  0.00     0.140 HD
ATOM     53  H   SGN d 141     -40.633  -5.817  19.019  0.00  0.00     0.131 H 
ATOM     54  H   SGN d 141     -36.610  -3.299  17.861  0.00  0.00     0.080 H 
ATOM     55  H   SGN d 141     -37.593  -1.867  17.767  0.00  0.00     0.080 H 
ATOM     56  H   SGN d 141     -44.154  -3.297  17.946  0.00  0.00     0.231 HD
ATOM     57  H   SGN d 141     -43.564  -7.042  18.953  0.00  0.00     0.231 HD
ATOM     58  H   SGN d 141     -39.935  -2.098  17.811  0.00  0.00     0.091 H 
ATOM     59  H   SGN d 141     -38.323  -4.262  16.673  0.00  0.00     0.090 H 
ENDROOT
TORSDOF 18
ENDMDL
MODEL 47
REMARK VINA RESULT:      -4.7      3.478      5.143
REMARK  0 active torsions:
REMARK  status: ('A' for Active; 'I' for Inactive)
REMARK       I    between atoms: C2_2  and  O2_34 
REMARK       I    between atoms: O4_3  and  C4_29 
REMARK       I    between atoms: O6_4  and  C6_17 
REMARK       I    between atoms: O6_4  and  S2_35 
REMARK       I    between atoms: C2_6  and  N_15 
REMARK       I    between atoms: O1_8  and  C1_19 
REMARK       I    between atoms: O1_8  and  C7_24 
REMARK       I    between atoms: C4_9  and  O4_22 
REMARK       I    between atoms: C3_10  and  O3_13 
REMARK       I    between atoms: O1S_14  and  S1_21 
REMARK       I    between atoms: N_15  and  S1_21 
REMARK       I    between atoms: C1_16  and  O4_22 
REMARK       I    between atoms: C6_17  and  C5_36 
REMARK       I    between atoms: O2S_18  and  S1_21 
REMARK       I    between atoms: O3S_20  and  S1_21 
REMARK       I    between atoms: O3_23  and  C3_25 
REMARK       I    between atoms: S_28  and  O2_34 
REMARK       I    between atoms: C6_32  and  C5_33 
ROOT
ATOM      1  OS3 IDY d 142     -43.739  -3.706  21.038  0.00  0.00    -0.572 OA
ATOM      2  C2  IDY d 142     -40.883  -3.414  20.583  0.00  0.00     0.134 C 
ATOM      3  O61 IDY d 142     -37.942  -7.695  21.647  0.00  0.00    -0.646 OA
ATOM      4  O1  IDY d 142     -41.042  -3.895  22.820  0.00  0.00    -0.363 OA
ATOM      5  C4  IDY d 142     -38.733  -4.682  20.182  0.00  0.00     0.103 C 
ATOM      6  OS2 IDY d 142     -43.421  -1.950  19.414  0.00  0.00    -0.572 OA
ATOM      7  O62 IDY d 142     -39.764  -7.695  20.194  0.00  0.00    -0.646 OA
ATOM      8  C1  IDY d 142     -41.147  -4.395  21.695  0.00  0.00     0.160 C 
ATOM      9  O4  IDY d 142     -38.804  -5.399  18.858  0.00  0.00    -0.348 OA
ATOM     10  O3  IDY d 142     -38.741  -2.358  20.903  0.00  0.00    -0.390 OA
ATOM     11  C7  IDY d 142     -40.681  -3.060  23.903  0.00  0.00     0.007 C 
ATOM     12  C3  IDY d 142     -39.465  -3.385  20.109  0.00  0.00     0.094 C 
ATOM     13  S   IDY d 142     -43.257  -3.401  19.649  0.00  0.00     0.252 S 
ATOM     14  O5  IDY d 142     -40.566  -5.673  21.536  0.00  0.00    -0.340 OA
ATOM     15  C6  IDY d 142     -38.808  -7.060  20.900  0.00  0.00     0.206 C 
ATOM     16  C5  IDY d 142     -39.152  -5.640  21.286  0.00  0.00     0.152 C 
ATOM     17  O2  IDY d 142     -41.791  -3.742  19.508  0.00  0.00    -0.244 OA
ATOM     18  OS1 IDY d 142     -44.013  -4.151  18.635  0.00  0.00    -0.572 OA
ATOM     19  H   IDY d 142     -41.051  -2.424  20.953  0.00  0.00     0.097 H 
ATOM     20  H   IDY d 142     -37.734  -4.391  20.428  0.00  0.00     0.092 H 
ATOM     21  H   IDY d 142     -42.187  -4.630  21.602  0.00  0.00     0.133 H 
ATOM     22  H   IDY d 142     -39.219  -1.515  20.855  0.00  0.00     0.210 HD
ATOM     23  H   IDY d 142     -41.150  -3.412  24.798  0.00  0.00     0.066 H 
ATOM     24  H   IDY d 142     -41.000  -2.058  23.703  0.00  0.00     0.066 H 
ATOM     25  H   IDY d 142     -39.618  -3.077  24.028  0.00  0.00     0.066 H 
ATOM     26  H   IDY d 142     -39.500  -3.154  19.065  0.00  0.00     0.091 H 
ATOM     27  H   IDY d 142     -38.635  -5.282  22.152  0.00  0.00     0.104 H 
ATOM     28  O4  SGN d 141     -39.310  -8.906  16.482  0.00  0.00    -0.390 OA
ATOM     29  O6  SGN d 141     -35.436  -7.413  16.415  0.00  0.00    -0.254 OA
ATOM     30  O5S SGN d 141     -33.922  -9.196  16.217  0.00  0.00    -0.572 OA
ATOM     31  C2  SGN d 141     -39.308  -5.292  16.510  0.00  0.00     0.081 C 
ATOM     32  C3  SGN d 141     -39.842  -6.711  16.486  0.00  0.00     0.083 C 
ATOM     33  O3  SGN d 141     -40.695  -6.969  15.394  0.00  0.00    -0.391 OA
ATOM     34  O1S SGN d 141     -41.926  -2.674  15.920  0.00  0.00    -0.296 OA
ATOM     35  N   SGN d 141     -40.379  -4.367  16.785  0.00  0.00    -0.210 NA
ATOM     36  C1  SGN d 141     -38.234  -5.183  17.593  0.00  0.00     0.150 C 
ATOM     37  C6  SGN d 141     -36.375  -8.267  17.024  0.00  0.00     0.067 C 
ATOM     38  O2S SGN d 141     -40.253  -3.612  14.551  0.00  0.00    -0.296 OA
ATOM     39  O3S SGN d 141     -39.623  -2.110  16.245  0.00  0.00    -0.296 OA
ATOM     40  S1  SGN d 141     -40.566  -3.114  15.849  0.00  0.00     0.156 S 
ATOM     41  O4S SGN d 141     -33.171  -6.998  15.630  0.00  0.00    -0.572 OA
ATOM     42  O5  SGN d 141     -37.186  -6.115  17.403  0.00  0.00    -0.349 OA
ATOM     43  C4  SGN d 141     -38.688  -7.663  16.336  0.00  0.00     0.089 C 
ATOM     44  O6S SGN d 141     -33.539  -7.592  17.939  0.00  0.00    -0.572 OA
ATOM     45  S2  SGN d 141     -33.945  -7.799  16.556  0.00  0.00     0.251 S 
ATOM     46  C5  SGN d 141     -37.598  -7.454  17.380  0.00  0.00     0.090 C 
ATOM     47  H   SGN d 141     -39.996  -9.006  15.803  0.00  0.00     0.210 HD
ATOM     48  H   SGN d 141     -38.885  -5.051  15.558  0.00  0.00     0.076 H 
ATOM     49  H   SGN d 141     -40.387  -6.837  17.398  0.00  0.00     0.089 H 
ATOM     50  H   SGN d 141     -40.203  -6.856  14.566  0.00  0.00     0.210 HD
ATOM     51  H   SGN d 141     -42.513  -3.395  15.641  0.00  0.00     0.231 HD
ATOM     52  H   SGN d 141     -40.233  -4.014  17.731  0.00  0.00     0.140 HD
ATOM     53  H   SGN d 141     -37.824  -4.197  17.528  0.00  0.00     0.131 H 
ATOM     54  H   SGN d 141     -35.954  -8.695  17.910  0.00  0.00     0.080 H 
ATOM     55  H   SGN d 141     -36.641  -9.059  16.355  0.00  0.00     0.080 H 
ATOM     56  H   SGN d 141     -40.901  -4.289  14.300  0.00  0.00     0.231 HD
ATOM     57  H   SGN d 141     -39.851  -1.783  17.129  0.00  0.00     0.231 HD
ATOM     58  H   SGN d 141     -38.170  -7.539  15.408  0.00  0.00     0.091 H 
ATOM     59  H   SGN d 141     -38.004  -7.746  18.325  0.00  0.00     0.090 H 
ENDROOT
TORSDOF 18
ENDMDL
MODEL 48
REMARK VINA RESULT:      -4.7      3.728      8.212
REMARK  0 active torsions:
REMARK  status: ('A' for Active; 'I' for Inactive)
REMARK       I    between atoms: C2_2  and  O2_34 
REMARK       I    between atoms: O4_3  and  C4_29 
REMARK       I    between atoms: O6_4  and  C6_17 
REMARK       I    between atoms: O6_4  and  S2_35 
REMARK       I    between atoms: C2_6  and  N_15 
REMARK       I    between atoms: O1_8  and  C1_19 
REMARK       I    between atoms: O1_8  and  C7_24 
REMARK       I    between atoms: C4_9  and  O4_22 
REMARK       I    between atoms: C3_10  and  O3_13 
REMARK       I    between atoms: O1S_14  and  S1_21 
REMARK       I    between atoms: N_15  and  S1_21 
REMARK       I    between atoms: C1_16  and  O4_22 
REMARK       I    between atoms: C6_17  and  C5_36 
REMARK       I    between atoms: O2S_18  and  S1_21 
REMARK       I    between atoms: O3S_20  and  S1_21 
REMARK       I    between atoms: O3_23  and  C3_25 
REMARK       I    between atoms: S_28  and  O2_34 
REMARK       I    between atoms: C6_32  and  C5_33 
ROOT
ATOM      1  OS3 IDY d 142     -39.057 -11.233  15.566  0.00  0.00    -0.572 OA
ATOM      2  C2  IDY d 142     -38.387  -8.435  15.155  0.00  0.00     0.134 C 
ATOM      3  O61 IDY d 142     -42.495  -5.084  15.052  0.00  0.00    -0.646 OA
ATOM      4  O1  IDY d 142     -39.732  -8.952  13.369  0.00  0.00    -0.363 OA
ATOM      5  C4  IDY d 142     -39.219  -6.066  15.447  0.00  0.00     0.103 C 
ATOM      6  OS2 IDY d 142     -36.780 -10.899  16.292  0.00  0.00    -0.572 OA
ATOM      7  O62 IDY d 142     -42.057  -6.555  16.806  0.00  0.00    -0.646 OA
ATOM      8  C1  IDY d 142     -39.748  -8.745  14.587  0.00  0.00     0.160 C 
ATOM      9  O4  IDY d 142     -39.352  -5.749  16.915  0.00  0.00    -0.348 OA
ATOM     10  O3  IDY d 142     -37.384  -6.608  13.945  0.00  0.00    -0.390 OA
ATOM     11  C7  IDY d 142     -39.372  -8.959  12.001  0.00  0.00     0.007 C 
ATOM     12  C3  IDY d 142     -38.062  -6.977  15.215  0.00  0.00     0.094 C 
ATOM     13  S   IDY d 142     -38.187 -10.543  16.577  0.00  0.00     0.252 S 
ATOM     14  O5  IDY d 142     -40.807  -7.937  15.057  0.00  0.00    -0.340 OA
ATOM     15  C6  IDY d 142     -41.685  -5.880  15.702  0.00  0.00     0.206 C 
ATOM     16  C5  IDY d 142     -40.567  -6.528  14.917  0.00  0.00     0.152 C 
ATOM     17  O2  IDY d 142     -38.329  -9.042  16.464  0.00  0.00    -0.244 OA
ATOM     18  OS1 IDY d 142     -38.527 -10.945  17.950  0.00  0.00    -0.572 OA
ATOM     19  H   IDY d 142     -37.644  -8.837  14.499  0.00  0.00     0.097 H 
ATOM     20  H   IDY d 142     -38.975  -5.199  14.870  0.00  0.00     0.092 H 
ATOM     21  H   IDY d 142     -40.006  -9.691  15.016  0.00  0.00     0.133 H 
ATOM     22  H   IDY d 142     -36.632  -7.202  13.795  0.00  0.00     0.210 HD
ATOM     23  H   IDY d 142     -40.087  -9.530  11.447  0.00  0.00     0.066 H 
ATOM     24  H   IDY d 142     -38.402  -9.396  11.889  0.00  0.00     0.066 H 
ATOM     25  H   IDY d 142     -39.355  -7.955  11.631  0.00  0.00     0.066 H 
ATOM     26  H   IDY d 142     -37.438  -6.842  16.074  0.00  0.00     0.091 H 
ATOM     27  H   IDY d 142     -40.546  -6.261  13.880  0.00  0.00     0.104 H 
ATOM     28  O4  SGN d 141     -41.649  -5.175  20.464  0.00  0.00    -0.390 OA
ATOM     29  O6  SGN d 141     -39.958  -1.673  19.008  0.00  0.00    -0.254 OA
ATOM     30  O5S SGN d 141     -41.391   0.128  19.468  0.00  0.00    -0.572 OA
ATOM     31  C2  SGN d 141     -38.357  -5.788  19.102  0.00  0.00     0.081 C 
ATOM     32  C3  SGN d 141     -39.686  -6.059  19.781  0.00  0.00     0.083 C 
ATOM     33  O3  SGN d 141     -39.553  -6.622  21.067  0.00  0.00    -0.391 OA
ATOM     34  O1S SGN d 141     -35.933  -8.639  19.316  0.00  0.00    -0.296 OA
ATOM     35  N   SGN d 141     -37.705  -7.032  18.781  0.00  0.00    -0.210 NA
ATOM     36  C1  SGN d 141     -38.606  -4.985  17.826  0.00  0.00     0.150 C 
ATOM     37  C6  SGN d 141     -41.054  -2.557  19.013  0.00  0.00     0.067 C 
ATOM     38  O2S SGN d 141     -36.115  -6.594  20.471  0.00  0.00    -0.296 OA
ATOM     39  O3S SGN d 141     -35.369  -6.576  18.243  0.00  0.00    -0.296 OA
ATOM     40  S1  SGN d 141     -36.201  -7.238  19.203  0.00  0.00     0.156 S 
ATOM     41  O4S SGN d 141     -39.090   0.599  18.994  0.00  0.00    -0.572 OA
ATOM     42  O5  SGN d 141     -39.301  -3.778  18.079  0.00  0.00    -0.349 OA
ATOM     43  C4  SGN d 141     -40.406  -4.754  19.981  0.00  0.00     0.089 C 
ATOM     44  O6S SGN d 141     -40.582  -0.115  17.237  0.00  0.00    -0.572 OA
ATOM     45  S2  SGN d 141     -40.250  -0.197  18.654  0.00  0.00     0.251 S 
ATOM     46  C5  SGN d 141     -40.547  -3.945  18.698  0.00  0.00     0.090 C 
ATOM     47  H   SGN d 141     -41.523  -5.685  21.280  0.00  0.00     0.210 HD
ATOM     48  H   SGN d 141     -37.724  -5.231  19.761  0.00  0.00     0.076 H 
ATOM     49  H   SGN d 141     -40.207  -6.746  19.148  0.00  0.00     0.089 H 
ATOM     50  H   SGN d 141     -39.080  -6.001  21.644  0.00  0.00     0.210 HD
ATOM     51  H   SGN d 141     -36.525  -9.029  19.978  0.00  0.00     0.231 HD
ATOM     52  H   SGN d 141     -37.748  -7.139  17.768  0.00  0.00     0.140 HD
ATOM     53  H   SGN d 141     -37.647  -4.742  17.417  0.00  0.00     0.131 H 
ATOM     54  H   SGN d 141     -41.765  -2.254  18.272  0.00  0.00     0.080 H 
ATOM     55  H   SGN d 141     -41.531  -2.547  19.970  0.00  0.00     0.080 H 
ATOM     56  H   SGN d 141     -36.683  -7.056  21.107  0.00  0.00     0.231 HD
ATOM     57  H   SGN d 141     -35.440  -7.027  17.387  0.00  0.00     0.231 HD
ATOM     58  H   SGN d 141     -39.883  -4.091  20.636  0.00  0.00     0.091 H 
ATOM     59  H   SGN d 141     -41.223  -4.475  18.060  0.00  0.00     0.090 H 
ENDROOT
TORSDOF 18
ENDMDL
MODEL 49
REMARK VINA RESULT:      -4.7      2.329      3.400
REMARK  0 active torsions:
REMARK  status: ('A' for Active; 'I' for Inactive)
REMARK       I    between atoms: C2_2  and  O2_34 
REMARK       I    between atoms: O4_3  and  C4_29 
REMARK       I    between atoms: O6_4  and  C6_17 
REMARK       I    between atoms: O6_4  and  S2_35 
REMARK       I    between atoms: C2_6  and  N_15 
REMARK       I    between atoms: O1_8  and  C1_19 
REMARK       I    between atoms: O1_8  and  C7_24 
REMARK       I    between atoms: C4_9  and  O4_22 
REMARK       I    between atoms: C3_10  and  O3_13 
REMARK       I    between atoms: O1S_14  and  S1_21 
REMARK       I    between atoms: N_15  and  S1_21 
REMARK       I    between atoms: C1_16  and  O4_22 
REMARK       I    between atoms: C6_17  and  C5_36 
REMARK       I    between atoms: O2S_18  and  S1_21 
REMARK       I    between atoms: O3S_20  and  S1_21 
REMARK       I    between atoms: O3_23  and  C3_25 
REMARK       I    between atoms: S_28  and  O2_34 
REMARK       I    between atoms: C6_32  and  C5_33 
ROOT
ATOM      1  OS3 IDY d 142     -38.413   0.822  21.361  0.00  0.00    -0.572 OA
ATOM      2  C2  IDY d 142     -38.313  -1.532  19.658  0.00  0.00     0.134 C 
ATOM      3  O61 IDY d 142     -36.032  -5.814  21.794  0.00  0.00    -0.646 OA
ATOM      4  O1  IDY d 142     -36.109  -1.068  20.093  0.00  0.00    -0.363 OA
ATOM      5  C4  IDY d 142     -38.068  -4.047  19.654  0.00  0.00     0.103 C 
ATOM      6  OS2 IDY d 142     -40.185   1.006  19.733  0.00  0.00    -0.572 OA
ATOM      7  O62 IDY d 142     -37.809  -4.663  22.767  0.00  0.00    -0.646 OA
ATOM      8  C1  IDY d 142     -37.142  -1.511  20.605  0.00  0.00     0.160 C 
ATOM      9  O4  IDY d 142     -39.254  -4.676  20.340  0.00  0.00    -0.348 OA
ATOM     10  O3  IDY d 142     -37.725  -2.719  17.645  0.00  0.00    -0.390 OA
ATOM     11  C7  IDY d 142     -35.115  -0.685  19.161  0.00  0.00     0.007 C 
ATOM     12  C3  IDY d 142     -38.485  -2.820  18.918  0.00  0.00     0.094 C 
ATOM     13  S   IDY d 142     -39.703   0.217  20.888  0.00  0.00     0.252 S 
ATOM     14  O5  IDY d 142     -36.982  -2.662  21.408  0.00  0.00    -0.340 OA
ATOM     15  C6  IDY d 142     -37.028  -4.969  21.714  0.00  0.00     0.206 C 
ATOM     16  C5  IDY d 142     -36.940  -3.888  20.661  0.00  0.00     0.152 C 
ATOM     17  O2  IDY d 142     -39.487  -1.208  20.433  0.00  0.00    -0.244 OA
ATOM     18  OS1 IDY d 142     -40.724   0.223  21.947  0.00  0.00    -0.572 OA
ATOM     19  H   IDY d 142     -38.139  -0.813  18.884  0.00  0.00     0.097 H 
ATOM     20  H   IDY d 142     -37.670  -4.676  18.885  0.00  0.00     0.092 H 
ATOM     21  H   IDY d 142     -37.409  -0.783  21.342  0.00  0.00     0.133 H 
ATOM     22  H   IDY d 142     -37.998  -1.919  17.168  0.00  0.00     0.210 HD
ATOM     23  H   IDY d 142     -34.292  -0.240  19.681  0.00  0.00     0.066 H 
ATOM     24  H   IDY d 142     -35.525   0.021  18.471  0.00  0.00     0.066 H 
ATOM     25  H   IDY d 142     -34.774  -1.548  18.628  0.00  0.00     0.066 H 
ATOM     26  H   IDY d 142     -39.538  -2.942  18.766  0.00  0.00     0.091 H 
ATOM     27  H   IDY d 142     -36.051  -3.924  20.066  0.00  0.00     0.104 H 
ATOM     28  O4  SGN d 141     -41.121  -6.576  23.672  0.00  0.00    -0.390 OA
ATOM     29  O6  SGN d 141     -40.620  -9.091  20.407  0.00  0.00    -0.254 OA
ATOM     30  O5S SGN d 141     -40.231 -11.278  21.166  0.00  0.00    -0.572 OA
ATOM     31  C2  SGN d 141     -41.643  -4.798  20.569  0.00  0.00     0.081 C 
ATOM     32  C3  SGN d 141     -41.560  -5.055  22.061  0.00  0.00     0.083 C 
ATOM     33  O3  SGN d 141     -42.751  -4.748  22.750  0.00  0.00    -0.391 OA
ATOM     34  O1S SGN d 141     -43.148  -1.481  19.681  0.00  0.00    -0.296 OA
ATOM     35  N   SGN d 141     -41.737  -3.382  20.317  0.00  0.00    -0.210 NA
ATOM     36  C1  SGN d 141     -40.393  -5.365  19.896  0.00  0.00     0.150 C 
ATOM     37  C6  SGN d 141     -40.094  -8.573  21.605  0.00  0.00     0.067 C 
ATOM     38  O2S SGN d 141     -43.986  -3.683  19.665  0.00  0.00    -0.296 OA
ATOM     39  O3S SGN d 141     -42.448  -3.042  18.008  0.00  0.00    -0.296 OA
ATOM     40  S1  SGN d 141     -42.872  -2.849  19.363  0.00  0.00     0.156 S 
ATOM     41  O4S SGN d 141     -40.980 -10.975  18.910  0.00  0.00    -0.572 OA
ATOM     42  O5  SGN d 141     -40.221  -6.745  20.164  0.00  0.00    -0.349 OA
ATOM     43  C4  SGN d 141     -41.325  -6.522  22.291  0.00  0.00     0.089 C 
ATOM     44  O6S SGN d 141     -38.732 -10.374  19.547  0.00  0.00    -0.572 OA
ATOM     45  S2  SGN d 141     -40.122 -10.487  19.970  0.00  0.00     0.251 S 
ATOM     46  C5  SGN d 141     -40.124  -7.064  21.524  0.00  0.00     0.090 C 
ATOM     47  H   SGN d 141     -41.903  -6.225  24.128  0.00  0.00     0.210 HD
ATOM     48  H   SGN d 141     -42.515  -5.274  20.171  0.00  0.00     0.076 H 
ATOM     49  H   SGN d 141     -40.771  -4.431  22.425  0.00  0.00     0.089 H 
ATOM     50  H   SGN d 141     -43.469  -5.312  22.422  0.00  0.00     0.210 HD
ATOM     51  H   SGN d 141     -43.428  -1.415  20.608  0.00  0.00     0.231 HD
ATOM     52  H   SGN d 141     -40.846  -3.091  19.915  0.00  0.00     0.140 HD
ATOM     53  H   SGN d 141     -40.522  -5.240  18.842  0.00  0.00     0.131 H 
ATOM     54  H   SGN d 141     -39.086  -8.909  21.732  0.00  0.00     0.080 H 
ATOM     55  H   SGN d 141     -40.675  -8.909  22.438  0.00  0.00     0.080 H 
ATOM     56  H   SGN d 141     -44.259  -3.538  20.584  0.00  0.00     0.231 HD
ATOM     57  H   SGN d 141     -41.690  -2.468  17.821  0.00  0.00     0.231 HD
ATOM     58  H   SGN d 141     -42.134  -7.129  21.943  0.00  0.00     0.091 H 
ATOM     59  H   SGN d 141     -39.248  -6.629  21.958  0.00  0.00     0.090 H 
ENDROOT
TORSDOF 18
ENDMDL
MODEL 50
REMARK VINA RESULT:      -4.7      3.201      8.237
REMARK  0 active torsions:
REMARK  status: ('A' for Active; 'I' for Inactive)
REMARK       I    between atoms: C2_2  and  O2_34 
REMARK       I    between atoms: O4_3  and  C4_29 
REMARK       I    between atoms: O6_4  and  C6_17 
REMARK       I    between atoms: O6_4  and  S2_35 
REMARK       I    between atoms: C2_6  and  N_15 
REMARK       I    between atoms: O1_8  and  C1_19 
REMARK       I    between atoms: O1_8  and  C7_24 
REMARK       I    between atoms: C4_9  and  O4_22 
REMARK       I    between atoms: C3_10  and  O3_13 
REMARK       I    between atoms: O1S_14  and  S1_21 
REMARK       I    between atoms: N_15  and  S1_21 
REMARK       I    between atoms: C1_16  and  O4_22 
REMARK       I    between atoms: C6_17  and  C5_36 
REMARK       I    between atoms: O2S_18  and  S1_21 
REMARK       I    between atoms: O3S_20  and  S1_21 
REMARK       I    between atoms: O3_23  and  C3_25 
REMARK       I    between atoms: S_28  and  O2_34 
REMARK       I    between atoms: C6_32  and  C5_33 
ROOT
ATOM      1  OS3 IDY d 142     -41.182 -12.092  15.425  0.00  0.00    -0.572 OA
ATOM      2  C2  IDY d 142     -42.292  -9.407  15.511  0.00  0.00     0.134 C 
ATOM      3  O61 IDY d 142     -42.237  -7.054  20.261  0.00  0.00    -0.646 OA
ATOM      4  O1  IDY d 142     -43.616 -10.602  16.955  0.00  0.00    -0.363 OA
ATOM      5  C4  IDY d 142     -42.331  -7.249  16.825  0.00  0.00     0.103 C 
ATOM      6  OS2 IDY d 142     -41.027 -11.152  13.208  0.00  0.00    -0.572 OA
ATOM      7  O62 IDY d 142     -40.345  -7.930  19.220  0.00  0.00    -0.646 OA
ATOM      8  C1  IDY d 142     -42.490 -10.107  16.830  0.00  0.00     0.160 C 
ATOM      9  O4  IDY d 142     -40.966  -6.611  16.800  0.00  0.00    -0.348 OA
ATOM     10  O3  IDY d 142     -44.035  -7.778  15.171  0.00  0.00    -0.390 OA
ATOM     11  C7  IDY d 142     -44.998 -10.877  16.821  0.00  0.00     0.007 C 
ATOM     12  C3  IDY d 142     -42.604  -7.945  15.536  0.00  0.00     0.094 C 
ATOM     13  S   IDY d 142     -40.538 -11.018  14.598  0.00  0.00     0.252 S 
ATOM     14  O5  IDY d 142     -41.990  -9.431  17.965  0.00  0.00    -0.340 OA
ATOM     15  C6  IDY d 142     -41.618  -7.490  19.194  0.00  0.00     0.206 C 
ATOM     16  C5  IDY d 142     -42.465  -8.081  18.091  0.00  0.00     0.152 C 
ATOM     17  O2  IDY d 142     -40.927  -9.649  15.108  0.00  0.00    -0.244 OA
ATOM     18  OS1 IDY d 142     -39.071 -11.126  14.615  0.00  0.00    -0.572 OA
ATOM     19  H   IDY d 142     -42.990  -9.807  14.804  0.00  0.00     0.097 H 
ATOM     20  H   IDY d 142     -43.113  -6.521  16.886  0.00  0.00     0.092 H 
ATOM     21  H   IDY d 142     -41.832 -10.950  16.787  0.00  0.00     0.133 H 
ATOM     22  H   IDY d 142     -44.210  -8.232  14.331  0.00  0.00     0.210 HD
ATOM     23  H   IDY d 142     -45.262 -11.696  17.457  0.00  0.00     0.066 H 
ATOM     24  H   IDY d 142     -45.214 -11.131  15.804  0.00  0.00     0.066 H 
ATOM     25  H   IDY d 142     -45.562 -10.012  17.100  0.00  0.00     0.066 H 
ATOM     26  H   IDY d 142     -41.939  -7.483  14.836  0.00  0.00     0.091 H 
ATOM     27  H   IDY d 142     -43.516  -8.081  18.295  0.00  0.00     0.104 H 
ATOM     28  O4  SGN d 141     -37.217  -5.635  18.587  0.00  0.00    -0.390 OA
ATOM     29  O6  SGN d 141     -39.683  -2.343  18.023  0.00  0.00    -0.254 OA
ATOM     30  O5S SGN d 141     -39.320  -0.799  19.754  0.00  0.00    -0.572 OA
ATOM     31  C2  SGN d 141     -39.071  -5.913  15.497  0.00  0.00     0.081 C 
ATOM     32  C3  SGN d 141     -38.092  -6.261  16.601  0.00  0.00     0.083 C 
ATOM     33  O3  SGN d 141     -36.773  -6.451  16.140  0.00  0.00    -0.391 OA
ATOM     34  O1S SGN d 141     -38.777  -8.094  12.462  0.00  0.00    -0.296 OA
ATOM     35  N   SGN d 141     -39.255  -7.047  14.626  0.00  0.00    -0.210 NA
ATOM     36  C1  SGN d 141     -40.407  -5.515  16.125  0.00  0.00     0.150 C 
ATOM     37  C6  SGN d 141     -39.269  -3.394  18.864  0.00  0.00     0.067 C 
ATOM     38  O2S SGN d 141     -38.058  -5.903  12.942  0.00  0.00    -0.296 OA
ATOM     39  O3S SGN d 141     -40.346  -6.291  12.578  0.00  0.00    -0.296 OA
ATOM     40  S1  SGN d 141     -39.119  -6.844  13.069  0.00  0.00     0.156 S 
ATOM     41  O4S SGN d 141     -40.345  -0.020  17.733  0.00  0.00    -0.572 OA
ATOM     42  O5  SGN d 141     -40.271  -4.442  17.038  0.00  0.00    -0.349 OA
ATOM     43  C4  SGN d 141     -38.022  -5.114  17.570  0.00  0.00     0.089 C 
ATOM     44  O6S SGN d 141     -41.570  -1.423  19.267  0.00  0.00    -0.572 OA
ATOM     45  S2  SGN d 141     -40.266  -1.086  18.709  0.00  0.00     0.251 S 
ATOM     46  C5  SGN d 141     -39.388  -4.691  18.097  0.00  0.00     0.090 C 
ATOM     47  H   SGN d 141     -36.357  -5.894  18.218  0.00  0.00     0.210 HD
ATOM     48  H   SGN d 141     -38.687  -5.098  14.920  0.00  0.00     0.076 H 
ATOM     49  H   SGN d 141     -38.448  -7.171  17.036  0.00  0.00     0.089 H 
ATOM     50  H   SGN d 141     -36.447  -5.628  15.745  0.00  0.00     0.210 HD
ATOM     51  H   SGN d 141     -37.941  -8.416  12.835  0.00  0.00     0.231 HD
ATOM     52  H   SGN d 141     -40.194  -7.407  14.800  0.00  0.00     0.140 HD
ATOM     53  H   SGN d 141     -41.045  -5.199  15.326  0.00  0.00     0.131 H 
ATOM     54  H   SGN d 141     -39.894  -3.429  19.732  0.00  0.00     0.080 H 
ATOM     55  H   SGN d 141     -38.257  -3.240  19.175  0.00  0.00     0.080 H 
ATOM     56  H   SGN d 141     -37.237  -6.294  13.279  0.00  0.00     0.231 HD
ATOM     57  H   SGN d 141     -41.056  -6.945  12.672  0.00  0.00     0.231 HD
ATOM     58  H   SGN d 141     -37.641  -4.220  17.124  0.00  0.00     0.091 H 
ATOM     59  H   SGN d 141     -39.748  -5.483  18.718  0.00  0.00     0.090 H 
ENDROOT
TORSDOF 18
ENDMDL
MODEL 51
REMARK VINA RESULT:      -4.7      2.623      7.500
REMARK  0 active torsions:
REMARK  status: ('A' for Active; 'I' for Inactive)
REMARK       I    between atoms: C2_2  and  O2_34 
REMARK       I    between atoms: O4_3  and  C4_29 
REMARK       I    between atoms: O6_4  and  C6_17 
REMARK       I    between atoms: O6_4  and  S2_35 
REMARK       I    between atoms: C2_6  and  N_15 
REMARK       I    between atoms: O1_8  and  C1_19 
REMARK       I    between atoms: O1_8  and  C7_24 
REMARK       I    between atoms: C4_9  and  O4_22 
REMARK       I    between atoms: C3_10  and  O3_13 
REMARK       I    between atoms: O1S_14  and  S1_21 
REMARK       I    between atoms: N_15  and  S1_21 
REMARK       I    between atoms: C1_16  and  O4_22 
REMARK       I    between atoms: C6_17  and  C5_36 
REMARK       I    between atoms: O2S_18  and  S1_21 
REMARK       I    between atoms: O3S_20  and  S1_21 
REMARK       I    between atoms: O3_23  and  C3_25 
REMARK       I    between atoms: S_28  and  O2_34 
REMARK       I    between atoms: C6_32  and  C5_33 
ROOT
ATOM      1  OS3 IDY d 142     -42.687  -9.322  14.890  0.00  0.00    -0.572 OA
ATOM      2  C2  IDY d 142     -41.694  -8.449  17.479  0.00  0.00     0.134 C 
ATOM      3  O61 IDY d 142     -36.632  -6.878  17.584  0.00  0.00    -0.646 OA
ATOM      4  O1  IDY d 142     -40.347 -10.226  16.938  0.00  0.00    -0.363 OA
ATOM      5  C4  IDY d 142     -39.904  -7.088  18.633  0.00  0.00     0.103 C 
ATOM      6  OS2 IDY d 142     -44.577  -8.608  16.209  0.00  0.00    -0.572 OA
ATOM      7  O62 IDY d 142     -38.240  -5.994  16.147  0.00  0.00    -0.646 OA
ATOM      8  C1  IDY d 142     -40.582  -9.046  16.657  0.00  0.00     0.160 C 
ATOM      9  O4  IDY d 142     -40.061  -5.632  18.276  0.00  0.00    -0.348 OA
ATOM     10  O3  IDY d 142     -41.233  -8.740  19.826  0.00  0.00    -0.390 OA
ATOM     11  C7  IDY d 142     -40.246 -11.462  17.619  0.00  0.00     0.007 C 
ATOM     12  C3  IDY d 142     -41.237  -7.749  18.718  0.00  0.00     0.094 C 
ATOM     13  S   IDY d 142     -43.336  -8.141  15.551  0.00  0.00     0.252 S 
ATOM     14  O5  IDY d 142     -39.449  -8.223  16.469  0.00  0.00    -0.340 OA
ATOM     15  C6  IDY d 142     -37.881  -6.687  17.245  0.00  0.00     0.206 C 
ATOM     16  C5  IDY d 142     -38.889  -7.721  17.693  0.00  0.00     0.152 C 
ATOM     17  O2  IDY d 142     -42.428  -7.559  16.611  0.00  0.00    -0.244 OA
ATOM     18  OS1 IDY d 142     -43.662  -7.086  14.580  0.00  0.00    -0.572 OA
ATOM     19  H   IDY d 142     -42.312  -9.243  17.845  0.00  0.00     0.097 H 
ATOM     20  H   IDY d 142     -39.496  -7.220  19.613  0.00  0.00     0.092 H 
ATOM     21  H   IDY d 142     -40.975  -9.082  15.662  0.00  0.00     0.133 H 
ATOM     22  H   IDY d 142     -42.102  -9.168  19.880  0.00  0.00     0.210 HD
ATOM     23  H   IDY d 142     -39.794 -12.188  16.976  0.00  0.00     0.066 H 
ATOM     24  H   IDY d 142     -41.223 -11.794  17.902  0.00  0.00     0.066 H 
ATOM     25  H   IDY d 142     -39.645 -11.338  18.495  0.00  0.00     0.066 H 
ATOM     26  H   IDY d 142     -41.925  -6.945  18.882  0.00  0.00     0.091 H 
ATOM     27  H   IDY d 142     -38.471  -8.525  18.262  0.00  0.00     0.104 H 
ATOM     28  O4  SGN d 141     -38.933  -2.125  16.125  0.00  0.00    -0.390 OA
ATOM     29  O6  SGN d 141     -38.111  -1.903  20.189  0.00  0.00    -0.254 OA
ATOM     30  O5S SGN d 141     -36.168  -0.628  20.517  0.00  0.00    -0.572 OA
ATOM     31  C2  SGN d 141     -41.522  -3.736  18.065  0.00  0.00     0.081 C 
ATOM     32  C3  SGN d 141     -40.778  -3.205  16.856  0.00  0.00     0.083 C 
ATOM     33  O3  SGN d 141     -41.543  -2.318  16.072  0.00  0.00    -0.391 OA
ATOM     34  O1S SGN d 141     -44.997  -4.922  17.308  0.00  0.00    -0.296 OA
ATOM     35  N   SGN d 141     -42.589  -4.608  17.643  0.00  0.00    -0.210 NA
ATOM     36  C1  SGN d 141     -40.544  -4.502  18.955  0.00  0.00     0.150 C 
ATOM     37  C6  SGN d 141     -37.670  -2.258  18.900  0.00  0.00     0.067 C 
ATOM     38  O2S SGN d 141     -44.149  -2.962  18.302  0.00  0.00    -0.296 OA
ATOM     39  O3S SGN d 141     -44.100  -4.967  19.526  0.00  0.00    -0.296 OA
ATOM     40  S1  SGN d 141     -44.037  -4.380  18.221  0.00  0.00     0.156 S 
ATOM     41  O4S SGN d 141     -37.661  -0.921  22.368  0.00  0.00    -0.572 OA
ATOM     42  O5  SGN d 141     -39.442  -3.706  19.349  0.00  0.00    -0.349 OA
ATOM     43  C4  SGN d 141     -39.590  -2.411  17.325  0.00  0.00     0.089 C 
ATOM     44  O6S SGN d 141     -36.302  -2.755  21.587  0.00  0.00    -0.572 OA
ATOM     45  S2  SGN d 141     -37.024  -1.542  21.226  0.00  0.00     0.251 S 
ATOM     46  C5  SGN d 141     -38.694  -3.185  18.285  0.00  0.00     0.090 C 
ATOM     47  H   SGN d 141     -39.530  -1.633  15.539  0.00  0.00     0.210 HD
ATOM     48  H   SGN d 141     -41.945  -2.920  18.614  0.00  0.00     0.076 H 
ATOM     49  H   SGN d 141     -40.519  -4.061  16.269  0.00  0.00     0.089 H 
ATOM     50  H   SGN d 141     -41.780  -1.540  16.602  0.00  0.00     0.210 HD
ATOM     51  H   SGN d 141     -44.905  -4.486  16.446  0.00  0.00     0.231 HD
ATOM     52  H   SGN d 141     -42.314  -5.558  17.893  0.00  0.00     0.140 HD
ATOM     53  H   SGN d 141     -41.081  -4.792  19.834  0.00  0.00     0.131 H 
ATOM     54  H   SGN d 141     -36.725  -2.756  18.966  0.00  0.00     0.080 H 
ATOM     55  H   SGN d 141     -37.555  -1.383  18.296  0.00  0.00     0.080 H 
ATOM     56  H   SGN d 141     -44.105  -2.582  17.411  0.00  0.00     0.231 HD
ATOM     57  H   SGN d 141     -44.022  -5.931  19.451  0.00  0.00     0.231 HD
ATOM     58  H   SGN d 141     -39.868  -1.547  17.889  0.00  0.00     0.091 H 
ATOM     59  H   SGN d 141     -38.229  -3.968  17.724  0.00  0.00     0.090 H 
ENDROOT
TORSDOF 18
ENDMDL
MODEL 52
REMARK VINA RESULT:      -4.7      3.845      8.070
REMARK  0 active torsions:
REMARK  status: ('A' for Active; 'I' for Inactive)
REMARK       I    between atoms: C2_2  and  O2_34 
REMARK       I    between atoms: O4_3  and  C4_29 
REMARK       I    between atoms: O6_4  and  C6_17 
REMARK       I    between atoms: O6_4  and  S2_35 
REMARK       I    between atoms: C2_6  and  N_15 
REMARK       I    between atoms: O1_8  and  C1_19 
REMARK       I    between atoms: O1_8  and  C7_24 
REMARK       I    between atoms: C4_9  and  O4_22 
REMARK       I    between atoms: C3_10  and  O3_13 
REMARK       I    between atoms: O1S_14  and  S1_21 
REMARK       I    between atoms: N_15  and  S1_21 
REMARK       I    between atoms: C1_16  and  O4_22 
REMARK       I    between atoms: C6_17  and  C5_36 
REMARK       I    between atoms: O2S_18  and  S1_21 
REMARK       I    between atoms: O3S_20  and  S1_21 
REMARK       I    between atoms: O3_23  and  C3_25 
REMARK       I    between atoms: S_28  and  O2_34 
REMARK       I    between atoms: C6_32  and  C5_33 
ROOT
ATOM      1  OS3 IDY d 142     -37.538 -11.278  17.931  0.00  0.00    -0.572 OA
ATOM      2  C2  IDY d 142     -37.170  -8.540  17.026  0.00  0.00     0.134 C 
ATOM      3  O61 IDY d 142     -41.619  -5.839  16.020  0.00  0.00    -0.646 OA
ATOM      4  O1  IDY d 142     -38.285  -9.552  15.295  0.00  0.00    -0.363 OA
ATOM      5  C4  IDY d 142     -38.297  -6.289  16.800  0.00  0.00     0.103 C 
ATOM      6  OS2 IDY d 142     -35.387 -10.518  18.717  0.00  0.00    -0.572 OA
ATOM      7  O62 IDY d 142     -41.164  -6.888  18.050  0.00  0.00    -0.646 OA
ATOM      8  C1  IDY d 142     -38.430  -9.127  16.446  0.00  0.00     0.160 C 
ATOM      9  O4  IDY d 142     -38.592  -5.727  18.168  0.00  0.00    -0.348 OA
ATOM     10  O3  IDY d 142     -36.289  -6.853  15.548  0.00  0.00    -0.390 OA
ATOM     11  C7  IDY d 142     -37.811  -9.764  13.979  0.00  0.00     0.007 C 
ATOM     12  C3  IDY d 142     -37.025  -7.066  16.822  0.00  0.00     0.094 C 
ATOM     13  S   IDY d 142     -36.846 -10.304  18.840  0.00  0.00     0.252 S 
ATOM     14  O5  IDY d 142     -39.614  -8.393  16.684  0.00  0.00    -0.340 OA
ATOM     15  C6  IDY d 142     -40.780  -6.386  16.861  0.00  0.00     0.206 C 
ATOM     16  C5  IDY d 142     -39.531  -7.015  16.287  0.00  0.00     0.152 C 
ATOM     17  O2  IDY d 142     -37.153  -8.882  18.429  0.00  0.00    -0.244 OA
ATOM     18  OS1 IDY d 142     -37.253 -10.486  20.242  0.00  0.00    -0.572 OA
ATOM     19  H   IDY d 142     -36.330  -8.955  16.508  0.00  0.00     0.097 H 
ATOM     20  H   IDY d 142     -38.107  -5.519  16.082  0.00  0.00     0.092 H 
ATOM     21  H   IDY d 142     -38.611 -10.003  17.034  0.00  0.00     0.133 H 
ATOM     22  H   IDY d 142     -35.461  -7.359  15.564  0.00  0.00     0.210 HD
ATOM     23  H   IDY d 142     -38.403 -10.518  13.503  0.00  0.00     0.066 H 
ATOM     24  H   IDY d 142     -36.790 -10.083  14.015  0.00  0.00     0.066 H 
ATOM     25  H   IDY d 142     -37.880  -8.853  13.423  0.00  0.00     0.066 H 
ATOM     26  H   IDY d 142     -36.497  -6.693  17.675  0.00  0.00     0.091 H 
ATOM     27  H   IDY d 142     -39.452  -6.945  15.222  0.00  0.00     0.104 H 
ATOM     28  O4  SGN d 141     -41.237  -4.814  21.388  0.00  0.00    -0.390 OA
ATOM     29  O6  SGN d 141     -39.851  -1.450  19.386  0.00  0.00    -0.254 OA
ATOM     30  O5S SGN d 141     -41.521   0.200  19.397  0.00  0.00    -0.572 OA
ATOM     31  C2  SGN d 141     -37.791  -5.229  20.378  0.00  0.00     0.081 C 
ATOM     32  C3  SGN d 141     -39.132  -5.542  21.013  0.00  0.00     0.083 C 
ATOM     33  O3  SGN d 141     -39.045  -5.835  22.389  0.00  0.00    -0.391 OA
ATOM     34  O1S SGN d 141     -35.075  -7.645  21.291  0.00  0.00    -0.296 OA
ATOM     35  N   SGN d 141     -36.972  -6.413  20.346  0.00  0.00    -0.210 NA
ATOM     36  C1  SGN d 141     -38.022  -4.715  18.956  0.00  0.00     0.150 C 
ATOM     37  C6  SGN d 141     -40.832  -2.454  19.495  0.00  0.00     0.067 C 
ATOM     38  O2S SGN d 141     -35.595  -5.464  22.014  0.00  0.00    -0.296 OA
ATOM     39  O3S SGN d 141     -34.668  -5.760  19.875  0.00  0.00    -0.296 OA
ATOM     40  S1  SGN d 141     -35.496  -6.337  20.892  0.00  0.00     0.156 S 
ATOM     41  O4S SGN d 141     -39.259   0.875  18.985  0.00  0.00    -0.572 OA
ATOM     42  O5  SGN d 141     -38.874  -3.585  18.927  0.00  0.00    -0.349 OA
ATOM     43  C4  SGN d 141     -40.016  -4.330  20.910  0.00  0.00     0.089 C 
ATOM     44  O6S SGN d 141     -40.500  -0.342  17.311  0.00  0.00    -0.572 OA
ATOM     45  S2  SGN d 141     -40.284  -0.117  18.735  0.00  0.00     0.251 S 
ATOM     46  C5  SGN d 141     -40.140  -3.798  19.488  0.00  0.00     0.090 C 
ATOM     47  H   SGN d 141     -41.123  -5.143  22.293  0.00  0.00     0.210 HD
ATOM     48  H   SGN d 141     -37.288  -4.481  20.954  0.00  0.00     0.076 H 
ATOM     49  H   SGN d 141     -39.512  -6.397  20.494  0.00  0.00     0.089 H 
ATOM     50  H   SGN d 141     -38.700  -5.062  22.863  0.00  0.00     0.210 HD
ATOM     51  H   SGN d 141     -35.673  -7.981  21.979  0.00  0.00     0.231 HD
ATOM     52  H   SGN d 141     -36.915  -6.711  19.372  0.00  0.00     0.140 HD
ATOM     53  H   SGN d 141     -37.067  -4.428  18.569  0.00  0.00     0.131 H 
ATOM     54  H   SGN d 141     -41.508  -2.391  18.667  0.00  0.00     0.080 H 
ATOM     55  H   SGN d 141     -41.387  -2.331  20.401  0.00  0.00     0.080 H 
ATOM     56  H   SGN d 141     -36.158  -5.871  22.691  0.00  0.00     0.231 HD
ATOM     57  H   SGN d 141     -34.612  -6.367  19.121  0.00  0.00     0.231 HD
ATOM     58  H   SGN d 141     -39.633  -3.493  21.455  0.00  0.00     0.091 H 
ATOM     59  H   SGN d 141     -40.691  -4.521  18.925  0.00  0.00     0.090 H 
ENDROOT
TORSDOF 18
ENDMDL
MODEL 53
REMARK VINA RESULT:      -4.6      3.405      6.244
REMARK  0 active torsions:
REMARK  status: ('A' for Active; 'I' for Inactive)
REMARK       I    between atoms: C2_2  and  O2_34 
REMARK       I    between atoms: O4_3  and  C4_29 
REMARK       I    between atoms: O6_4  and  C6_17 
REMARK       I    between atoms: O6_4  and  S2_35 
REMARK       I    between atoms: C2_6  and  N_15 
REMARK       I    between atoms: O1_8  and  C1_19 
REMARK       I    between atoms: O1_8  and  C7_24 
REMARK       I    between atoms: C4_9  and  O4_22 
REMARK       I    between atoms: C3_10  and  O3_13 
REMARK       I    between atoms: O1S_14  and  S1_21 
REMARK       I    between atoms: N_15  and  S1_21 
REMARK       I    between atoms: C1_16  and  O4_22 
REMARK       I    between atoms: C6_17  and  C5_36 
REMARK       I    between atoms: O2S_18  and  S1_21 
REMARK       I    between atoms: O3S_20  and  S1_21 
REMARK       I    between atoms: O3_23  and  C3_25 
REMARK       I    between atoms: S_28  and  O2_34 
REMARK       I    between atoms: C6_32  and  C5_33 
ROOT
ATOM      1  OS3 IDY d 142     -37.012  -6.747  13.289  0.00  0.00    -0.572 OA
ATOM      2  C2  IDY d 142     -38.310  -7.541  15.765  0.00  0.00     0.134 C 
ATOM      3  O61 IDY d 142     -36.894  -4.801  20.078  0.00  0.00    -0.646 OA
ATOM      4  O1  IDY d 142     -36.079  -7.886  16.173  0.00  0.00    -0.363 OA
ATOM      5  C4  IDY d 142     -38.902  -6.781  18.102  0.00  0.00     0.103 C 
ATOM      6  OS2 IDY d 142     -39.103  -7.811  12.724  0.00  0.00    -0.572 OA
ATOM      7  O62 IDY d 142     -37.714  -3.826  18.126  0.00  0.00    -0.646 OA
ATOM      8  C1  IDY d 142     -36.931  -7.000  16.037  0.00  0.00     0.160 C 
ATOM      9  O4  IDY d 142     -39.880  -5.636  18.034  0.00  0.00    -0.348 OA
ATOM     10  O3  IDY d 142     -38.926  -9.130  17.469  0.00  0.00    -0.390 OA
ATOM     11  C7  IDY d 142     -35.437  -9.120  16.430  0.00  0.00     0.007 C 
ATOM     12  C3  IDY d 142     -39.146  -7.741  16.988  0.00  0.00     0.094 C 
ATOM     13  S   IDY d 142     -38.506  -6.632  13.390  0.00  0.00     0.252 S 
ATOM     14  O5  IDY d 142     -36.860  -5.936  16.963  0.00  0.00    -0.340 OA
ATOM     15  C6  IDY d 142     -37.523  -4.887  18.933  0.00  0.00     0.206 C 
ATOM     16  C5  IDY d 142     -37.493  -6.220  18.221  0.00  0.00     0.152 C 
ATOM     17  O2  IDY d 142     -38.942  -6.633  14.837  0.00  0.00    -0.244 OA
ATOM     18  OS1 IDY d 142     -39.000  -5.403  12.750  0.00  0.00    -0.572 OA
ATOM     19  H   IDY d 142     -38.217  -8.525  15.354  0.00  0.00     0.097 H 
ATOM     20  H   IDY d 142     -39.041  -7.376  18.980  0.00  0.00     0.092 H 
ATOM     21  H   IDY d 142     -36.656  -6.502  15.131  0.00  0.00     0.133 H 
ATOM     22  H   IDY d 142     -39.086  -9.753  16.743  0.00  0.00     0.210 HD
ATOM     23  H   IDY d 142     -34.384  -9.015  16.269  0.00  0.00     0.066 H 
ATOM     24  H   IDY d 142     -35.826  -9.869  15.773  0.00  0.00     0.066 H 
ATOM     25  H   IDY d 142     -35.614  -9.409  17.445  0.00  0.00     0.066 H 
ATOM     26  H   IDY d 142     -40.159  -7.558  16.694  0.00  0.00     0.091 H 
ATOM     27  H   IDY d 142     -36.951  -6.984  18.740  0.00  0.00     0.104 H 
ATOM     28  O4  SGN d 141     -40.875  -1.495  18.279  0.00  0.00    -0.390 OA
ATOM     29  O6  SGN d 141     -42.456  -3.758  21.380  0.00  0.00    -0.254 OA
ATOM     30  O5S SGN d 141     -42.533  -2.453  23.330  0.00  0.00    -0.572 OA
ATOM     31  C2  SGN d 141     -41.916  -4.753  17.111  0.00  0.00     0.081 C 
ATOM     32  C3  SGN d 141     -41.371  -3.339  17.072  0.00  0.00     0.083 C 
ATOM     33  O3  SGN d 141     -42.055  -2.500  16.170  0.00  0.00    -0.391 OA
ATOM     34  O1S SGN d 141     -42.499  -6.250  13.725  0.00  0.00    -0.296 OA
ATOM     35  N   SGN d 141     -41.640  -5.423  15.866  0.00  0.00    -0.210 NA
ATOM     36  C1  SGN d 141     -41.258  -5.508  18.267  0.00  0.00     0.150 C 
ATOM     37  C6  SGN d 141     -41.386  -2.983  20.894  0.00  0.00     0.067 C 
ATOM     38  O2S SGN d 141     -43.939  -5.317  15.339  0.00  0.00    -0.296 OA
ATOM     39  O3S SGN d 141     -43.011  -7.438  15.738  0.00  0.00    -0.296 OA
ATOM     40  S1  SGN d 141     -42.814  -6.161  15.118  0.00  0.00     0.156 S 
ATOM     41  O4S SGN d 141     -43.928  -4.397  23.209  0.00  0.00    -0.572 OA
ATOM     42  O5  SGN d 141     -41.449  -4.857  19.509  0.00  0.00    -0.349 OA
ATOM     43  C4  SGN d 141     -41.549  -2.710  18.427  0.00  0.00     0.089 C 
ATOM     44  O6S SGN d 141     -41.540  -4.616  23.472  0.00  0.00    -0.572 OA
ATOM     45  S2  SGN d 141     -42.630  -3.827  22.915  0.00  0.00     0.251 S 
ATOM     46  C5  SGN d 141     -40.961  -3.545  19.558  0.00  0.00     0.090 C 
ATOM     47  H   SGN d 141     -41.274  -0.990  17.553  0.00  0.00     0.210 HD
ATOM     48  H   SGN d 141     -42.976  -4.725  17.256  0.00  0.00     0.076 H 
ATOM     49  H   SGN d 141     -40.349  -3.425  16.769  0.00  0.00     0.089 H 
ATOM     50  H   SGN d 141     -42.982  -2.420  16.442  0.00  0.00     0.210 HD
ATOM     51  H   SGN d 141     -42.378  -5.358  13.363  0.00  0.00     0.231 HD
ATOM     52  H   SGN d 141     -40.920  -6.120  16.055  0.00  0.00     0.140 HD
ATOM     53  H   SGN d 141     -41.723  -6.471  18.316  0.00  0.00     0.131 H 
ATOM     54  H   SGN d 141     -40.567  -3.025  21.582  0.00  0.00     0.080 H 
ATOM     55  H   SGN d 141     -41.690  -1.963  20.785  0.00  0.00     0.080 H 
ATOM     56  H   SGN d 141     -43.788  -4.459  14.912  0.00  0.00     0.231 HD
ATOM     57  H   SGN d 141     -42.235  -7.998  15.578  0.00  0.00     0.231 HD
ATOM     58  H   SGN d 141     -42.578  -2.610  18.702  0.00  0.00     0.091 H 
ATOM     59  H   SGN d 141     -39.897  -3.528  19.444  0.00  0.00     0.090 H 
ENDROOT
TORSDOF 18
ENDMDL
MODEL 54
REMARK VINA RESULT:      -4.6      2.945      7.851
REMARK  0 active torsions:
REMARK  status: ('A' for Active; 'I' for Inactive)
REMARK       I    between atoms: C2_2  and  O2_34 
REMARK       I    between atoms: O4_3  and  C4_29 
REMARK       I    between atoms: O6_4  and  C6_17 
REMARK       I    between atoms: O6_4  and  S2_35 
REMARK       I    between atoms: C2_6  and  N_15 
REMARK       I    between atoms: O1_8  and  C1_19 
REMARK       I    between atoms: O1_8  and  C7_24 
REMARK       I    between atoms: C4_9  and  O4_22 
REMARK       I    between atoms: C3_10  and  O3_13 
REMARK       I    between atoms: O1S_14  and  S1_21 
REMARK       I    between atoms: N_15  and  S1_21 
REMARK       I    between atoms: C1_16  and  O4_22 
REMARK       I    between atoms: C6_17  and  C5_36 
REMARK       I    between atoms: O2S_18  and  S1_21 
REMARK       I    between atoms: O3S_20  and  S1_21 
REMARK       I    between atoms: O3_23  and  C3_25 
REMARK       I    between atoms: S_28  and  O2_34 
REMARK       I    between atoms: C6_32  and  C5_33 
ROOT
ATOM      1  OS3 IDY d 142     -41.392  -9.800  14.871  0.00  0.00    -0.572 OA
ATOM      2  C2  IDY d 142     -40.243  -7.133  14.991  0.00  0.00     0.134 C 
ATOM      3  O61 IDY d 142     -43.592  -3.251  16.342  0.00  0.00    -0.646 OA
ATOM      4  O1  IDY d 142     -41.877  -6.961  13.390  0.00  0.00    -0.363 OA
ATOM      5  C4  IDY d 142     -40.549  -4.812  15.945  0.00  0.00     0.103 C 
ATOM      6  OS2 IDY d 142     -39.021 -10.028  15.256  0.00  0.00    -0.572 OA
ATOM      7  O62 IDY d 142     -43.234  -5.166  17.621  0.00  0.00    -0.646 OA
ATOM      8  C1  IDY d 142     -41.698  -7.068  14.608  0.00  0.00     0.160 C 
ATOM      9  O4  IDY d 142     -40.432  -4.858  17.447  0.00  0.00    -0.348 OA
ATOM     10  O3  IDY d 142     -39.061  -5.245  14.070  0.00  0.00    -0.390 OA
ATOM     11  C7  IDY d 142     -41.701  -6.681  12.014  0.00  0.00     0.007 C 
ATOM     12  C3  IDY d 142     -39.633  -5.808  15.321  0.00  0.00     0.094 C 
ATOM     13  S   IDY d 142     -40.283  -9.535  15.848  0.00  0.00     0.252 S 
ATOM     14  O5  IDY d 142     -42.511  -6.245  15.420  0.00  0.00    -0.340 OA
ATOM     15  C6  IDY d 142     -42.878  -4.303  16.650  0.00  0.00     0.206 C 
ATOM     16  C5  IDY d 142     -42.018  -4.903  15.561  0.00  0.00     0.152 C 
ATOM     17  O2  IDY d 142     -40.141  -8.051  16.101  0.00  0.00    -0.244 OA
ATOM     18  OS1 IDY d 142     -40.520 -10.210  17.133  0.00  0.00    -0.572 OA
ATOM     19  H   IDY d 142     -39.681  -7.470  14.145  0.00  0.00     0.097 H 
ATOM     20  H   IDY d 142     -40.214  -3.878  15.545  0.00  0.00     0.092 H 
ATOM     21  H   IDY d 142     -42.081  -8.037  14.851  0.00  0.00     0.133 H 
ATOM     22  H   IDY d 142     -38.465  -5.895  13.666  0.00  0.00     0.210 HD
ATOM     23  H   IDY d 142     -42.578  -6.973  11.475  0.00  0.00     0.066 H 
ATOM     24  H   IDY d 142     -40.857  -7.226  11.644  0.00  0.00     0.066 H 
ATOM     25  H   IDY d 142     -41.533  -5.633  11.882  0.00  0.00     0.066 H 
ATOM     26  H   IDY d 142     -38.891  -5.996  16.070  0.00  0.00     0.091 H 
ATOM     27  H   IDY d 142     -42.076  -4.392  14.623  0.00  0.00     0.104 H 
ATOM     28  O4  SGN d 141     -42.105  -4.835  21.371  0.00  0.00    -0.390 OA
ATOM     29  O6  SGN d 141     -39.956  -1.397  20.473  0.00  0.00    -0.254 OA
ATOM     30  O5S SGN d 141     -40.938   0.436  21.562  0.00  0.00    -0.572 OA
ATOM     31  C2  SGN d 141     -39.196  -5.605  19.368  0.00  0.00     0.081 C 
ATOM     32  C3  SGN d 141     -40.456  -5.822  20.184  0.00  0.00     0.083 C 
ATOM     33  O3  SGN d 141     -40.275  -6.703  21.269  0.00  0.00    -0.391 OA
ATOM     34  O1S SGN d 141     -37.372  -8.768  18.521  0.00  0.00    -0.296 OA
ATOM     35  N   SGN d 141     -38.847  -6.816  18.670  0.00  0.00    -0.210 NA
ATOM     36  C1  SGN d 141     -39.441  -4.477  18.366  0.00  0.00     0.150 C 
ATOM     37  C6  SGN d 141     -41.195  -2.066  20.466  0.00  0.00     0.067 C 
ATOM     38  O2S SGN d 141     -37.002  -7.078  20.120  0.00  0.00    -0.296 OA
ATOM     39  O3S SGN d 141     -36.553  -6.619  17.860  0.00  0.00    -0.296 OA
ATOM     40  S1  SGN d 141     -37.371  -7.360  18.773  0.00  0.00     0.156 S 
ATOM     41  O4S SGN d 141     -38.667   0.636  20.823  0.00  0.00    -0.572 OA
ATOM     42  O5  SGN d 141     -39.848  -3.278  18.998  0.00  0.00    -0.349 OA
ATOM     43  C4  SGN d 141     -40.875  -4.511  20.791  0.00  0.00     0.089 C 
ATOM     44  O6S SGN d 141     -40.480   0.636  19.230  0.00  0.00    -0.572 OA
ATOM     45  S2  SGN d 141     -39.995   0.148  20.515  0.00  0.00     0.251 S 
ATOM     46  C5  SGN d 141     -41.014  -3.393  19.766  0.00  0.00     0.090 C 
ATOM     47  H   SGN d 141     -41.980  -5.547  22.018  0.00  0.00     0.210 HD
ATOM     48  H   SGN d 141     -38.388  -5.340  20.018  0.00  0.00     0.076 H 
ATOM     49  H   SGN d 141     -41.177  -6.234  19.511  0.00  0.00     0.089 H 
ATOM     50  H   SGN d 141     -39.621  -6.333  21.882  0.00  0.00     0.210 HD
ATOM     51  H   SGN d 141     -37.942  -9.213  19.170  0.00  0.00     0.231 HD
ATOM     52  H   SGN d 141     -39.038  -6.656  17.681  0.00  0.00     0.140 HD
ATOM     53  H   SGN d 141     -38.513  -4.296  17.866  0.00  0.00     0.131 H 
ATOM     54  H   SGN d 141     -41.920  -1.477  19.943  0.00  0.00     0.080 H 
ATOM     55  H   SGN d 141     -41.536  -2.221  21.468  0.00  0.00     0.080 H 
ATOM     56  H   SGN d 141     -37.565  -7.588  20.723  0.00  0.00     0.231 HD
ATOM     57  H   SGN d 141     -36.819  -6.823  16.949  0.00  0.00     0.231 HD
ATOM     58  H   SGN d 141     -40.153  -4.127  21.480  0.00  0.00     0.091 H 
ATOM     59  H   SGN d 141     -41.856  -3.631  19.149  0.00  0.00     0.090 H 
ENDROOT
TORSDOF 18
ENDMDL
MODEL 55
REMARK VINA RESULT:      -4.6      2.837      4.455
REMARK  0 active torsions:
REMARK  status: ('A' for Active; 'I' for Inactive)
REMARK       I    between atoms: C2_2  and  O2_34 
REMARK       I    between atoms: O4_3  and  C4_29 
REMARK       I    between atoms: O6_4  and  C6_17 
REMARK       I    between atoms: O6_4  and  S2_35 
REMARK       I    between atoms: C2_6  and  N_15 
REMARK       I    between atoms: O1_8  and  C1_19 
REMARK       I    between atoms: O1_8  and  C7_24 
REMARK       I    between atoms: C4_9  and  O4_22 
REMARK       I    between atoms: C3_10  and  O3_13 
REMARK       I    between atoms: O1S_14  and  S1_21 
REMARK       I    between atoms: N_15  and  S1_21 
REMARK       I    between atoms: C1_16  and  O4_22 
REMARK       I    between atoms: C6_17  and  C5_36 
REMARK       I    between atoms: O2S_18  and  S1_21 
REMARK       I    between atoms: O3S_20  and  S1_21 
REMARK       I    between atoms: O3_23  and  C3_25 
REMARK       I    between atoms: S_28  and  O2_34 
REMARK       I    between atoms: C6_32  and  C5_33 
ROOT
ATOM      1  OS3 IDY d 142     -38.626  -2.675  22.556  0.00  0.00    -0.572 OA
ATOM      2  C2  IDY d 142     -39.319  -2.403  19.746  0.00  0.00     0.134 C 
ATOM      3  O61 IDY d 142     -37.124  -5.964  16.488  0.00  0.00    -0.646 OA
ATOM      4  O1  IDY d 142     -37.039  -2.148  19.783  0.00  0.00    -0.363 OA
ATOM      5  C4  IDY d 142     -39.422  -3.624  17.535  0.00  0.00     0.103 C 
ATOM      6  OS2 IDY d 142     -40.740  -1.520  22.419  0.00  0.00    -0.572 OA
ATOM      7  O62 IDY d 142     -38.391  -6.521  18.363  0.00  0.00    -0.646 OA
ATOM      8  C1  IDY d 142     -37.939  -2.988  19.899  0.00  0.00     0.160 C 
ATOM      9  O4  IDY d 142     -40.442  -4.731  17.610  0.00  0.00    -0.348 OA
ATOM     10  O3  IDY d 142     -39.478  -1.196  17.667  0.00  0.00    -0.390 OA
ATOM     11  C7  IDY d 142     -36.301  -0.992  19.434  0.00  0.00     0.007 C 
ATOM     12  C3  IDY d 142     -39.859  -2.457  18.353  0.00  0.00     0.094 C 
ATOM     13  S   IDY d 142     -40.066  -2.809  22.151  0.00  0.00     0.252 S 
ATOM     14  O5  IDY d 142     -37.717  -4.218  19.242  0.00  0.00    -0.340 OA
ATOM     15  C6  IDY d 142     -37.982  -5.647  17.424  0.00  0.00     0.206 C 
ATOM     16  C5  IDY d 142     -38.048  -4.197  17.845  0.00  0.00     0.152 C 
ATOM     17  O2  IDY d 142     -40.177  -3.103  20.672  0.00  0.00    -0.244 OA
ATOM     18  OS1 IDY d 142     -40.742  -3.882  22.896  0.00  0.00    -0.572 OA
ATOM     19  H   IDY d 142     -39.273  -1.357  19.963  0.00  0.00     0.097 H 
ATOM     20  H   IDY d 142     -39.340  -3.221  16.547  0.00  0.00     0.092 H 
ATOM     21  H   IDY d 142     -37.890  -3.291  20.924  0.00  0.00     0.133 H 
ATOM     22  H   IDY d 142     -39.763  -0.438  18.201  0.00  0.00     0.210 HD
ATOM     23  H   IDY d 142     -35.315  -1.062  19.843  0.00  0.00     0.066 H 
ATOM     24  H   IDY d 142     -36.790  -0.125  19.826  0.00  0.00     0.066 H 
ATOM     25  H   IDY d 142     -36.241  -0.916  18.369  0.00  0.00     0.066 H 
ATOM     26  H   IDY d 142     -40.919  -2.577  18.445  0.00  0.00     0.091 H 
ATOM     27  H   IDY d 142     -37.372  -3.554  17.318  0.00  0.00     0.104 H 
ATOM     28  O4  SGN d 141     -41.545  -8.836  17.979  0.00  0.00    -0.390 OA
ATOM     29  O6  SGN d 141     -42.312  -7.253  14.218  0.00  0.00    -0.254 OA
ATOM     30  O5S SGN d 141     -42.022  -8.928  12.599  0.00  0.00    -0.572 OA
ATOM     31  C2  SGN d 141     -42.668  -5.408  18.215  0.00  0.00     0.081 C 
ATOM     32  C3  SGN d 141     -42.208  -6.784  18.654  0.00  0.00     0.083 C 
ATOM     33  O3  SGN d 141     -43.108  -7.422  19.531  0.00  0.00    -0.391 OA
ATOM     34  O1S SGN d 141     -43.904  -3.252  21.021  0.00  0.00    -0.296 OA
ATOM     35  N   SGN d 141     -42.638  -4.498  19.332  0.00  0.00    -0.210 NA
ATOM     36  C1  SGN d 141     -41.741  -4.904  17.108  0.00  0.00     0.150 C 
ATOM     37  C6  SGN d 141     -41.409  -7.912  15.074  0.00  0.00     0.067 C 
ATOM     38  O2S SGN d 141     -45.000  -4.496  19.346  0.00  0.00    -0.296 OA
ATOM     39  O3S SGN d 141     -43.912  -2.500  18.749  0.00  0.00    -0.296 OA
ATOM     40  S1  SGN d 141     -43.912  -3.623  19.639  0.00  0.00     0.156 S 
ATOM     41  O4S SGN d 141     -43.321  -7.000  12.019  0.00  0.00    -0.572 OA
ATOM     42  O5  SGN d 141     -41.687  -5.795  16.009  0.00  0.00    -0.349 OA
ATOM     43  C4  SGN d 141     -42.116  -7.676  17.447  0.00  0.00     0.089 C 
ATOM     44  O6S SGN d 141     -40.925  -6.838  12.254  0.00  0.00    -0.572 OA
ATOM     45  S2  SGN d 141     -42.145  -7.498  12.701  0.00  0.00     0.251 S 
ATOM     46  C5  SGN d 141     -41.259  -7.089  16.332  0.00  0.00     0.090 C 
ATOM     47  H   SGN d 141     -42.115  -9.183  18.684  0.00  0.00     0.210 HD
ATOM     48  H   SGN d 141     -43.671  -5.465  17.847  0.00  0.00     0.076 H 
ATOM     49  H   SGN d 141     -41.273  -6.638  19.153  0.00  0.00     0.089 H 
ATOM     50  H   SGN d 141     -43.958  -7.556  19.082  0.00  0.00     0.210 HD
ATOM     51  H   SGN d 141     -43.905  -4.053  21.570  0.00  0.00     0.231 HD
ATOM     52  H   SGN d 141     -41.864  -3.854  19.172  0.00  0.00     0.140 HD
ATOM     53  H   SGN d 141     -42.141  -3.972  16.767  0.00  0.00     0.131 H 
ATOM     54  H   SGN d 141     -40.459  -8.010  14.590  0.00  0.00     0.080 H 
ATOM     55  H   SGN d 141     -41.775  -8.888  15.313  0.00  0.00     0.080 H 
ATOM     56  H   SGN d 141     -44.984  -5.249  19.958  0.00  0.00     0.231 HD
ATOM     57  H   SGN d 141     -43.166  -1.918  18.963  0.00  0.00     0.231 HD
ATOM     58  H   SGN d 141     -43.063  -7.831  16.976  0.00  0.00     0.091 H 
ATOM     59  H   SGN d 141     -40.247  -7.082  16.679  0.00  0.00     0.090 H 
ENDROOT
TORSDOF 18
ENDMDL
MODEL 56
REMARK VINA RESULT:      -4.6      2.230      3.240
REMARK  0 active torsions:
REMARK  status: ('A' for Active; 'I' for Inactive)
REMARK       I    between atoms: C2_2  and  O2_34 
REMARK       I    between atoms: O4_3  and  C4_29 
REMARK       I    between atoms: O6_4  and  C6_17 
REMARK       I    between atoms: O6_4  and  S2_35 
REMARK       I    between atoms: C2_6  and  N_15 
REMARK       I    between atoms: O1_8  and  C1_19 
REMARK       I    between atoms: O1_8  and  C7_24 
REMARK       I    between atoms: C4_9  and  O4_22 
REMARK       I    between atoms: C3_10  and  O3_13 
REMARK       I    between atoms: O1S_14  and  S1_21 
REMARK       I    between atoms: N_15  and  S1_21 
REMARK       I    between atoms: C1_16  and  O4_22 
REMARK       I    between atoms: C6_17  and  C5_36 
REMARK       I    between atoms: O2S_18  and  S1_21 
REMARK       I    between atoms: O3S_20  and  S1_21 
REMARK       I    between atoms: O3_23  and  C3_25 
REMARK       I    between atoms: S_28  and  O2_34 
REMARK       I    between atoms: C6_32  and  C5_33 
ROOT
ATOM      1  OS3 IDY d 142     -41.215   0.771  19.000  0.00  0.00    -0.572 OA
ATOM      2  C2  IDY d 142     -40.553  -1.448  20.756  0.00  0.00     0.134 C 
ATOM      3  O61 IDY d 142     -44.629  -4.500  22.231  0.00  0.00    -0.646 OA
ATOM      4  O1  IDY d 142     -42.025  -0.189  21.984  0.00  0.00    -0.363 OA
ATOM      5  C4  IDY d 142     -41.342  -3.696  21.602  0.00  0.00     0.103 C 
ATOM      6  OS2 IDY d 142     -38.889   0.224  18.662  0.00  0.00    -0.572 OA
ATOM      7  O62 IDY d 142     -44.080  -4.044  20.013  0.00  0.00    -0.646 OA
ATOM      8  C1  IDY d 142     -41.953  -0.960  21.021  0.00  0.00     0.160 C 
ATOM      9  O4  IDY d 142     -41.367  -4.688  20.467  0.00  0.00    -0.348 OA
ATOM     10  O3  IDY d 142     -39.624  -2.418  22.757  0.00  0.00    -0.390 OA
ATOM     11  C7  IDY d 142     -41.764   0.494  23.196  0.00  0.00     0.007 C 
ATOM     12  C3  IDY d 142     -40.212  -2.739  21.430  0.00  0.00     0.094 C 
ATOM     13  S   IDY d 142     -40.269  -0.284  18.504  0.00  0.00     0.252 S 
ATOM     14  O5  IDY d 142     -42.969  -1.937  20.941  0.00  0.00    -0.340 OA
ATOM     15  C6  IDY d 142     -43.781  -4.085  21.326  0.00  0.00     0.206 C 
ATOM     16  C5  IDY d 142     -42.728  -3.092  21.762  0.00  0.00     0.152 C 
ATOM     17  O2  IDY d 142     -40.406  -1.548  19.323  0.00  0.00    -0.244 OA
ATOM     18  OS1 IDY d 142     -40.514  -0.611  17.091  0.00  0.00    -0.572 OA
ATOM     19  H   IDY d 142     -39.861  -0.748  21.176  0.00  0.00     0.097 H 
ATOM     20  H   IDY d 142     -41.132  -4.165  22.540  0.00  0.00     0.092 H 
ATOM     21  H   IDY d 142     -42.188  -0.351  20.173  0.00  0.00     0.133 H 
ATOM     22  H   IDY d 142     -38.888  -1.795  22.643  0.00  0.00     0.210 HD
ATOM     23  H   IDY d 142     -42.522   1.231  23.360  0.00  0.00     0.066 H 
ATOM     24  H   IDY d 142     -40.808   0.971  23.138  0.00  0.00     0.066 H 
ATOM     25  H   IDY d 142     -41.765  -0.205  24.006  0.00  0.00     0.066 H 
ATOM     26  H   IDY d 142     -39.527  -3.246  20.783  0.00  0.00     0.091 H 
ATOM     27  H   IDY d 142     -42.779  -2.823  22.796  0.00  0.00     0.104 H 
ATOM     28  O4  SGN d 141     -43.400  -7.002  17.516  0.00  0.00    -0.390 OA
ATOM     29  O6  SGN d 141     -41.788  -9.289  20.584  0.00  0.00    -0.254 OA
ATOM     30  O5S SGN d 141     -43.170 -11.146  20.973  0.00  0.00    -0.572 OA
ATOM     31  C2  SGN d 141     -40.219  -5.670  18.598  0.00  0.00     0.081 C 
ATOM     32  C3  SGN d 141     -41.498  -5.817  17.797  0.00  0.00     0.083 C 
ATOM     33  O3  SGN d 141     -41.278  -5.941  16.410  0.00  0.00    -0.391 OA
ATOM     34  O1S SGN d 141     -37.809  -3.178  17.170  0.00  0.00    -0.296 OA
ATOM     35  N   SGN d 141     -39.602  -4.399  18.313  0.00  0.00    -0.210 NA
ATOM     36  C1  SGN d 141     -40.552  -5.765  20.087  0.00  0.00     0.150 C 
ATOM     37  C6  SGN d 141     -42.888  -8.565  20.087  0.00  0.00     0.067 C 
ATOM     38  O2S SGN d 141     -37.891  -5.533  17.144  0.00  0.00    -0.296 OA
ATOM     39  O3S SGN d 141     -37.306  -4.440  19.140  0.00  0.00    -0.296 OA
ATOM     40  S1  SGN d 141     -38.073  -4.360  17.932  0.00  0.00     0.156 S 
ATOM     41  O4S SGN d 141     -40.904 -11.233  21.749  0.00  0.00    -0.572 OA
ATOM     42  O5  SGN d 141     -41.216  -6.972  20.411  0.00  0.00    -0.349 OA
ATOM     43  C4  SGN d 141     -42.191  -7.084  18.214  0.00  0.00     0.089 C 
ATOM     44  O6S SGN d 141     -42.524  -9.822  22.848  0.00  0.00    -0.572 OA
ATOM     45  S2  SGN d 141     -42.093 -10.421  21.592  0.00  0.00     0.251 S 
ATOM     46  C5  SGN d 141     -42.416  -7.177  19.718  0.00  0.00     0.090 C 
ATOM     47  H   SGN d 141     -43.220  -6.945  16.564  0.00  0.00     0.210 HD
ATOM     48  H   SGN d 141     -39.536  -6.449  18.331  0.00  0.00     0.076 H 
ATOM     49  H   SGN d 141     -42.068  -4.932  17.986  0.00  0.00     0.089 H 
ATOM     50  H   SGN d 141     -40.761  -6.742  16.235  0.00  0.00     0.210 HD
ATOM     51  H   SGN d 141     -38.357  -3.182  16.368  0.00  0.00     0.231 HD
ATOM     52  H   SGN d 141     -39.718  -3.818  19.142  0.00  0.00     0.140 HD
ATOM     53  H   SGN d 141     -39.623  -5.740  20.617  0.00  0.00     0.131 H 
ATOM     54  H   SGN d 141     -43.648  -8.501  20.838  0.00  0.00     0.080 H 
ATOM     55  H   SGN d 141     -43.295  -9.056  19.229  0.00  0.00     0.080 H 
ATOM     56  H   SGN d 141     -38.417  -5.461  16.332  0.00  0.00     0.231 HD
ATOM     57  H   SGN d 141     -37.442  -3.635  19.663  0.00  0.00     0.231 HD
ATOM     58  H   SGN d 141     -41.617  -7.959  17.994  0.00  0.00     0.091 H 
ATOM     59  H   SGN d 141     -43.140  -6.434  19.977  0.00  0.00     0.090 H 
ENDROOT
TORSDOF 18
ENDMDL
MODEL 57
REMARK VINA RESULT:      -4.6      2.516      7.366
REMARK  0 active torsions:
REMARK  status: ('A' for Active; 'I' for Inactive)
REMARK       I    between atoms: C2_2  and  O2_34 
REMARK       I    between atoms: O4_3  and  C4_29 
REMARK       I    between atoms: O6_4  and  C6_17 
REMARK       I    between atoms: O6_4  and  S2_35 
REMARK       I    between atoms: C2_6  and  N_15 
REMARK       I    between atoms: O1_8  and  C1_19 
REMARK       I    between atoms: O1_8  and  C7_24 
REMARK       I    between atoms: C4_9  and  O4_22 
REMARK       I    between atoms: C3_10  and  O3_13 
REMARK       I    between atoms: O1S_14  and  S1_21 
REMARK       I    between atoms: N_15  and  S1_21 
REMARK       I    between atoms: C1_16  and  O4_22 
REMARK       I    between atoms: C6_17  and  C5_36 
REMARK       I    between atoms: O2S_18  and  S1_21 
REMARK       I    between atoms: O3S_20  and  S1_21 
REMARK       I    between atoms: O3_23  and  C3_25 
REMARK       I    between atoms: S_28  and  O2_34 
REMARK       I    between atoms: C6_32  and  C5_33 
ROOT
ATOM      1  OS3 IDY d 142     -43.474  -8.989  17.192  0.00  0.00    -0.572 OA
ATOM      2  C2  IDY d 142     -41.930  -7.861  19.381  0.00  0.00     0.134 C 
ATOM      3  O61 IDY d 142     -36.795  -7.013  18.369  0.00  0.00    -0.646 OA
ATOM      4  O1  IDY d 142     -40.907  -9.871  18.959  0.00  0.00    -0.363 OA
ATOM      5  C4  IDY d 142     -39.820  -6.596  19.960  0.00  0.00     0.103 C 
ATOM      6  OS2 IDY d 142     -44.998  -7.818  18.650  0.00  0.00    -0.572 OA
ATOM      7  O62 IDY d 142     -38.536  -6.155  17.079  0.00  0.00    -0.646 OA
ATOM      8  C1  IDY d 142     -41.061  -8.730  18.510  0.00  0.00     0.160 C 
ATOM      9  O4  IDY d 142     -39.881  -5.208  19.376  0.00  0.00    -0.348 OA
ATOM     10  O3  IDY d 142     -41.077  -7.835  21.635  0.00  0.00    -0.390 OA
ATOM     11  C7  IDY d 142     -40.817 -10.985  19.827  0.00  0.00     0.007 C 
ATOM     12  C3  IDY d 142     -41.178  -7.043  20.381  0.00  0.00     0.094 C 
ATOM     13  S   IDY d 142     -43.857  -7.639  17.725  0.00  0.00     0.252 S 
ATOM     14  O5  IDY d 142     -39.899  -8.114  17.994  0.00  0.00    -0.340 OA
ATOM     15  C6  IDY d 142     -38.058  -6.707  18.211  0.00  0.00     0.206 C 
ATOM     16  C5  IDY d 142     -39.072  -7.505  18.998  0.00  0.00     0.152 C 
ATOM     17  O2  IDY d 142     -42.711  -7.028  18.498  0.00  0.00    -0.244 OA
ATOM     18  OS1 IDY d 142     -44.240  -6.718  16.644  0.00  0.00    -0.572 OA
ATOM     19  H   IDY d 142     -42.552  -8.492  19.981  0.00  0.00     0.097 H 
ATOM     20  H   IDY d 142     -39.254  -6.625  20.868  0.00  0.00     0.092 H 
ATOM     21  H   IDY d 142     -41.633  -8.869  17.617  0.00  0.00     0.133 H 
ATOM     22  H   IDY d 142     -41.962  -8.124  21.907  0.00  0.00     0.210 HD
ATOM     23  H   IDY d 142     -40.574 -11.860  19.262  0.00  0.00     0.066 H 
ATOM     24  H   IDY d 142     -41.755 -11.129  20.322  0.00  0.00     0.066 H 
ATOM     25  H   IDY d 142     -40.054 -10.808  20.556  0.00  0.00     0.066 H 
ATOM     26  H   IDY d 142     -41.732  -6.135  20.506  0.00  0.00     0.091 H 
ATOM     27  H   IDY d 142     -38.645  -8.259  19.627  0.00  0.00     0.104 H 
ATOM     28  O4  SGN d 141     -38.796  -2.280  16.468  0.00  0.00    -0.390 OA
ATOM     29  O6  SGN d 141     -37.217  -1.530  20.234  0.00  0.00    -0.254 OA
ATOM     30  O5S SGN d 141     -35.120  -0.501  20.003  0.00  0.00    -0.572 OA
ATOM     31  C2  SGN d 141     -41.141  -3.185  19.066  0.00  0.00     0.081 C 
ATOM     32  C3  SGN d 141     -40.580  -2.962  17.675  0.00  0.00     0.083 C 
ATOM     33  O3  SGN d 141     -41.376  -2.114  16.880  0.00  0.00    -0.391 OA
ATOM     34  O1S SGN d 141     -44.804  -3.982  19.116  0.00  0.00    -0.296 OA
ATOM     35  N   SGN d 141     -42.356  -3.957  18.990  0.00  0.00    -0.210 NA
ATOM     36  C1  SGN d 141     -40.104  -3.928  19.908  0.00  0.00     0.150 C 
ATOM     37  C6  SGN d 141     -37.063  -2.143  18.977  0.00  0.00     0.067 C 
ATOM     38  O2S SGN d 141     -43.578  -2.025  19.585  0.00  0.00    -0.296 OA
ATOM     39  O3S SGN d 141     -43.521  -3.797  21.128  0.00  0.00    -0.296 OA
ATOM     40  S1  SGN d 141     -43.639  -3.440  19.745  0.00  0.00     0.156 S 
ATOM     41  O4S SGN d 141     -36.267  -0.284  22.096  0.00  0.00    -0.572 OA
ATOM     42  O5  SGN d 141     -38.868  -3.240  19.965  0.00  0.00    -0.349 OA
ATOM     43  C4  SGN d 141     -39.246  -2.277  17.792  0.00  0.00     0.089 C 
ATOM     44  O6S SGN d 141     -35.284  -2.390  21.449  0.00  0.00    -0.572 OA
ATOM     45  S2  SGN d 141     -35.923  -1.162  20.996  0.00  0.00     0.251 S 
ATOM     46  C5  SGN d 141     -38.277  -3.004  18.716  0.00  0.00     0.090 C 
ATOM     47  H   SGN d 141     -39.434  -1.810  15.909  0.00  0.00     0.210 HD
ATOM     48  H   SGN d 141     -41.364  -2.242  19.519  0.00  0.00     0.076 H 
ATOM     49  H   SGN d 141     -40.528  -3.928  17.219  0.00  0.00     0.089 H 
ATOM     50  H   SGN d 141     -41.425  -1.237  17.290  0.00  0.00     0.210 HD
ATOM     51  H   SGN d 141     -44.826  -3.706  18.186  0.00  0.00     0.231 HD
ATOM     52  H   SGN d 141     -42.145  -4.883  19.359  0.00  0.00     0.140 HD
ATOM     53  H   SGN d 141     -40.497  -3.996  20.900  0.00  0.00     0.131 H 
ATOM     54  H   SGN d 141     -36.182  -2.751  18.976  0.00  0.00     0.080 H 
ATOM     55  H   SGN d 141     -36.968  -1.400  18.213  0.00  0.00     0.080 H 
ATOM     56  H   SGN d 141     -43.659  -1.803  18.644  0.00  0.00     0.231 HD
ATOM     57  H   SGN d 141     -43.564  -4.761  21.218  0.00  0.00     0.231 HD
ATOM     58  H   SGN d 141     -39.320  -1.303  18.227  0.00  0.00     0.091 H 
ATOM     59  H   SGN d 141     -38.012  -3.924  18.238  0.00  0.00     0.090 H 
ENDROOT
TORSDOF 18
ENDMDL
MODEL 58
REMARK VINA RESULT:      -4.6      2.481      3.430
REMARK  0 active torsions:
REMARK  status: ('A' for Active; 'I' for Inactive)
REMARK       I    between atoms: C2_2  and  O2_34 
REMARK       I    between atoms: O4_3  and  C4_29 
REMARK       I    between atoms: O6_4  and  C6_17 
REMARK       I    between atoms: O6_4  and  S2_35 
REMARK       I    between atoms: C2_6  and  N_15 
REMARK       I    between atoms: O1_8  and  C1_19 
REMARK       I    between atoms: O1_8  and  C7_24 
REMARK       I    between atoms: C4_9  and  O4_22 
REMARK       I    between atoms: C3_10  and  O3_13 
REMARK       I    between atoms: O1S_14  and  S1_21 
REMARK       I    between atoms: N_15  and  S1_21 
REMARK       I    between atoms: C1_16  and  O4_22 
REMARK       I    between atoms: C6_17  and  C5_36 
REMARK       I    between atoms: O2S_18  and  S1_21 
REMARK       I    between atoms: O3S_20  and  S1_21 
REMARK       I    between atoms: O3_23  and  C3_25 
REMARK       I    between atoms: S_28  and  O2_34 
REMARK       I    between atoms: C6_32  and  C5_33 
ROOT
ATOM      1  OS3 IDY d 142     -39.401   0.854  19.412  0.00  0.00    -0.572 OA
ATOM      2  C2  IDY d 142     -38.561  -1.900  19.015  0.00  0.00     0.134 C 
ATOM      3  O61 IDY d 142     -36.893  -4.439  23.360  0.00  0.00    -0.646 OA
ATOM      4  O1  IDY d 142     -36.682  -0.857  19.817  0.00  0.00    -0.363 OA
ATOM      5  C4  IDY d 142     -38.167  -4.109  20.179  0.00  0.00     0.103 C 
ATOM      6  OS2 IDY d 142     -40.503   0.019  17.435  0.00  0.00    -0.572 OA
ATOM      7  O62 IDY d 142     -38.969  -3.396  23.177  0.00  0.00    -0.646 OA
ATOM      8  C1  IDY d 142     -37.798  -1.270  20.150  0.00  0.00     0.160 C 
ATOM      9  O4  IDY d 142     -39.474  -4.653  20.698  0.00  0.00    -0.348 OA
ATOM     10  O3  IDY d 142     -37.233  -3.627  17.984  0.00  0.00    -0.390 OA
ATOM     11  C7  IDY d 142     -35.453  -0.670  19.141  0.00  0.00     0.007 C 
ATOM     12  C3  IDY d 142     -38.381  -3.380  18.896  0.00  0.00     0.094 C 
ATOM     13  S   IDY d 142     -40.404  -0.140  18.902  0.00  0.00     0.252 S 
ATOM     14  O5  IDY d 142     -37.853  -1.958  21.383  0.00  0.00    -0.340 OA
ATOM     15  C6  IDY d 142     -37.852  -3.919  22.637  0.00  0.00     0.206 C 
ATOM     16  C5  IDY d 142     -37.474  -3.340  21.292  0.00  0.00     0.152 C 
ATOM     17  O2  IDY d 142     -39.951  -1.552  19.197  0.00  0.00    -0.244 OA
ATOM     18  OS1 IDY d 142     -41.728   0.065  19.509  0.00  0.00    -0.572 OA
ATOM     19  H   IDY d 142     -38.176  -1.520  18.091  0.00  0.00     0.097 H 
ATOM     20  H   IDY d 142     -37.486  -4.889  19.912  0.00  0.00     0.092 H 
ATOM     21  H   IDY d 142     -38.351  -0.385  20.385  0.00  0.00     0.133 H 
ATOM     22  H   IDY d 142     -37.374  -3.152  17.151  0.00  0.00     0.210 HD
ATOM     23  H   IDY d 142     -34.893   0.103  19.626  0.00  0.00     0.066 H 
ATOM     24  H   IDY d 142     -35.642  -0.389  18.126  0.00  0.00     0.066 H 
ATOM     25  H   IDY d 142     -34.893  -1.581  19.160  0.00  0.00     0.066 H 
ATOM     26  H   IDY d 142     -39.304  -3.767  18.518  0.00  0.00     0.091 H 
ATOM     27  H   IDY d 142     -36.433  -3.419  21.056  0.00  0.00     0.104 H 
ATOM     28  O4  SGN d 141     -42.257  -5.449  23.831  0.00  0.00    -0.390 OA
ATOM     29  O6  SGN d 141     -40.487  -8.872  22.287  0.00  0.00    -0.254 OA
ATOM     30  O5S SGN d 141     -40.245 -10.459  24.000  0.00  0.00    -0.572 OA
ATOM     31  C2  SGN d 141     -41.780  -5.168  20.260  0.00  0.00     0.081 C 
ATOM     32  C3  SGN d 141     -42.205  -4.801  21.668  0.00  0.00     0.083 C 
ATOM     33  O3  SGN d 141     -43.578  -4.505  21.779  0.00  0.00    -0.391 OA
ATOM     34  O1S SGN d 141     -43.094  -2.849  17.624  0.00  0.00    -0.296 OA
ATOM     35  N   SGN d 141     -41.872  -4.015  19.400  0.00  0.00    -0.210 NA
ATOM     36  C1  SGN d 141     -40.339  -5.680  20.292  0.00  0.00     0.150 C 
ATOM     37  C6  SGN d 141     -40.446  -7.832  23.234  0.00  0.00     0.067 C 
ATOM     38  O2S SGN d 141     -43.729  -5.005  18.329  0.00  0.00    -0.296 OA
ATOM     39  O3S SGN d 141     -41.755  -4.756  17.078  0.00  0.00    -0.296 OA
ATOM     40  S1  SGN d 141     -42.635  -4.143  18.028  0.00  0.00     0.156 S 
ATOM     41  O4S SGN d 141     -40.179 -11.220  21.729  0.00  0.00    -0.572 OA
ATOM     42  O5  SGN d 141     -40.182  -6.778  21.171  0.00  0.00    -0.349 OA
ATOM     43  C4  SGN d 141     -41.969  -5.980  22.571  0.00  0.00     0.089 C 
ATOM     44  O6S SGN d 141     -38.338  -9.967  22.656  0.00  0.00    -0.572 OA
ATOM     45  S2  SGN d 141     -39.777 -10.192  22.666  0.00  0.00     0.251 S 
ATOM     46  C5  SGN d 141     -40.544  -6.515  22.499  0.00  0.00     0.090 C 
ATOM     47  H   SGN d 141     -43.169  -5.119  23.843  0.00  0.00     0.210 HD
ATOM     48  H   SGN d 141     -42.425  -5.931  19.877  0.00  0.00     0.076 H 
ATOM     49  H   SGN d 141     -41.635  -3.936  21.933  0.00  0.00     0.089 H 
ATOM     50  H   SGN d 141     -44.099  -5.288  21.539  0.00  0.00     0.210 HD
ATOM     51  H   SGN d 141     -43.683  -2.488  18.305  0.00  0.00     0.231 HD
ATOM     52  H   SGN d 141     -40.918  -3.725  19.186  0.00  0.00     0.140 HD
ATOM     53  H   SGN d 141     -40.101  -6.005  19.301  0.00  0.00     0.131 H 
ATOM     54  H   SGN d 141     -39.526  -7.875  23.779  0.00  0.00     0.080 H 
ATOM     55  H   SGN d 141     -41.258  -7.930  23.924  0.00  0.00     0.080 H 
ATOM     56  H   SGN d 141     -44.313  -4.574  18.972  0.00  0.00     0.231 HD
ATOM     57  H   SGN d 141     -41.018  -4.156  16.886  0.00  0.00     0.231 HD
ATOM     58  H   SGN d 141     -42.566  -6.828  22.306  0.00  0.00     0.091 H 
ATOM     59  H   SGN d 141     -39.905  -5.775  22.931  0.00  0.00     0.090 H 
ENDROOT
TORSDOF 18
ENDMDL
MODEL 59
REMARK VINA RESULT:      -4.5      3.945      6.772
REMARK  0 active torsions:
REMARK  status: ('A' for Active; 'I' for Inactive)
REMARK       I    between atoms: C2_2  and  O2_34 
REMARK       I    between atoms: O4_3  and  C4_29 
REMARK       I    between atoms: O6_4  and  C6_17 
REMARK       I    between atoms: O6_4  and  S2_35 
REMARK       I    between atoms: C2_6  and  N_15 
REMARK       I    between atoms: O1_8  and  C1_19 
REMARK       I    between atoms: O1_8  and  C7_24 
REMARK       I    between atoms: C4_9  and  O4_22 
REMARK       I    between atoms: C3_10  and  O3_13 
REMARK       I    between atoms: O1S_14  and  S1_21 
REMARK       I    between atoms: N_15  and  S1_21 
REMARK       I    between atoms: C1_16  and  O4_22 
REMARK       I    between atoms: C6_17  and  C5_36 
REMARK       I    between atoms: O2S_18  and  S1_21 
REMARK       I    between atoms: O3S_20  and  S1_21 
REMARK       I    between atoms: O3_23  and  C3_25 
REMARK       I    between atoms: S_28  and  O2_34 
REMARK       I    between atoms: C6_32  and  C5_33 
ROOT
ATOM      1  OS3 IDY d 142     -45.000  -5.918  18.247  0.00  0.00    -0.572 OA
ATOM      2  C2  IDY d 142     -42.235  -6.432  18.981  0.00  0.00     0.134 C 
ATOM      3  O61 IDY d 142     -39.956 -10.571  16.576  0.00  0.00    -0.646 OA
ATOM      4  O1  IDY d 142     -43.336  -8.351  19.588  0.00  0.00    -0.363 OA
ATOM      5  C4  IDY d 142     -40.098  -7.564  18.245  0.00  0.00     0.103 C 
ATOM      6  OS2 IDY d 142     -44.047  -3.851  19.049  0.00  0.00    -0.572 OA
ATOM      7  O62 IDY d 142     -40.970  -8.804  15.445  0.00  0.00    -0.646 OA
ATOM      8  C1  IDY d 142     -42.933  -7.714  18.608  0.00  0.00     0.160 C 
ATOM      9  O4  IDY d 142     -39.573  -6.901  16.996  0.00  0.00    -0.348 OA
ATOM     10  O3  IDY d 142     -40.464  -6.883  20.551  0.00  0.00    -0.390 OA
ATOM     11  C7  IDY d 142     -43.495  -8.869  20.895  0.00  0.00     0.007 C 
ATOM     12  C3  IDY d 142     -40.753  -6.559  19.130  0.00  0.00     0.094 C 
ATOM     13  S   IDY d 142     -43.971  -4.860  17.970  0.00  0.00     0.252 S 
ATOM     14  O5  IDY d 142     -42.315  -8.477  17.593  0.00  0.00    -0.340 OA
ATOM     15  C6  IDY d 142     -40.427  -9.351  16.549  0.00  0.00     0.206 C 
ATOM     16  C5  IDY d 142     -40.933  -8.772  17.851  0.00  0.00     0.152 C 
ATOM     17  O2  IDY d 142     -42.582  -5.456  17.974  0.00  0.00    -0.244 OA
ATOM     18  OS1 IDY d 142     -44.199  -4.209  16.671  0.00  0.00    -0.572 OA
ATOM     19  H   IDY d 142     -42.566  -6.132  19.953  0.00  0.00     0.097 H 
ATOM     20  H   IDY d 142     -39.309  -7.956  18.852  0.00  0.00     0.092 H 
ATOM     21  H   IDY d 142     -43.826  -7.396  18.111  0.00  0.00     0.133 H 
ATOM     22  H   IDY d 142     -40.891  -6.228  21.126  0.00  0.00     0.210 HD
ATOM     23  H   IDY d 142     -44.298  -9.577  20.903  0.00  0.00     0.066 H 
ATOM     24  H   IDY d 142     -43.717  -8.070  21.571  0.00  0.00     0.066 H 
ATOM     25  H   IDY d 142     -42.591  -9.353  21.199  0.00  0.00     0.066 H 
ATOM     26  H   IDY d 142     -40.337  -5.621  18.824  0.00  0.00     0.091 H 
ATOM     27  H   IDY d 142     -40.849  -9.432  18.689  0.00  0.00     0.104 H 
ATOM     28  O4  SGN d 141     -38.931  -6.755  12.781  0.00  0.00    -0.390 OA
ATOM     29  O6  SGN d 141     -35.441  -7.294  14.965  0.00  0.00    -0.254 OA
ATOM     30  O5S SGN d 141     -33.954  -8.628  13.732  0.00  0.00    -0.572 OA
ATOM     31  C2  SGN d 141     -39.016  -4.860  15.858  0.00  0.00     0.081 C 
ATOM     32  C3  SGN d 141     -39.457  -5.404  14.513  0.00  0.00     0.083 C 
ATOM     33  O3  SGN d 141     -39.748  -4.397  13.570  0.00  0.00    -0.391 OA
ATOM     34  O1S SGN d 141     -41.173  -2.083  17.155  0.00  0.00    -0.296 OA
ATOM     35  N   SGN d 141     -40.118  -4.198  16.508  0.00  0.00    -0.210 NA
ATOM     36  C1  SGN d 141     -38.518  -6.018  16.723  0.00  0.00     0.150 C 
ATOM     37  C6  SGN d 141     -36.533  -7.880  14.297  0.00  0.00     0.067 C 
ATOM     38  O2S SGN d 141     -39.054  -2.125  16.126  0.00  0.00    -0.296 OA
ATOM     39  O3S SGN d 141     -39.250  -2.855  18.351  0.00  0.00    -0.296 OA
ATOM     40  S1  SGN d 141     -39.908  -2.746  17.083  0.00  0.00     0.156 S 
ATOM     41  O4S SGN d 141     -33.068  -7.278  15.502  0.00  0.00    -0.572 OA
ATOM     42  O5  SGN d 141     -37.472  -6.740  16.101  0.00  0.00    -0.349 OA
ATOM     43  C4  SGN d 141     -38.332  -6.205  13.918  0.00  0.00     0.089 C 
ATOM     44  O6S SGN d 141     -34.386  -9.238  15.997  0.00  0.00    -0.572 OA
ATOM     45  S2  SGN d 141     -34.150  -8.138  15.070  0.00  0.00     0.251 S 
ATOM     46  C5  SGN d 141     -37.805  -7.286  14.855  0.00  0.00     0.090 C 
ATOM     47  H   SGN d 141     -39.254  -6.042  12.208  0.00  0.00     0.210 HD
ATOM     48  H   SGN d 141     -38.227  -4.150  15.717  0.00  0.00     0.076 H 
ATOM     49  H   SGN d 141     -40.340  -5.977  14.702  0.00  0.00     0.089 H 
ATOM     50  H   SGN d 141     -38.949  -3.875  13.397  0.00  0.00     0.210 HD
ATOM     51  H   SGN d 141     -41.567  -2.041  16.269  0.00  0.00     0.231 HD
ATOM     52  H   SGN d 141     -40.403  -4.790  17.288  0.00  0.00     0.140 HD
ATOM     53  H   SGN d 141     -38.140  -5.591  17.629  0.00  0.00     0.131 H 
ATOM     54  H   SGN d 141     -36.528  -8.939  14.456  0.00  0.00     0.080 H 
ATOM     55  H   SGN d 141     -36.467  -7.691  13.246  0.00  0.00     0.080 H 
ATOM     56  H   SGN d 141     -39.516  -2.060  15.275  0.00  0.00     0.231 HD
ATOM     57  H   SGN d 141     -39.844  -3.280  18.988  0.00  0.00     0.231 HD
ATOM     58  H   SGN d 141     -37.467  -5.611  13.714  0.00  0.00     0.091 H 
ATOM     59  H   SGN d 141     -38.574  -8.023  14.953  0.00  0.00     0.090 H 
ENDROOT
TORSDOF 18
ENDMDL
MODEL 60
REMARK VINA RESULT:      -4.4      3.053      7.001
REMARK  0 active torsions:
REMARK  status: ('A' for Active; 'I' for Inactive)
REMARK       I    between atoms: C2_2  and  O2_34 
REMARK       I    between atoms: O4_3  and  C4_29 
REMARK       I    between atoms: O6_4  and  C6_17 
REMARK       I    between atoms: O6_4  and  S2_35 
REMARK       I    between atoms: C2_6  and  N_15 
REMARK       I    between atoms: O1_8  and  C1_19 
REMARK       I    between atoms: O1_8  and  C7_24 
REMARK       I    between atoms: C4_9  and  O4_22 
REMARK       I    between atoms: C3_10  and  O3_13 
REMARK       I    between atoms: O1S_14  and  S1_21 
REMARK       I    between atoms: N_15  and  S1_21 
REMARK       I    between atoms: C1_16  and  O4_22 
REMARK       I    between atoms: C6_17  and  C5_36 
REMARK       I    between atoms: O2S_18  and  S1_21 
REMARK       I    between atoms: O3S_20  and  S1_21 
REMARK       I    between atoms: O3_23  and  C3_25 
REMARK       I    between atoms: S_28  and  O2_34 
REMARK       I    between atoms: C6_32  and  C5_33 
ROOT
ATOM      1  OS3 IDY d 142     -38.325  -8.008  15.629  0.00  0.00    -0.572 OA
ATOM      2  C2  IDY d 142     -39.194  -5.314  16.289  0.00  0.00     0.134 C 
ATOM      3  O61 IDY d 142     -44.178  -4.877  18.044  0.00  0.00    -0.646 OA
ATOM      4  O1  IDY d 142     -40.634  -5.970  14.628  0.00  0.00    -0.363 OA
ATOM      5  C4  IDY d 142     -40.885  -3.973  17.604  0.00  0.00     0.103 C 
ATOM      6  OS2 IDY d 142     -36.364  -6.699  16.138  0.00  0.00    -0.572 OA
ATOM      7  O62 IDY d 142     -42.580  -6.281  18.996  0.00  0.00    -0.646 OA
ATOM      8  C1  IDY d 142     -40.357  -6.148  15.819  0.00  0.00     0.160 C 
ATOM      9  O4  IDY d 142     -40.677  -4.196  19.081  0.00  0.00    -0.348 OA
ATOM     10  O3  IDY d 142     -39.590  -2.990  15.794  0.00  0.00    -0.390 OA
ATOM     11  C7  IDY d 142     -40.765  -5.405  13.337  0.00  0.00     0.007 C 
ATOM     12  C3  IDY d 142     -39.579  -3.999  16.886  0.00  0.00     0.094 C 
ATOM     13  S   IDY d 142     -37.604  -7.263  16.714  0.00  0.00     0.252 S 
ATOM     14  O5  IDY d 142     -41.460  -6.216  16.700  0.00  0.00    -0.340 OA
ATOM     15  C6  IDY d 142     -42.933  -5.242  18.216  0.00  0.00     0.206 C 
ATOM     16  C5  IDY d 142     -41.956  -4.930  17.105  0.00  0.00     0.152 C 
ATOM     17  O2  IDY d 142     -38.451  -6.121  17.229  0.00  0.00    -0.244 OA
ATOM     18  OS1 IDY d 142     -37.265  -8.142  17.844  0.00  0.00    -0.572 OA
ATOM     19  H   IDY d 142     -38.599  -5.047  15.441  0.00  0.00     0.097 H 
ATOM     20  H   IDY d 142     -41.266  -2.995  17.396  0.00  0.00     0.092 H 
ATOM     21  H   IDY d 142     -39.998  -7.155  15.863  0.00  0.00     0.133 H 
ATOM     22  H   IDY d 142     -38.739  -3.008  15.328  0.00  0.00     0.210 HD
ATOM     23  H   IDY d 142     -41.269  -6.097  12.695  0.00  0.00     0.066 H 
ATOM     24  H   IDY d 142     -39.795  -5.191  12.941  0.00  0.00     0.066 H 
ATOM     25  H   IDY d 142     -41.332  -4.500  13.400  0.00  0.00     0.066 H 
ATOM     26  H   IDY d 142     -38.853  -3.785  17.642  0.00  0.00     0.091 H 
ATOM     27  H   IDY d 142     -42.390  -4.424  16.268  0.00  0.00     0.104 H 
ATOM     28  O4  SGN d 141     -41.722  -5.965  22.819  0.00  0.00    -0.390 OA
ATOM     29  O6  SGN d 141     -42.400  -1.871  22.684  0.00  0.00    -0.254 OA
ATOM     30  O5S SGN d 141     -44.275  -1.353  23.999  0.00  0.00    -0.572 OA
ATOM     31  C2  SGN d 141     -39.143  -4.281  20.928  0.00  0.00     0.081 C 
ATOM     32  C3  SGN d 141     -39.903  -5.407  21.602  0.00  0.00     0.083 C 
ATOM     33  O3  SGN d 141     -39.126  -6.131  22.528  0.00  0.00    -0.391 OA
ATOM     34  O1S SGN d 141     -35.749  -5.273  19.682  0.00  0.00    -0.296 OA
ATOM     35  N   SGN d 141     -38.129  -4.822  20.058  0.00  0.00    -0.210 NA
ATOM     36  C1  SGN d 141     -40.124  -3.432  20.120  0.00  0.00     0.150 C 
ATOM     37  C6  SGN d 141     -42.899  -3.170  22.472  0.00  0.00     0.067 C 
ATOM     38  O2S SGN d 141     -36.479  -4.068  21.571  0.00  0.00    -0.296 OA
ATOM     39  O3S SGN d 141     -36.575  -3.038  19.461  0.00  0.00    -0.296 OA
ATOM     40  S1  SGN d 141     -36.654  -4.279  20.173  0.00  0.00     0.156 S 
ATOM     41  O4S SGN d 141     -42.736   0.407  23.471  0.00  0.00    -0.572 OA
ATOM     42  O5  SGN d 141     -41.177  -2.925  20.919  0.00  0.00    -0.349 OA
ATOM     43  C4  SGN d 141     -41.040  -4.821  22.393  0.00  0.00     0.089 C 
ATOM     44  O6S SGN d 141     -44.198  -0.494  21.775  0.00  0.00    -0.572 OA
ATOM     45  S2  SGN d 141     -43.437  -0.765  22.988  0.00  0.00     0.251 S 
ATOM     46  C5  SGN d 141     -41.937  -3.907  21.568  0.00  0.00     0.090 C 
ATOM     47  H   SGN d 141     -41.124  -6.523  23.341  0.00  0.00     0.210 HD
ATOM     48  H   SGN d 141     -38.668  -3.674  21.670  0.00  0.00     0.076 H 
ATOM     49  H   SGN d 141     -40.218  -6.062  20.817  0.00  0.00     0.089 H 
ATOM     50  H   SGN d 141     -38.839  -5.539  23.242  0.00  0.00     0.210 HD
ATOM     51  H   SGN d 141     -35.850  -6.086  20.202  0.00  0.00     0.231 HD
ATOM     52  H   SGN d 141     -38.436  -4.653  19.101  0.00  0.00     0.140 HD
ATOM     53  H   SGN d 141     -39.571  -2.605  19.727  0.00  0.00     0.131 H 
ATOM     54  H   SGN d 141     -43.862  -3.117  22.008  0.00  0.00     0.080 H 
ATOM     55  H   SGN d 141     -42.995  -3.685  23.405  0.00  0.00     0.080 H 
ATOM     56  H   SGN d 141     -36.536  -4.918  22.035  0.00  0.00     0.231 HD
ATOM     57  H   SGN d 141     -36.697  -3.200  18.513  0.00  0.00     0.231 HD
ATOM     58  H   SGN d 141     -40.706  -4.189  23.189  0.00  0.00     0.091 H 
ATOM     59  H   SGN d 141     -42.453  -4.522  20.862  0.00  0.00     0.090 H 
ENDROOT
TORSDOF 18
ENDMDL
MODEL 61
REMARK VINA RESULT:      -4.4      2.778      7.097
REMARK  0 active torsions:
REMARK  status: ('A' for Active; 'I' for Inactive)
REMARK       I    between atoms: C2_2  and  O2_34 
REMARK       I    between atoms: O4_3  and  C4_29 
REMARK       I    between atoms: O6_4  and  C6_17 
REMARK       I    between atoms: O6_4  and  S2_35 
REMARK       I    between atoms: C2_6  and  N_15 
REMARK       I    between atoms: O1_8  and  C1_19 
REMARK       I    between atoms: O1_8  and  C7_24 
REMARK       I    between atoms: C4_9  and  O4_22 
REMARK       I    between atoms: C3_10  and  O3_13 
REMARK       I    between atoms: O1S_14  and  S1_21 
REMARK       I    between atoms: N_15  and  S1_21 
REMARK       I    between atoms: C1_16  and  O4_22 
REMARK       I    between atoms: C6_17  and  C5_36 
REMARK       I    between atoms: O2S_18  and  S1_21 
REMARK       I    between atoms: O3S_20  and  S1_21 
REMARK       I    between atoms: O3_23  and  C3_25 
REMARK       I    between atoms: S_28  and  O2_34 
REMARK       I    between atoms: C6_32  and  C5_33 
ROOT
ATOM      1  OS3 IDY d 142     -43.668  -5.213  15.221  0.00  0.00    -0.572 OA
ATOM      2  C2  IDY d 142     -42.377  -6.076  17.677  0.00  0.00     0.134 C 
ATOM      3  O61 IDY d 142     -37.216  -7.222  17.274  0.00  0.00    -0.646 OA
ATOM      4  O1  IDY d 142     -42.113  -7.858  16.255  0.00  0.00    -0.363 OA
ATOM      5  C4  IDY d 142     -40.146  -6.322  18.841  0.00  0.00     0.103 C 
ATOM      6  OS2 IDY d 142     -44.940  -4.339  17.076  0.00  0.00    -0.572 OA
ATOM      7  O62 IDY d 142     -38.152  -5.187  16.633  0.00  0.00    -0.646 OA
ATOM      8  C1  IDY d 142     -41.717  -6.709  16.479  0.00  0.00     0.160 C 
ATOM      9  O4  IDY d 142     -39.543  -4.961  19.081  0.00  0.00    -0.348 OA
ATOM     10  O3  IDY d 142     -42.131  -7.504  19.603  0.00  0.00    -0.390 OA
ATOM     11  C7  IDY d 142     -42.654  -9.157  16.402  0.00  0.00     0.007 C 
ATOM     12  C3  IDY d 142     -41.631  -6.261  18.960  0.00  0.00     0.094 C 
ATOM     13  S   IDY d 142     -43.632  -4.269  16.388  0.00  0.00     0.252 S 
ATOM     14  O5  IDY d 142     -40.323  -6.508  16.369  0.00  0.00    -0.340 OA
ATOM     15  C6  IDY d 142     -38.196  -6.356  17.300  0.00  0.00     0.206 C 
ATOM     16  C5  IDY d 142     -39.589  -6.888  17.544  0.00  0.00     0.152 C 
ATOM     17  O2  IDY d 142     -42.557  -4.677  17.369  0.00  0.00    -0.244 OA
ATOM     18  OS1 IDY d 142     -43.376  -2.885  15.959  0.00  0.00    -0.572 OA
ATOM     19  H   IDY d 142     -43.312  -6.567  17.851  0.00  0.00     0.097 H 
ATOM     20  H   IDY d 142     -39.863  -7.025  19.596  0.00  0.00     0.092 H 
ATOM     21  H   IDY d 142     -42.073  -6.137  15.647  0.00  0.00     0.133 H 
ATOM     22  H   IDY d 142     -43.098  -7.462  19.680  0.00  0.00     0.210 HD
ATOM     23  H   IDY d 142     -42.630  -9.662  15.459  0.00  0.00     0.066 H 
ATOM     24  H   IDY d 142     -43.665  -9.086  16.744  0.00  0.00     0.066 H 
ATOM     25  H   IDY d 142     -42.075  -9.706  17.114  0.00  0.00     0.066 H 
ATOM     26  H   IDY d 142     -41.817  -5.385  19.546  0.00  0.00     0.091 H 
ATOM     27  H   IDY d 142     -39.638  -7.949  17.679  0.00  0.00     0.104 H 
ATOM     28  O4  SGN d 141     -36.790  -1.834  18.167  0.00  0.00    -0.390 OA
ATOM     29  O6  SGN d 141     -35.978  -3.749  21.760  0.00  0.00    -0.254 OA
ATOM     30  O5S SGN d 141     -33.658  -3.784  22.112  0.00  0.00    -0.572 OA
ATOM     31  C2  SGN d 141     -39.843  -2.718  19.888  0.00  0.00     0.081 C 
ATOM     32  C3  SGN d 141     -38.929  -2.137  18.827  0.00  0.00     0.083 C 
ATOM     33  O3  SGN d 141     -39.138  -0.761  18.601  0.00  0.00    -0.391 OA
ATOM     34  O1S SGN d 141     -43.438  -1.728  19.504  0.00  0.00    -0.296 OA
ATOM     35  N   SGN d 141     -41.203  -2.731  19.413  0.00  0.00    -0.210 NA
ATOM     36  C1  SGN d 141     -39.389  -4.142  20.209  0.00  0.00     0.150 C 
ATOM     37  C6  SGN d 141     -35.774  -3.687  20.369  0.00  0.00     0.067 C 
ATOM     38  O2S SGN d 141     -41.716  -1.004  20.940  0.00  0.00    -0.296 OA
ATOM     39  O3S SGN d 141     -42.692  -3.109  21.310  0.00  0.00    -0.296 OA
ATOM     40  S1  SGN d 141     -42.338  -2.129  20.326  0.00  0.00     0.156 S 
ATOM     41  O4S SGN d 141     -35.097  -4.105  24.000  0.00  0.00    -0.572 OA
ATOM     42  O5  SGN d 141     -38.036  -4.192  20.624  0.00  0.00    -0.349 OA
ATOM     43  C4  SGN d 141     -37.504  -2.261  19.290  0.00  0.00     0.089 C 
ATOM     44  O6S SGN d 141     -34.853  -5.836  22.336  0.00  0.00    -0.572 OA
ATOM     45  S2  SGN d 141     -34.859  -4.403  22.603  0.00  0.00     0.251 S 
ATOM     46  C5  SGN d 141     -37.125  -3.681  19.690  0.00  0.00     0.090 C 
ATOM     47  H   SGN d 141     -37.054  -0.928  17.941  0.00  0.00     0.210 HD
ATOM     48  H   SGN d 141     -39.795  -2.116  20.772  0.00  0.00     0.076 H 
ATOM     49  H   SGN d 141     -39.137  -2.678  17.928  0.00  0.00     0.089 H 
ATOM     50  H   SGN d 141     -38.949  -0.267  19.414  0.00  0.00     0.210 HD
ATOM     51  H   SGN d 141     -43.136  -1.066  18.861  0.00  0.00     0.231 HD
ATOM     52  H   SGN d 141     -41.448  -3.705  19.236  0.00  0.00     0.140 HD
ATOM     53  H   SGN d 141     -40.001  -4.491  21.015  0.00  0.00     0.131 H 
ATOM     54  H   SGN d 141     -35.211  -4.539  20.048  0.00  0.00     0.080 H 
ATOM     55  H   SGN d 141     -35.231  -2.801  20.115  0.00  0.00     0.080 H 
ATOM     56  H   SGN d 141     -41.484  -0.352  20.260  0.00  0.00     0.231 HD
ATOM     57  H   SGN d 141     -43.113  -3.867  20.875  0.00  0.00     0.231 HD
ATOM     58  H   SGN d 141     -37.307  -1.694  20.176  0.00  0.00     0.091 H 
ATOM     59  H   SGN d 141     -37.119  -4.271  18.798  0.00  0.00     0.090 H 
ENDROOT
TORSDOF 18
ENDMDL
MODEL 62
REMARK VINA RESULT:      -4.4      3.366      5.927
REMARK  0 active torsions:
REMARK  status: ('A' for Active; 'I' for Inactive)
REMARK       I    between atoms: C2_2  and  O2_34 
REMARK       I    between atoms: O4_3  and  C4_29 
REMARK       I    between atoms: O6_4  and  C6_17 
REMARK       I    between atoms: O6_4  and  S2_35 
REMARK       I    between atoms: C2_6  and  N_15 
REMARK       I    between atoms: O1_8  and  C1_19 
REMARK       I    between atoms: O1_8  and  C7_24 
REMARK       I    between atoms: C4_9  and  O4_22 
REMARK       I    between atoms: C3_10  and  O3_13 
REMARK       I    between atoms: O1S_14  and  S1_21 
REMARK       I    between atoms: N_15  and  S1_21 
REMARK       I    between atoms: C1_16  and  O4_22 
REMARK       I    between atoms: C6_17  and  C5_36 
REMARK       I    between atoms: O2S_18  and  S1_21 
REMARK       I    between atoms: O3S_20  and  S1_21 
REMARK       I    between atoms: O3_23  and  C3_25 
REMARK       I    between atoms: S_28  and  O2_34 
REMARK       I    between atoms: C6_32  and  C5_33 
ROOT
ATOM      1  OS3 IDY d 142     -38.740  -2.315  22.841  0.00  0.00    -0.572 OA
ATOM      2  C2  IDY d 142     -40.630  -3.371  20.900  0.00  0.00     0.134 C 
ATOM      3  O61 IDY d 142     -39.631  -2.163  15.835  0.00  0.00    -0.646 OA
ATOM      4  O1  IDY d 142     -40.769  -1.097  20.631  0.00  0.00    -0.363 OA
ATOM      5  C4  IDY d 142     -40.949  -3.956  18.462  0.00  0.00     0.103 C 
ATOM      6  OS2 IDY d 142     -39.796  -4.257  23.810  0.00  0.00    -0.572 OA
ATOM      7  O62 IDY d 142     -38.101  -3.203  17.252  0.00  0.00    -0.646 OA
ATOM      8  C1  IDY d 142     -40.041  -2.071  20.416  0.00  0.00     0.160 C 
ATOM      9  O4  IDY d 142     -40.030  -5.090  18.085  0.00  0.00    -0.348 OA
ATOM     10  O3  IDY d 142     -42.834  -3.673  19.974  0.00  0.00    -0.390 OA
ATOM     11  C7  IDY d 142     -41.894  -0.273  20.874  0.00  0.00     0.007 C 
ATOM     12  C3  IDY d 142     -41.418  -4.112  19.869  0.00  0.00     0.094 C 
ATOM     13  S   IDY d 142     -38.900  -3.804  22.724  0.00  0.00     0.252 S 
ATOM     14  O5  IDY d 142     -39.429  -2.111  19.143  0.00  0.00    -0.340 OA
ATOM     15  C6  IDY d 142     -39.353  -2.825  16.929  0.00  0.00     0.206 C 
ATOM     16  C5  IDY d 142     -40.277  -2.638  18.110  0.00  0.00     0.152 C 
ATOM     17  O2  IDY d 142     -39.535  -4.168  21.401  0.00  0.00    -0.244 OA
ATOM     18  OS1 IDY d 142     -37.607  -4.498  22.831  0.00  0.00    -0.572 OA
ATOM     19  H   IDY d 142     -41.346  -3.157  21.666  0.00  0.00     0.097 H 
ATOM     20  H   IDY d 142     -41.855  -3.968  17.894  0.00  0.00     0.092 H 
ATOM     21  H   IDY d 142     -39.190  -1.913  21.047  0.00  0.00     0.133 H 
ATOM     22  H   IDY d 142     -43.137  -3.776  20.890  0.00  0.00     0.210 HD
ATOM     23  H   IDY d 142     -41.578   0.745  20.966  0.00  0.00     0.066 H 
ATOM     24  H   IDY d 142     -42.373  -0.581  21.780  0.00  0.00     0.066 H 
ATOM     25  H   IDY d 142     -42.583  -0.360  20.060  0.00  0.00     0.066 H 
ATOM     26  H   IDY d 142     -41.288  -5.153  20.080  0.00  0.00     0.091 H 
ATOM     27  H   IDY d 142     -41.093  -1.968  17.929  0.00  0.00     0.104 H 
ATOM     28  O4  SGN d 141     -36.520  -6.654  16.234  0.00  0.00    -0.390 OA
ATOM     29  O6  SGN d 141     -40.030  -7.750  14.306  0.00  0.00    -0.254 OA
ATOM     30  O5S SGN d 141     -39.626  -7.922  12.000  0.00  0.00    -0.572 OA
ATOM     31  C2  SGN d 141     -39.171  -7.272  18.611  0.00  0.00     0.081 C 
ATOM     32  C3  SGN d 141     -37.791  -6.937  18.079  0.00  0.00     0.083 C 
ATOM     33  O3  SGN d 141     -36.777  -7.774  18.585  0.00  0.00    -0.391 OA
ATOM     34  O1S SGN d 141     -39.282  -7.791  22.322  0.00  0.00    -0.296 OA
ATOM     35  N   SGN d 141     -39.247  -6.960  20.016  0.00  0.00    -0.210 NA
ATOM     36  C1  SGN d 141     -40.212  -6.460  17.841  0.00  0.00     0.150 C 
ATOM     37  C6  SGN d 141     -38.976  -6.826  14.430  0.00  0.00     0.067 C 
ATOM     38  O2S SGN d 141     -39.287  -9.273  20.491  0.00  0.00    -0.296 OA
ATOM     39  O3S SGN d 141     -41.229  -8.033  20.952  0.00  0.00    -0.296 OA
ATOM     40  S1  SGN d 141     -39.797  -8.050  21.013  0.00  0.00     0.156 S 
ATOM     41  O4S SGN d 141     -41.550  -9.029  12.902  0.00  0.00    -0.572 OA
ATOM     42  O5  SGN d 141     -40.140  -6.684  16.445  0.00  0.00    -0.349 OA
ATOM     43  C4  SGN d 141     -37.781  -7.140  16.589  0.00  0.00     0.089 C 
ATOM     44  O6S SGN d 141     -41.495  -6.625  12.713  0.00  0.00    -0.572 OA
ATOM     45  S2  SGN d 141     -40.723  -7.841  12.927  0.00  0.00     0.251 S 
ATOM     46  C5  SGN d 141     -38.896  -6.387  15.874  0.00  0.00     0.090 C 
ATOM     47  H   SGN d 141     -35.836  -7.155  16.705  0.00  0.00     0.210 HD
ATOM     48  H   SGN d 141     -39.361  -8.317  18.483  0.00  0.00     0.076 H 
ATOM     49  H   SGN d 141     -37.597  -5.928  18.377  0.00  0.00     0.089 H 
ATOM     50  H   SGN d 141     -36.951  -8.691  18.317  0.00  0.00     0.210 HD
ATOM     51  H   SGN d 141     -38.312  -7.815  22.299  0.00  0.00     0.231 HD
ATOM     52  H   SGN d 141     -39.846  -6.141  20.108  0.00  0.00     0.140 HD
ATOM     53  H   SGN d 141     -41.174  -6.780  18.184  0.00  0.00     0.131 H 
ATOM     54  H   SGN d 141     -39.163  -5.978  13.803  0.00  0.00     0.080 H 
ATOM     55  H   SGN d 141     -38.053  -7.277  14.130  0.00  0.00     0.080 H 
ATOM     56  H   SGN d 141     -38.318  -9.267  20.541  0.00  0.00     0.231 HD
ATOM     57  H   SGN d 141     -41.558  -7.194  21.310  0.00  0.00     0.231 HD
ATOM     58  H   SGN d 141     -37.953  -8.158  16.311  0.00  0.00     0.091 H 
ATOM     59  H   SGN d 141     -38.677  -5.343  15.956  0.00  0.00     0.090 H 
ENDROOT
TORSDOF 18
ENDMDL
MODEL 63
REMARK VINA RESULT:      -4.4      3.635      8.051
REMARK  0 active torsions:
REMARK  status: ('A' for Active; 'I' for Inactive)
REMARK       I    between atoms: C2_2  and  O2_34 
REMARK       I    between atoms: O4_3  and  C4_29 
REMARK       I    between atoms: O6_4  and  C6_17 
REMARK       I    between atoms: O6_4  and  S2_35 
REMARK       I    between atoms: C2_6  and  N_15 
REMARK       I    between atoms: O1_8  and  C1_19 
REMARK       I    between atoms: O1_8  and  C7_24 
REMARK       I    between atoms: C4_9  and  O4_22 
REMARK       I    between atoms: C3_10  and  O3_13 
REMARK       I    between atoms: O1S_14  and  S1_21 
REMARK       I    between atoms: N_15  and  S1_21 
REMARK       I    between atoms: C1_16  and  O4_22 
REMARK       I    between atoms: C6_17  and  C5_36 
REMARK       I    between atoms: O2S_18  and  S1_21 
REMARK       I    between atoms: O3S_20  and  S1_21 
REMARK       I    between atoms: O3_23  and  C3_25 
REMARK       I    between atoms: S_28  and  O2_34 
REMARK       I    between atoms: C6_32  and  C5_33 
ROOT
ATOM      1  OS3 IDY d 142     -38.724 -11.143  15.580  0.00  0.00    -0.572 OA
ATOM      2  C2  IDY d 142     -37.528  -8.619  16.386  0.00  0.00     0.134 C 
ATOM      3  O61 IDY d 142     -39.736  -4.269  14.311  0.00  0.00    -0.646 OA
ATOM      4  O1  IDY d 142     -37.261  -8.657  14.107  0.00  0.00    -0.363 OA
ATOM      5  C4  IDY d 142     -37.929  -6.131  16.573  0.00  0.00     0.103 C 
ATOM      6  OS2 IDY d 142     -37.628 -11.484  17.702  0.00  0.00    -0.572 OA
ATOM      7  O62 IDY d 142     -40.917  -5.888  15.499  0.00  0.00    -0.646 OA
ATOM      8  C1  IDY d 142     -38.106  -8.515  14.998  0.00  0.00     0.160 C 
ATOM      9  O4  IDY d 142     -39.014  -5.864  17.586  0.00  0.00    -0.348 OA
ATOM     10  O3  IDY d 142     -35.690  -7.081  16.633  0.00  0.00    -0.390 OA
ATOM     11  C7  IDY d 142     -36.043  -8.695  13.389  0.00  0.00     0.007 C 
ATOM     12  C3  IDY d 142     -37.116  -7.312  16.982  0.00  0.00     0.094 C 
ATOM     13  S   IDY d 142     -38.737 -10.770  17.034  0.00  0.00     0.252 S 
ATOM     14  O5  IDY d 142     -39.037  -7.472  14.798  0.00  0.00    -0.340 OA
ATOM     15  C6  IDY d 142     -39.769  -5.288  15.131  0.00  0.00     0.206 C 
ATOM     16  C5  IDY d 142     -38.549  -6.178  15.185  0.00  0.00     0.152 C 
ATOM     17  O2  IDY d 142     -38.516  -9.284  17.203  0.00  0.00    -0.244 OA
ATOM     18  OS1 IDY d 142     -40.011 -11.131  17.675  0.00  0.00    -0.572 OA
ATOM     19  H   IDY d 142     -36.616  -9.177  16.335  0.00  0.00     0.097 H 
ATOM     20  H   IDY d 142     -37.214  -5.337  16.533  0.00  0.00     0.092 H 
ATOM     21  H   IDY d 142     -38.738  -9.374  14.907  0.00  0.00     0.133 H 
ATOM     22  H   IDY d 142     -35.163  -7.850  16.900  0.00  0.00     0.210 HD
ATOM     23  H   IDY d 142     -36.230  -9.019  12.386  0.00  0.00     0.066 H 
ATOM     24  H   IDY d 142     -35.369  -9.376  13.865  0.00  0.00     0.066 H 
ATOM     25  H   IDY d 142     -35.609  -7.717  13.372  0.00  0.00     0.066 H 
ATOM     26  H   IDY d 142     -37.278  -7.397  18.037  0.00  0.00     0.091 H 
ATOM     27  H   IDY d 142     -37.755  -5.876  14.534  0.00  0.00     0.104 H 
ATOM     28  O4  SGN d 141     -43.019  -4.858  18.657  0.00  0.00    -0.390 OA
ATOM     29  O6  SGN d 141     -40.269  -1.888  19.580  0.00  0.00    -0.254 OA
ATOM     30  O5S SGN d 141     -41.291   0.213  19.349  0.00  0.00    -0.572 OA
ATOM     31  C2  SGN d 141     -39.894  -6.284  19.782  0.00  0.00     0.081 C 
ATOM     32  C3  SGN d 141     -41.330  -6.213  19.299  0.00  0.00     0.083 C 
ATOM     33  O3  SGN d 141     -42.242  -6.854  20.161  0.00  0.00    -0.391 OA
ATOM     34  O1S SGN d 141     -38.838  -9.698  20.913  0.00  0.00    -0.296 OA
ATOM     35  N   SGN d 141     -39.416  -7.641  19.711  0.00  0.00    -0.210 NA
ATOM     36  C1  SGN d 141     -39.029  -5.380  18.903  0.00  0.00     0.150 C 
ATOM     37  C6  SGN d 141     -41.163  -2.435  18.641  0.00  0.00     0.067 C 
ATOM     38  O2S SGN d 141     -39.459  -7.742  22.070  0.00  0.00    -0.296 OA
ATOM     39  O3S SGN d 141     -37.361  -7.818  21.015  0.00  0.00    -0.296 OA
ATOM     40  S1  SGN d 141     -38.719  -8.274  20.975  0.00  0.00     0.156 S 
ATOM     41  O4S SGN d 141     -39.303   0.057  20.678  0.00  0.00    -0.572 OA
ATOM     42  O5  SGN d 141     -39.493  -4.043  18.889  0.00  0.00    -0.349 OA
ATOM     43  C4  SGN d 141     -41.758  -4.772  19.253  0.00  0.00     0.089 C 
ATOM     44  O6S SGN d 141     -39.189  -0.131  18.275  0.00  0.00    -0.572 OA
ATOM     45  S2  SGN d 141     -39.982  -0.372  19.473  0.00  0.00     0.251 S 
ATOM     46  C5  SGN d 141     -40.813  -3.892  18.444  0.00  0.00     0.090 C 
ATOM     47  H   SGN d 141     -43.594  -5.423  19.196  0.00  0.00     0.210 HD
ATOM     48  H   SGN d 141     -39.840  -5.955  20.799  0.00  0.00     0.076 H 
ATOM     49  H   SGN d 141     -41.345  -6.697  18.346  0.00  0.00     0.089 H 
ATOM     50  H   SGN d 141     -42.231  -6.417  21.028  0.00  0.00     0.210 HD
ATOM     51  H   SGN d 141     -39.777  -9.943  20.888  0.00  0.00     0.231 HD
ATOM     52  H   SGN d 141     -38.743  -7.681  18.947  0.00  0.00     0.140 HD
ATOM     53  H   SGN d 141     -38.043  -5.390  19.319  0.00  0.00     0.131 H 
ATOM     54  H   SGN d 141     -41.075  -1.912  17.711  0.00  0.00     0.080 H 
ATOM     55  H   SGN d 141     -42.169  -2.342  18.993  0.00  0.00     0.080 H 
ATOM     56  H   SGN d 141     -40.374  -8.061  22.027  0.00  0.00     0.231 HD
ATOM     57  H   SGN d 141     -36.873  -8.189  20.263  0.00  0.00     0.231 HD
ATOM     58  H   SGN d 141     -41.760  -4.311  20.218  0.00  0.00     0.091 H 
ATOM     59  H   SGN d 141     -40.906  -4.184  17.419  0.00  0.00     0.090 H 
ENDROOT
TORSDOF 18
ENDMDL
