REMARK  0 active torsions:
REMARK  status: ('A' for Active; 'I' for Inactive)
REMARK       I    between atoms: C2_2  and  O2_34 
REMARK       I    between atoms: O4_3  and  C4_29 
REMARK       I    between atoms: O6_4  and  C6_17 
REMARK       I    between atoms: O6_4  and  S2_35 
REMARK       I    between atoms: C2_6  and  N_15 
REMARK       I    between atoms: O1_8  and  C1_19 
REMARK       I    between atoms: O1_8  and  C7_24 
REMARK       I    between atoms: C4_9  and  O4_22 
REMARK       I    between atoms: C3_10  and  O3_13 
REMARK       I    between atoms: O1S_14  and  S1_21 
REMARK       I    between atoms: N_15  and  S1_21 
REMARK       I    between atoms: C1_16  and  O4_22 
REMARK       I    between atoms: C6_17  and  C5_36 
REMARK       I    between atoms: O2S_18  and  S1_21 
REMARK       I    between atoms: O3S_20  and  S1_21 
REMARK       I    between atoms: O3_23  and  C3_25 
REMARK       I    between atoms: S_28  and  O2_34 
REMARK       I    between atoms: C6_32  and  C5_33 
ROOT
ATOM      1  OS3 IDY d 142     -39.625   0.999  20.798  0.00  0.00    -0.572 OA
ATOM      2  C2  IDY d 142     -38.137  -1.163  19.549  0.00  0.00     0.134 C 
ATOM      3  O61 IDY d 142     -37.849  -5.661  22.341  0.00  0.00    -0.646 OA
ATOM      4  O1  IDY d 142     -37.000  -0.762  21.501  0.00  0.00    -0.363 OA
ATOM      5  C4  IDY d 142     -37.785  -3.666  19.536  0.00  0.00     0.103 C 
ATOM      6  OS2 IDY d 142     -39.643   1.365  18.413  0.00  0.00    -0.572 OA
ATOM      7  O62 IDY d 142     -39.848  -4.607  21.772  0.00  0.00    -0.646 OA
ATOM      8  C1  IDY d 142     -38.042  -1.250  21.050  0.00  0.00     0.160 C 
ATOM      9  O4  IDY d 142     -39.044  -4.356  19.076  0.00  0.00    -0.348 OA
ATOM     10  O3  IDY d 142     -36.177  -2.136  18.540  0.00  0.00    -0.390 OA
ATOM     11  C7  IDY d 142     -35.673  -0.290  21.637  0.00  0.00     0.007 C 
ATOM     12  C3  IDY d 142     -37.617  -2.365  18.828  0.00  0.00     0.094 C 
ATOM     13  S   IDY d 142     -40.107   0.456  19.484  0.00  0.00     0.252 S 
ATOM     14  O5  IDY d 142     -38.439  -2.480  21.620  0.00  0.00    -0.340 OA
ATOM     15  C6  IDY d 142     -38.525  -4.806  21.617  0.00  0.00     0.206 C 
ATOM     16  C5  IDY d 142     -37.773  -3.621  21.056  0.00  0.00     0.152 C 
ATOM     17  O2  IDY d 142     -39.523  -0.915  19.229  0.00  0.00    -0.244 OA
ATOM     18  OS1 IDY d 142     -41.574   0.357  19.443  0.00  0.00    -0.572 OA
ATOM     19  H   IDY d 142     -37.505  -0.368  19.212  0.00  0.00     0.097 H 
ATOM     20  H   IDY d 142     -36.906  -4.213  19.266  0.00  0.00     0.092 H 
ATOM     21  H   IDY d 142     -38.816  -0.601  21.404  0.00  0.00     0.133 H 
ATOM     22  H   IDY d 142     -36.070  -1.289  18.079  0.00  0.00     0.210 HD
ATOM     23  H   IDY d 142     -35.530   0.093  22.626  0.00  0.00     0.066 H 
ATOM     24  H   IDY d 142     -35.496   0.488  20.924  0.00  0.00     0.066 H 
ATOM     25  H   IDY d 142     -34.989  -1.094  21.464  0.00  0.00     0.066 H 
ATOM     26  H   IDY d 142     -38.208  -2.464  17.941  0.00  0.00     0.091 H 
ATOM     27  H   IDY d 142     -36.733  -3.600  21.309  0.00  0.00     0.104 H 
ATOM     28  O4  SGN d 141     -42.611  -6.583  19.794  0.00  0.00    -0.390 OA
ATOM     29  O6  SGN d 141     -39.694  -8.744  17.779  0.00  0.00    -0.254 OA
ATOM     30  O5S SGN d 141     -39.828 -11.001  18.410  0.00  0.00    -0.572 OA
ATOM     31  C2  SGN d 141     -40.818  -4.485  17.460  0.00  0.00     0.081 C 
ATOM     32  C3  SGN d 141     -41.837  -4.898  18.504  0.00  0.00     0.083 C 
ATOM     33  O3  SGN d 141     -43.169  -4.657  18.112  0.00  0.00    -0.391 OA
ATOM     34  O1S SGN d 141     -41.426  -1.084  16.006  0.00  0.00    -0.296 OA
ATOM     35  N   SGN d 141     -40.800  -3.050  17.329  0.00  0.00    -0.210 NA
ATOM     36  C1  SGN d 141     -39.438  -4.987  17.886  0.00  0.00     0.150 C 
ATOM     37  C6  SGN d 141     -40.255  -8.358  19.011  0.00  0.00     0.067 C 
ATOM     38  O2S SGN d 141     -41.820  -3.266  15.210  0.00  0.00    -0.296 OA
ATOM     39  O3S SGN d 141     -39.612  -2.465  15.279  0.00  0.00    -0.296 OA
ATOM     40  S1  SGN d 141     -40.906  -2.412  15.892  0.00  0.00     0.156 S 
ATOM     41  O4S SGN d 141     -38.702 -10.458  16.366  0.00  0.00    -0.572 OA
ATOM     42  O5  SGN d 141     -39.417  -6.388  18.088  0.00  0.00    -0.349 OA
ATOM     43  C4  SGN d 141     -41.739  -6.383  18.720  0.00  0.00     0.089 C 
ATOM     44  O6S SGN d 141     -37.693  -9.942  18.496  0.00  0.00    -0.572 OA
ATOM     45  S2  SGN d 141     -38.934 -10.090  17.747  0.00  0.00     0.251 S 
ATOM     46  C5  SGN d 141     -40.326  -6.849  19.049  0.00  0.00     0.090 C 
ATOM     47  H   SGN d 141     -43.499  -6.277  19.551  0.00  0.00     0.210 HD
ATOM     48  H   SGN d 141     -41.080  -4.911  16.514  0.00  0.00     0.076 H 
ATOM     49  H   SGN d 141     -41.616  -4.321  19.377  0.00  0.00     0.089 H 
ATOM     50  H   SGN d 141     -43.373  -5.179  17.320  0.00  0.00     0.210 HD
ATOM     51  H   SGN d 141     -42.300  -1.114  16.427  0.00  0.00     0.231 HD
ATOM     52  H   SGN d 141     -39.924  -2.724  17.737  0.00  0.00     0.140 HD
ATOM     53  H   SGN d 141     -38.761  -4.751  17.092  0.00  0.00     0.131 H 
ATOM     54  H   SGN d 141     -39.642  -8.712  19.814  0.00  0.00     0.080 H 
ATOM     55  H   SGN d 141     -41.234  -8.776  19.117  0.00  0.00     0.080 H 
ATOM     56  H   SGN d 141     -42.689  -3.217  15.638  0.00  0.00     0.231 HD
ATOM     57  H   SGN d 141     -39.004  -1.879  15.756  0.00  0.00     0.231 HD
ATOM     58  H   SGN d 141     -41.987  -6.944  17.844  0.00  0.00     0.091 H 
ATOM     59  H   SGN d 141     -40.084  -6.468  20.019  0.00  0.00     0.090 H 
ENDROOT
TORSDOF 18
