MODEL 1
REMARK VINA RESULT:     -18.1      0.000      0.000
REMARK  0 active torsions:
REMARK  status: ('A' for Active; 'I' for Inactive)
REMARK       I    between atoms: C4_1  and  O4_8 
REMARK       I    between atoms: C2_2  and  N2_3 
REMARK       I    between atoms: N2_3  and  C7_6 
REMARK       I    between atoms: C1_4  and  O1_27 
REMARK       I    between atoms: C4_5  and  O4_19 
REMARK       I    between atoms: C7_6  and  C8_13 
REMARK       I    between atoms: C1_7  and  O4_47 
REMARK       I    between atoms: C2_9  and  O2_28 
REMARK       I    between atoms: C2_10  and  O2_26 
REMARK       I    between atoms: C2_11  and  N2_29 
REMARK       I    between atoms: C1_12  and  O3_14 
REMARK       I    between atoms: O3_14  and  C3_23 
REMARK       I    between atoms: C5_17  and  C6_36 
REMARK       I    between atoms: O6_18  and  C6_45 
REMARK       I    between atoms: C5_20  and  C6_44 
REMARK       I    between atoms: C3_21  and  O3_32 
REMARK       I    between atoms: C6_22  and  C5_53 
REMARK       I    between atoms: C4_24  and  O4_37 
REMARK       I    between atoms: C3_25  and  O3_42 
REMARK       I    between atoms: N2_29  and  C7_34 
REMARK       I    between atoms: C3_30  and  O3_41 
REMARK       I    between atoms: C4_33  and  O4_47 
REMARK       I    between atoms: C7_34  and  C8_48 
REMARK       I    between atoms: C6_36  and  O6_50 
REMARK       I    between atoms: C5_40  and  C6_45 
REMARK       I    between atoms: O3_41  and  C1_43 
ROOT
ATOM      1  C4  NAG d1002       8.014  -8.547  31.518  0.00  0.00     0.089 C 
ATOM      2  C2  NAG d1002       8.332 -10.963  32.227  0.00  0.00     0.087 C 
ATOM      3  N2  NAG d1002       7.717 -12.349  32.175  0.00  0.00    -0.349 N 
ATOM      4  C7  NAG d1002       6.946 -12.868  33.239  0.00  0.00     0.214 C 
ATOM      5  C1  NAG d1002       9.755 -10.952  31.566  0.00  0.00     0.154 C 
ATOM      6  O4  NAG d1002       7.179  -7.615  30.786  0.00  0.00    -0.390 OA
ATOM      7  C8  NAG d1002       6.421 -14.236  32.942  0.00  0.00    -0.003 C 
ATOM      8  O6  NAG d1002      10.340  -6.721  32.282  0.00  0.00    -0.398 OA
ATOM      9  C3  NAG d1002       7.425  -9.984  31.444  0.00  0.00     0.093 C 
ATOM     10  O7  NAG d1002       6.697 -12.293  34.294  0.00  0.00    -0.274 OA
ATOM     11  C5  NAG d1002       9.451  -8.567  30.873  0.00  0.00     0.089 C 
ATOM     12  O3  NAG d1002       6.108  -9.985  32.027  0.00  0.00    -0.348 OA
ATOM     13  C6  NAG d1002      10.118  -7.178  30.934  0.00  0.00     0.043 C 
ATOM     14  O5  NAG d1002      10.341  -9.532  31.599  0.00  0.00    -0.349 OA
ATOM     15  H   NAG d1002       8.058  -8.234  32.540  0.00  0.00     0.091 H 
ATOM     16  H   NAG d1002       8.421 -10.671  33.252  0.00  0.00     0.084 H 
ATOM     17  H   NAG d1002       7.860 -12.904  31.376  0.00  0.00     0.163 HD
ATOM     18  H   NAG d1002       9.668 -11.267  30.547  0.00  0.00     0.132 H 
ATOM     19  H   NAG d1002       7.130  -7.887  29.856  0.00  0.00     0.210 HD
ATOM     20  H   NAG d1002       6.758 -14.545  31.974  0.00  0.00     0.040 H 
ATOM     21  H   NAG d1002       5.351 -14.220  32.959  0.00  0.00     0.040 H 
ATOM     22  H   NAG d1002       6.779 -14.924  33.680  0.00  0.00     0.040 H 
ATOM     23  H   NAG d1002      10.760  -5.847  32.262  0.00  0.00     0.209 HD
ATOM     24  H   NAG d1002       7.371 -10.295  30.421  0.00  0.00     0.091 H 
ATOM     25  H   NAG d1002       9.327  -8.863  29.852  0.00  0.00     0.090 H 
ATOM     26  H   NAG d1002      11.062  -7.231  30.432  0.00  0.00     0.078 H 
ATOM     27  H   NAG d1002       9.454  -6.482  30.466  0.00  0.00     0.078 H 
ATOM     28  C1  NAG d1000      18.311 -16.031  33.668  0.00  0.00     0.151 C 
ATOM     29  C4  NAG d1000      16.189 -16.012  31.617  0.00  0.00     0.089 C 
ATOM     30  C2  NAG d1000      17.859 -14.688  33.013  0.00  0.00     0.087 C 
ATOM     31  O3  NAG d1000      15.890 -13.576  32.029  0.00  0.00    -0.348 OA
ATOM     32  O5  NAG d1000      18.122 -17.219  32.725  0.00  0.00    -0.349 OA
ATOM     33  C5  NAG d1000      16.691 -17.343  32.313  0.00  0.00     0.089 C 
ATOM     34  O4  NAG d1000      14.800 -16.189  31.239  0.00  0.00    -0.390 OA
ATOM     35  C3  NAG d1000      16.353 -14.820  32.643  0.00  0.00     0.093 C 
ATOM     36  O1  NAG d1000      19.673 -15.971  34.014  0.00  0.00    -0.369 OA
ATOM     37  N2  NAG d1000      18.070 -13.548  33.991  0.00  0.00    -0.349 N 
ATOM     38  C7  NAG d1000      18.473 -12.260  33.574  0.00  0.00     0.214 C 
ATOM     39  C6  NAG d1000      16.587 -18.567  31.382  0.00  0.00     0.043 C 
ATOM     40  C8  NAG d1000      18.602 -11.313  34.741  0.00  0.00    -0.003 C 
ATOM     41  O6  NAG d1000      15.870 -19.664  31.988  0.00  0.00    -0.398 OA
ATOM     42  O7  NAG d1000      18.698 -11.905  32.403  0.00  0.00    -0.274 OA
ATOM     43  H   NAG d1000      17.701 -16.169  34.536  0.00  0.00     0.132 H 
ATOM     44  H   NAG d1000      16.758 -15.790  30.738  0.00  0.00     0.091 H 
ATOM     45  H   NAG d1000      18.433 -14.482  32.134  0.00  0.00     0.084 H 
ATOM     46  H   NAG d1000      16.056 -17.486  33.163  0.00  0.00     0.090 H 
ATOM     47  H   NAG d1000      14.273 -16.391  32.028  0.00  0.00     0.210 HD
ATOM     48  H   NAG d1000      15.773 -15.013  33.521  0.00  0.00     0.091 H 
ATOM     49  H   NAG d1000      20.205 -15.846  33.213  0.00  0.00     0.212 HD
ATOM     50  H   NAG d1000      17.920 -13.713  34.951  0.00  0.00     0.163 HD
ATOM     51  H   NAG d1000      17.575 -18.896  31.136  0.00  0.00     0.078 H 
ATOM     52  H   NAG d1000      16.045 -18.267  30.510  0.00  0.00     0.078 H 
ATOM     53  H   NAG d1000      18.362 -11.829  35.647  0.00  0.00     0.040 H 
ATOM     54  H   NAG d1000      17.930 -10.491  34.610  0.00  0.00     0.040 H 
ATOM     55  H   NAG d1000      19.606 -10.947  34.795  0.00  0.00     0.040 H 
ATOM     56  H   NAG d1000      16.342 -19.958  32.784  0.00  0.00     0.209 HD
ATOM     57  C2  BDP d1001      14.411 -11.614  32.303  0.00  0.00     0.110 C 
ATOM     58  C1  BDP d1001      14.617 -13.147  32.417  0.00  0.00     0.160 C 
ATOM     59  O6A BDP d1001      10.348 -13.886  30.408  0.00  0.00    -0.646 OA
ATOM     60  C5  BDP d1001      12.054 -13.715  31.674  0.00  0.00     0.152 C 
ATOM     61  C3  BDP d1001      12.974 -11.315  32.776  0.00  0.00     0.092 C 
ATOM     62  O2  BDP d1001      15.372 -10.932  33.150  0.00  0.00    -0.388 OA
ATOM     63  O5  BDP d1001      13.658 -13.875  31.592  0.00  0.00    -0.340 OA
ATOM     64  C4  BDP d1001      11.988 -12.043  31.837  0.00  0.00     0.103 C 
ATOM     65  O3  BDP d1001      12.734  -9.893  32.710  0.00  0.00    -0.390 OA
ATOM     66  C6  BDP d1001      11.373 -14.419  30.922  0.00  0.00     0.206 C 
ATOM     67  O4  BDP d1001      10.603 -11.833  32.254  0.00  0.00    -0.348 OA
ATOM     68  O6B BDP d1001      11.811 -15.588  30.752  0.00  0.00    -0.646 OA
ATOM     69  H   BDP d1001      14.554 -11.274  31.299  0.00  0.00     0.094 H 
ATOM     70  H   BDP d1001      14.479 -13.354  33.457  0.00  0.00     0.133 H 
ATOM     71  H   BDP d1001      11.491 -14.170  32.462  0.00  0.00     0.104 H 
ATOM     72  H   BDP d1001      12.841 -11.651  33.783  0.00  0.00     0.091 H 
ATOM     73  H   BDP d1001      15.260 -11.225  34.068  0.00  0.00     0.210 HD
ATOM     74  H   BDP d1001      12.300 -11.602  30.913  0.00  0.00     0.092 H 
ATOM     75  H   BDP d1001      12.854  -9.586  31.797  0.00  0.00     0.210 HD
ATOM     76  C2  BDP d1003       3.739 -10.363  31.933  0.00  0.00     0.110 C 
ATOM     77  C3  BDP d1003       2.668 -10.804  30.885  0.00  0.00     0.092 C 
ATOM     78  C6  BDP d1003       3.998  -8.919  27.893  0.00  0.00     0.206 C 
ATOM     79  C4  BDP d1003       2.674  -9.839  29.695  0.00  0.00     0.097 C 
ATOM     80  O2  BDP d1003       3.825 -11.230  33.093  0.00  0.00    -0.388 OA
ATOM     81  O3  BDP d1003       1.389 -10.791  31.566  0.00  0.00    -0.390 OA
ATOM     82  O6B BDP d1003       4.468  -7.787  28.161  0.00  0.00    -0.646 OA
ATOM     83  O4  BDP d1003       1.664 -10.150  28.638  0.00  0.00    -0.390 OA
ATOM     84  O6A BDP d1003       3.611  -9.411  26.806  0.00  0.00    -0.646 OA
ATOM     85  C1  BDP d1003       5.064 -10.392  31.197  0.00  0.00     0.160 C 
ATOM     86  O5  BDP d1003       4.978  -9.561  30.021  0.00  0.00    -0.340 OA
ATOM     87  C5  BDP d1003       3.892  -9.864  29.074  0.00  0.00     0.152 C 
ATOM     88  H   BDP d1003       3.474  -9.400  32.315  0.00  0.00     0.094 H 
ATOM     89  H   BDP d1003       2.873 -11.780  30.499  0.00  0.00     0.091 H 
ATOM     90  H   BDP d1003       2.440  -8.888  30.124  0.00  0.00     0.091 H 
ATOM     91  H   BDP d1003       4.064 -12.126  32.810  0.00  0.00     0.210 HD
ATOM     92  H   BDP d1003       1.216  -9.901  31.911  0.00  0.00     0.210 HD
ATOM     93  H   BDP d1003       1.866 -11.012  28.242  0.00  0.00     0.210 HD
ATOM     94  H   BDP d1003       5.273 -11.398  30.896  0.00  0.00     0.133 H 
ATOM     95  H   BDP d1003       3.991 -10.861  28.698  0.00  0.00     0.104 H 
ENDROOT
TORSDOF 24
ENDMDL
MODEL 2
REMARK VINA RESULT:      -9.1      1.791      2.232
REMARK  0 active torsions:
REMARK  status: ('A' for Active; 'I' for Inactive)
REMARK       I    between atoms: C4_1  and  O4_8 
REMARK       I    between atoms: C2_2  and  N2_3 
REMARK       I    between atoms: N2_3  and  C7_6 
REMARK       I    between atoms: C1_4  and  O1_27 
REMARK       I    between atoms: C4_5  and  O4_19 
REMARK       I    between atoms: C7_6  and  C8_13 
REMARK       I    between atoms: C1_7  and  O4_47 
REMARK       I    between atoms: C2_9  and  O2_28 
REMARK       I    between atoms: C2_10  and  O2_26 
REMARK       I    between atoms: C2_11  and  N2_29 
REMARK       I    between atoms: C1_12  and  O3_14 
REMARK       I    between atoms: O3_14  and  C3_23 
REMARK       I    between atoms: C5_17  and  C6_36 
REMARK       I    between atoms: O6_18  and  C6_45 
REMARK       I    between atoms: C5_20  and  C6_44 
REMARK       I    between atoms: C3_21  and  O3_32 
REMARK       I    between atoms: C6_22  and  C5_53 
REMARK       I    between atoms: C4_24  and  O4_37 
REMARK       I    between atoms: C3_25  and  O3_42 
REMARK       I    between atoms: N2_29  and  C7_34 
REMARK       I    between atoms: C3_30  and  O3_41 
REMARK       I    between atoms: C4_33  and  O4_47 
REMARK       I    between atoms: C7_34  and  C8_48 
REMARK       I    between atoms: C6_36  and  O6_50 
REMARK       I    between atoms: C5_40  and  C6_45 
REMARK       I    between atoms: O3_41  and  C1_43 
ROOT
ATOM      1  C4  NAG d1002       6.084  -7.817  31.011  0.00  0.00     0.089 C 
ATOM      2  C2  NAG d1002       6.308 -10.253  31.687  0.00  0.00     0.087 C 
ATOM      3  N2  NAG d1002       5.646 -11.615  31.607  0.00  0.00    -0.349 N 
ATOM      4  C7  NAG d1002       4.844 -12.122  32.654  0.00  0.00     0.214 C 
ATOM      5  C1  NAG d1002       7.738 -10.282  31.042  0.00  0.00     0.154 C 
ATOM      6  O4  NAG d1002       5.292  -6.845  30.284  0.00  0.00    -0.390 OA
ATOM      7  C8  NAG d1002       4.274 -13.466  32.329  0.00  0.00    -0.003 C 
ATOM      8  O6  NAG d1002       8.465  -6.087  31.830  0.00  0.00    -0.398 OA
ATOM      9  C3  NAG d1002       5.446  -9.231  30.908  0.00  0.00     0.093 C 
ATOM     10  O7  NAG d1002       4.603 -11.555  33.714  0.00  0.00    -0.274 OA
ATOM     11  C5  NAG d1002       7.528  -7.879  30.382  0.00  0.00     0.089 C 
ATOM     12  O3  NAG d1002       4.123  -9.193  31.476  0.00  0.00    -0.348 OA
ATOM     13  C6  NAG d1002       8.243  -6.515  30.473  0.00  0.00     0.043 C 
ATOM     14  O5  NAG d1002       8.374  -8.885  31.103  0.00  0.00    -0.349 OA
ATOM     15  H   NAG d1002       6.128  -7.521  32.039  0.00  0.00     0.091 H 
ATOM     16  H   NAG d1002       6.395  -9.979  32.717  0.00  0.00     0.084 H 
ATOM     17  H   NAG d1002       5.779 -12.163  30.800  0.00  0.00     0.163 HD
ATOM     18  H   NAG d1002       7.653 -10.579  30.017  0.00  0.00     0.132 H 
ATOM     19  H   NAG d1002       5.244  -7.101  29.350  0.00  0.00     0.210 HD
ATOM     20  H   NAG d1002       4.611 -13.773  31.361  0.00  0.00     0.040 H 
ATOM     21  H   NAG d1002       3.206 -13.412  32.334  0.00  0.00     0.040 H 
ATOM     22  H   NAG d1002       4.598 -14.177  33.061  0.00  0.00     0.040 H 
ATOM     23  H   NAG d1002       8.916  -5.228  31.828  0.00  0.00     0.209 HD
ATOM     24  H   NAG d1002       5.394  -9.524  29.881  0.00  0.00     0.091 H 
ATOM     25  H   NAG d1002       7.405  -8.154  29.356  0.00  0.00     0.090 H 
ATOM     26  H   NAG d1002       9.190  -6.594  29.981  0.00  0.00     0.078 H 
ATOM     27  H   NAG d1002       7.610  -5.789  30.007  0.00  0.00     0.078 H 
ATOM     28  C1  NAG d1000      16.083 -15.694  33.164  0.00  0.00     0.151 C 
ATOM     29  C4  NAG d1000      13.988 -15.568  31.089  0.00  0.00     0.089 C 
ATOM     30  C2  NAG d1000      15.688 -14.326  32.524  0.00  0.00     0.087 C 
ATOM     31  O3  NAG d1000      13.771 -13.130  31.535  0.00  0.00    -0.348 OA
ATOM     32  O5  NAG d1000      15.864 -16.860  32.201  0.00  0.00    -0.349 OA
ATOM     33  C5  NAG d1000      14.434 -16.927  31.771  0.00  0.00     0.089 C 
ATOM     34  O4  NAG d1000      12.599 -15.691  30.693  0.00  0.00    -0.390 OA
ATOM     35  C3  NAG d1000      14.182 -14.399  32.135  0.00  0.00     0.093 C 
ATOM     36  O1  NAG d1000      17.443 -15.687  33.527  0.00  0.00    -0.369 OA
ATOM     37  N2  NAG d1000      15.926 -13.209  33.522  0.00  0.00    -0.349 N 
ATOM     38  C7  NAG d1000      16.380 -11.930  33.130  0.00  0.00     0.214 C 
ATOM     39  C6  NAG d1000      14.298 -18.132  30.820  0.00  0.00     0.043 C 
ATOM     40  C8  NAG d1000      16.528 -11.006  34.313  0.00  0.00    -0.003 C 
ATOM     41  O6  NAG d1000      13.536 -19.213  31.401  0.00  0.00    -0.398 OA
ATOM     42  O7  NAG d1000      16.632 -11.566  31.967  0.00  0.00    -0.274 OA
ATOM     43  H   NAG d1000      15.458 -15.823  34.022  0.00  0.00     0.132 H 
ATOM     44  H   NAG d1000      14.576 -15.354  30.220  0.00  0.00     0.091 H 
ATOM     45  H   NAG d1000      16.279 -14.128  31.655  0.00  0.00     0.084 H 
ATOM     46  H   NAG d1000      13.785 -17.060  32.611  0.00  0.00     0.090 H 
ATOM     47  H   NAG d1000      12.056 -15.885  31.473  0.00  0.00     0.210 HD
ATOM     48  H   NAG d1000      13.585 -14.584  33.004  0.00  0.00     0.091 H 
ATOM     49  H   NAG d1000      17.988 -15.569  32.734  0.00  0.00     0.212 HD
ATOM     50  H   NAG d1000      15.760 -13.382  34.478  0.00  0.00     0.163 HD
ATOM     51  H   NAG d1000      15.277 -18.493  30.580  0.00  0.00     0.078 H 
ATOM     52  H   NAG d1000      13.778 -17.800  29.947  0.00  0.00     0.078 H 
ATOM     53  H   NAG d1000      16.259 -11.527  35.208  0.00  0.00     0.040 H 
ATOM     54  H   NAG d1000      15.888 -10.159  34.187  0.00  0.00     0.040 H 
ATOM     55  H   NAG d1000      17.544 -10.677  34.383  0.00  0.00     0.040 H 
ATOM     56  H   NAG d1000      13.987 -19.534  32.197  0.00  0.00     0.209 HD
ATOM     57  C2  BDP d1001      12.359 -11.121  31.823  0.00  0.00     0.110 C 
ATOM     58  C1  BDP d1001      12.509 -12.662  31.915  0.00  0.00     0.160 C 
ATOM     59  O6A BDP d1001       8.242 -13.219  29.846  0.00  0.00    -0.646 OA
ATOM     60  C5  BDP d1001       9.937 -13.127  31.135  0.00  0.00     0.152 C 
ATOM     61  C3  BDP d1001      10.928 -10.778  32.283  0.00  0.00     0.092 C 
ATOM     62  O2  BDP d1001      13.334 -10.486  32.690  0.00  0.00    -0.388 OA
ATOM     63  O5  BDP d1001      11.535 -13.343  31.068  0.00  0.00    -0.340 OA
ATOM     64  C4  BDP d1001       9.928 -11.456  31.322  0.00  0.00     0.103 C 
ATOM     65  O3  BDP d1001      10.739  -9.347  32.236  0.00  0.00    -0.390 OA
ATOM     66  C6  BDP d1001       9.240 -13.795  30.364  0.00  0.00     0.206 C 
ATOM     67  O4  BDP d1001       8.546 -11.203  31.726  0.00  0.00    -0.348 OA
ATOM     68  O6B BDP d1001       9.639 -14.976  30.181  0.00  0.00    -0.646 OA
ATOM     69  H   BDP d1001      12.526 -10.772  30.825  0.00  0.00     0.094 H 
ATOM     70  H   BDP d1001      12.352 -12.880  32.951  0.00  0.00     0.133 H 
ATOM     71  H   BDP d1001       9.349 -13.574  31.909  0.00  0.00     0.104 H 
ATOM     72  H   BDP d1001      10.771 -11.124  33.284  0.00  0.00     0.091 H 
ATOM     73  H   BDP d1001      13.200 -10.789  33.602  0.00  0.00     0.210 HD
ATOM     74  H   BDP d1001      10.267 -11.013  30.409  0.00  0.00     0.092 H 
ATOM     75  H   BDP d1001      10.882  -9.032  31.330  0.00  0.00     0.210 HD
ATOM     76  C2  BDP d1003       1.743  -9.485  31.349  0.00  0.00     0.110 C 
ATOM     77  C3  BDP d1003       0.670  -9.872  30.282  0.00  0.00     0.092 C 
ATOM     78  C6  BDP d1003       2.102  -7.991  27.335  0.00  0.00     0.206 C 
ATOM     79  C4  BDP d1003       0.725  -8.891  29.108  0.00  0.00     0.097 C 
ATOM     80  O2  BDP d1003       1.784 -10.372  32.496  0.00  0.00    -0.388 OA
ATOM     81  O3  BDP d1003      -0.616  -9.824  30.949  0.00  0.00    -0.390 OA
ATOM     82  O6B BDP d1003       2.609  -6.881  27.626  0.00  0.00    -0.646 OA
ATOM     83  O4  BDP d1003      -0.283  -9.150  28.035  0.00  0.00    -0.390 OA
ATOM     84  O6A BDP d1003       1.711  -8.453  26.236  0.00  0.00    -0.646 OA
ATOM     85  C1  BDP d1003       3.075  -9.551  30.628  0.00  0.00     0.160 C 
ATOM     86  O5  BDP d1003       3.033  -8.700  29.465  0.00  0.00    -0.340 OA
ATOM     87  C5  BDP d1003       1.949  -8.950  28.500  0.00  0.00     0.152 C 
ATOM     88  H   BDP d1003       1.508  -8.519  31.743  0.00  0.00     0.094 H 
ATOM     89  H   BDP d1003       0.845 -10.849  29.884  0.00  0.00     0.091 H 
ATOM     90  H   BDP d1003       0.519  -7.938  29.548  0.00  0.00     0.091 H 
ATOM     91  H   BDP d1003       1.995 -11.272  32.202  0.00  0.00     0.210 HD
ATOM     92  H   BDP d1003      -0.762  -8.933  31.305  0.00  0.00     0.210 HD
ATOM     93  H   BDP d1003      -0.107 -10.013  27.627  0.00  0.00     0.210 HD
ATOM     94  H   BDP d1003       3.252 -10.559  30.314  0.00  0.00     0.133 H 
ATOM     95  H   BDP d1003       2.016  -9.944  28.110  0.00  0.00     0.104 H 
ENDROOT
TORSDOF 24
ENDMDL
MODEL 3
REMARK VINA RESULT:      -7.7      1.432      1.581
REMARK  0 active torsions:
REMARK  status: ('A' for Active; 'I' for Inactive)
REMARK       I    between atoms: C4_1  and  O4_8 
REMARK       I    between atoms: C2_2  and  N2_3 
REMARK       I    between atoms: N2_3  and  C7_6 
REMARK       I    between atoms: C1_4  and  O1_27 
REMARK       I    between atoms: C4_5  and  O4_19 
REMARK       I    between atoms: C7_6  and  C8_13 
REMARK       I    between atoms: C1_7  and  O4_47 
REMARK       I    between atoms: C2_9  and  O2_28 
REMARK       I    between atoms: C2_10  and  O2_26 
REMARK       I    between atoms: C2_11  and  N2_29 
REMARK       I    between atoms: C1_12  and  O3_14 
REMARK       I    between atoms: O3_14  and  C3_23 
REMARK       I    between atoms: C5_17  and  C6_36 
REMARK       I    between atoms: O6_18  and  C6_45 
REMARK       I    between atoms: C5_20  and  C6_44 
REMARK       I    between atoms: C3_21  and  O3_32 
REMARK       I    between atoms: C6_22  and  C5_53 
REMARK       I    between atoms: C4_24  and  O4_37 
REMARK       I    between atoms: C3_25  and  O3_42 
REMARK       I    between atoms: N2_29  and  C7_34 
REMARK       I    between atoms: C3_30  and  O3_41 
REMARK       I    between atoms: C4_33  and  O4_47 
REMARK       I    between atoms: C7_34  and  C8_48 
REMARK       I    between atoms: C6_36  and  O6_50 
REMARK       I    between atoms: C5_40  and  C6_45 
REMARK       I    between atoms: O3_41  and  C1_43 
ROOT
ATOM      1  C4  NAG d1002       9.681  -8.702  31.917  0.00  0.00     0.089 C 
ATOM      2  C2  NAG d1002       9.880 -11.145  32.573  0.00  0.00     0.087 C 
ATOM      3  N2  NAG d1002       9.198 -12.497  32.495  0.00  0.00    -0.349 N 
ATOM      4  C7  NAG d1002       8.405 -13.000  33.552  0.00  0.00     0.214 C 
ATOM      5  C1  NAG d1002      11.300 -11.191  31.906  0.00  0.00     0.154 C 
ATOM      6  O4  NAG d1002       8.891  -7.714  31.208  0.00  0.00    -0.390 OA
ATOM      7  C8  NAG d1002       7.811 -14.334  33.228  0.00  0.00    -0.003 C 
ATOM      8  O6  NAG d1002      12.099  -7.012  32.708  0.00  0.00    -0.398 OA
ATOM      9  C3  NAG d1002       9.021 -10.107  31.815  0.00  0.00     0.093 C 
ATOM     10  O7  NAG d1002       8.189 -12.436  34.619  0.00  0.00    -0.274 OA
ATOM     11  C5  NAG d1002      11.113  -8.781  31.265  0.00  0.00     0.089 C 
ATOM     12  O3  NAG d1002       7.708 -10.054  32.404  0.00  0.00    -0.348 OA
ATOM     13  C6  NAG d1002      11.849  -7.428  31.352  0.00  0.00     0.043 C 
ATOM     14  O5  NAG d1002      11.956  -9.804  31.966  0.00  0.00    -0.349 OA
ATOM     15  H   NAG d1002       9.745  -8.414  32.945  0.00  0.00     0.091 H 
ATOM     16  H   NAG d1002       9.988 -10.880  33.604  0.00  0.00     0.084 H 
ATOM     17  H   NAG d1002       9.310 -13.042  31.683  0.00  0.00     0.163 HD
ATOM     18  H   NAG d1002      11.194 -11.480  30.881  0.00  0.00     0.132 H 
ATOM     19  H   NAG d1002       8.825  -7.964  30.274  0.00  0.00     0.210 HD
ATOM     20  H   NAG d1002       8.129 -14.639  32.252  0.00  0.00     0.040 H 
ATOM     21  H   NAG d1002       6.744 -14.264  33.250  0.00  0.00     0.040 H 
ATOM     22  H   NAG d1002       8.136 -15.054  33.950  0.00  0.00     0.040 H 
ATOM     23  H   NAG d1002      12.562  -6.159  32.705  0.00  0.00     0.209 HD
ATOM     24  H   NAG d1002       8.948 -10.392  30.787  0.00  0.00     0.091 H 
ATOM     25  H   NAG d1002      10.970  -9.048  30.239  0.00  0.00     0.090 H 
ATOM     26  H   NAG d1002      12.787  -7.517  30.845  0.00  0.00     0.078 H 
ATOM     27  H   NAG d1002      11.219  -6.690  30.902  0.00  0.00     0.078 H 
ATOM     28  C1  NAG d1000      19.599 -16.734  33.860  0.00  0.00     0.151 C 
ATOM     29  C4  NAG d1000      17.473 -16.566  31.820  0.00  0.00     0.089 C 
ATOM     30  C2  NAG d1000      19.213 -15.357  33.236  0.00  0.00     0.087 C 
ATOM     31  O3  NAG d1000      17.298 -14.128  32.285  0.00  0.00    -0.348 OA
ATOM     32  O5  NAG d1000      19.348 -17.892  32.893  0.00  0.00    -0.349 OA
ATOM     33  C5  NAG d1000      17.910 -17.935  32.486  0.00  0.00     0.089 C 
ATOM     34  O4  NAG d1000      16.076 -16.666  31.445  0.00  0.00    -0.390 OA
ATOM     35  C3  NAG d1000      17.700 -15.406  32.870  0.00  0.00     0.093 C 
ATOM     36  O1  NAG d1000      20.964 -16.750  34.202  0.00  0.00    -0.369 OA
ATOM     37  N2  NAG d1000      19.483 -14.250  34.237  0.00  0.00    -0.349 N 
ATOM     38  C7  NAG d1000      19.949 -12.975  33.845  0.00  0.00     0.214 C 
ATOM     39  C6  NAG d1000      17.742 -19.132  31.529  0.00  0.00     0.043 C 
ATOM     40  C8  NAG d1000      20.129 -12.061  35.032  0.00  0.00    -0.003 C 
ATOM     41  O6  NAG d1000      16.974 -20.205  32.116  0.00  0.00    -0.398 OA
ATOM     42  O7  NAG d1000      20.187 -12.607  32.681  0.00  0.00    -0.274 OA
ATOM     43  H   NAG d1000      18.986 -16.860  34.728  0.00  0.00     0.132 H 
ATOM     44  H   NAG d1000      18.050 -16.354  30.944  0.00  0.00     0.091 H 
ATOM     45  H   NAG d1000      19.793 -15.162  32.359  0.00  0.00     0.084 H 
ATOM     46  H   NAG d1000      17.273 -18.064  33.335  0.00  0.00     0.090 H 
ATOM     47  H   NAG d1000      15.543 -16.858  32.232  0.00  0.00     0.210 HD
ATOM     48  H   NAG d1000      17.115 -15.588  33.747  0.00  0.00     0.091 H 
ATOM     49  H   NAG d1000      21.498 -16.634  33.401  0.00  0.00     0.212 HD
ATOM     50  H   NAG d1000      19.329 -14.427  35.194  0.00  0.00     0.163 HD
ATOM     51  H   NAG d1000      18.712 -19.505  31.273  0.00  0.00     0.078 H 
ATOM     52  H   NAG d1000      17.213 -18.787  30.667  0.00  0.00     0.078 H 
ATOM     53  H   NAG d1000      19.867 -12.584  35.927  0.00  0.00     0.040 H 
ATOM     54  H   NAG d1000      19.499 -11.204  34.921  0.00  0.00     0.040 H 
ATOM     55  H   NAG d1000      21.151 -11.747  35.088  0.00  0.00     0.040 H 
ATOM     56  H   NAG d1000      17.433 -20.538  32.903  0.00  0.00     0.209 HD
ATOM     57  C2  BDP d1001      15.920 -12.100  32.607  0.00  0.00     0.110 C 
ATOM     58  C1  BDP d1001      16.049 -13.644  32.688  0.00  0.00     0.160 C 
ATOM     59  O6A BDP d1001      11.742 -14.127  30.683  0.00  0.00    -0.646 OA
ATOM     60  C5  BDP d1001      13.459 -14.068  31.945  0.00  0.00     0.152 C 
ATOM     61  C3  BDP d1001      14.502 -11.741  33.093  0.00  0.00     0.092 C 
ATOM     62  O2  BDP d1001      16.917 -11.486  33.464  0.00  0.00    -0.388 OA
ATOM     63  O5  BDP d1001      15.053 -14.306  31.852  0.00  0.00    -0.340 OA
ATOM     64  C4  BDP d1001      13.477 -12.398  32.143  0.00  0.00     0.103 C 
ATOM     65  O3  BDP d1001      14.332 -10.307  33.058  0.00  0.00    -0.390 OA
ATOM     66  C6  BDP d1001      12.740 -14.720  31.182  0.00  0.00     0.206 C 
ATOM     67  O4  BDP d1001      12.105 -12.128  32.571  0.00  0.00    -0.348 OA
ATOM     68  O6B BDP d1001      13.119 -15.906  30.985  0.00  0.00    -0.646 OA
ATOM     69  H   BDP d1001      16.076 -11.747  31.610  0.00  0.00     0.094 H 
ATOM     70  H   BDP d1001      15.905 -13.866  33.724  0.00  0.00     0.133 H 
ATOM     71  H   BDP d1001      12.877 -14.511  32.726  0.00  0.00     0.104 H 
ATOM     72  H   BDP d1001      14.356 -12.091  34.094  0.00  0.00     0.091 H 
ATOM     73  H   BDP d1001      16.794 -11.792  34.376  0.00  0.00     0.210 HD
ATOM     74  H   BDP d1001      13.807 -11.954  31.228  0.00  0.00     0.092 H 
ATOM     75  H   BDP d1001      14.465  -9.987  32.152  0.00  0.00     0.210 HD
ATOM     76  C2  BDP d1003       5.322 -10.311  32.313  0.00  0.00     0.110 C 
ATOM     77  C3  BDP d1003       4.227 -10.676  31.261  0.00  0.00     0.092 C 
ATOM     78  C6  BDP d1003       5.638  -8.796  28.303  0.00  0.00     0.206 C 
ATOM     79  C4  BDP d1003       4.277  -9.688  30.092  0.00  0.00     0.097 C 
ATOM     80  O2  BDP d1003       5.369 -11.205  33.454  0.00  0.00    -0.388 OA
ATOM     81  O3  BDP d1003       2.953 -10.613  31.948  0.00  0.00    -0.390 OA
ATOM     82  O6B BDP d1003       6.166  -7.695  28.593  0.00  0.00    -0.646 OA
ATOM     83  O4  BDP d1003       3.249  -9.925  29.034  0.00  0.00    -0.390 OA
ATOM     84  O6A BDP d1003       5.224  -9.245  27.208  0.00  0.00    -0.646 OA
ATOM     85  C1  BDP d1003       6.641 -10.391  31.571  0.00  0.00     0.160 C 
ATOM     86  O5  BDP d1003       6.593  -9.531  30.413  0.00  0.00    -0.340 OA
ATOM     87  C5  BDP d1003       5.490  -9.760  29.465  0.00  0.00     0.152 C 
ATOM     88  H   BDP d1003       5.107  -9.344  32.717  0.00  0.00     0.094 H 
ATOM     89  H   BDP d1003       4.382 -11.653  30.854  0.00  0.00     0.091 H 
ATOM     90  H   BDP d1003       4.092  -8.735  30.542  0.00  0.00     0.091 H 
ATOM     91  H   BDP d1003       5.562 -12.106  33.151  0.00  0.00     0.210 HD
ATOM     92  H   BDP d1003       2.825  -9.723  32.313  0.00  0.00     0.210 HD
ATOM     93  H   BDP d1003       3.406 -10.788  28.618  0.00  0.00     0.210 HD
ATOM     94  H   BDP d1003       6.799 -11.399  31.247  0.00  0.00     0.133 H 
ATOM     95  H   BDP d1003       5.537 -10.752  29.068  0.00  0.00     0.104 H 
ENDROOT
TORSDOF 24
ENDMDL
