REMARK  0 active torsions:
REMARK  status: ('A' for Active; 'I' for Inactive)
REMARK       I    between atoms: C4_1  and  O4_8 
REMARK       I    between atoms: C2_2  and  N2_3 
REMARK       I    between atoms: N2_3  and  C7_6 
REMARK       I    between atoms: C1_4  and  O1_27 
REMARK       I    between atoms: C4_5  and  O4_19 
REMARK       I    between atoms: C7_6  and  C8_13 
REMARK       I    between atoms: C1_7  and  O4_47 
REMARK       I    between atoms: C2_9  and  O2_28 
REMARK       I    between atoms: C2_10  and  O2_26 
REMARK       I    between atoms: C2_11  and  N2_29 
REMARK       I    between atoms: C1_12  and  O3_14 
REMARK       I    between atoms: O3_14  and  C3_23 
REMARK       I    between atoms: C5_17  and  C6_36 
REMARK       I    between atoms: O6_18  and  C6_45 
REMARK       I    between atoms: C5_20  and  C6_44 
REMARK       I    between atoms: C3_21  and  O3_32 
REMARK       I    between atoms: C6_22  and  C5_53 
REMARK       I    between atoms: C4_24  and  O4_37 
REMARK       I    between atoms: C3_25  and  O3_42 
REMARK       I    between atoms: N2_29  and  C7_34 
REMARK       I    between atoms: C3_30  and  O3_41 
REMARK       I    between atoms: C4_33  and  O4_47 
REMARK       I    between atoms: C7_34  and  C8_48 
REMARK       I    between atoms: C6_36  and  O6_50 
REMARK       I    between atoms: C5_40  and  C6_45 
REMARK       I    between atoms: O3_41  and  C1_43 
ROOT
ATOM      1  C4  NAG d1002       8.051  -8.666  31.447  0.00  0.00     0.089 C 
ATOM      2  C2  NAG d1002       8.434 -11.045  32.244  0.00  0.00     0.087 C 
ATOM      3  N2  NAG d1002       7.858 -12.448  32.243  0.00  0.00    -0.349 N 
ATOM      4  C7  NAG d1002       7.100 -12.949  33.325  0.00  0.00     0.214 C 
ATOM      5  C1  NAG d1002       9.857 -11.019  31.583  0.00  0.00     0.154 C 
ATOM      6  O4  NAG d1002       7.192  -7.785  30.681  0.00  0.00    -0.390 OA
ATOM      7  C8  NAG d1002       6.613 -14.341  33.078  0.00  0.00    -0.003 C 
ATOM      8  O6  NAG d1002      10.326  -6.751  32.144  0.00  0.00    -0.398 OA
ATOM      9  C3  NAG d1002       7.502 -10.121  31.425  0.00  0.00     0.093 C 
ATOM     10  O7  NAG d1002       6.834 -12.343  34.358  0.00  0.00    -0.274 OA
ATOM     11  C5  NAG d1002       9.489  -8.671  30.803  0.00  0.00     0.089 C 
ATOM     12  O3  NAG d1002       6.185 -10.136  32.008  0.00  0.00    -0.348 OA
ATOM     13  C6  NAG d1002      10.118  -7.263  30.814  0.00  0.00     0.043 C 
ATOM     14  O5  NAG d1002      10.404  -9.584  31.564  0.00  0.00    -0.349 OA
ATOM     15  H   NAG d1002       8.086  -8.315  32.457  0.00  0.00     0.091 H 
ATOM     16  H   NAG d1002       8.514 -10.713  33.258  0.00  0.00     0.084 H 
ATOM     17  H   NAG d1002       8.017 -13.028  31.464  0.00  0.00     0.163 HD
ATOM     18  H   NAG d1002       9.780 -11.374  30.576  0.00  0.00     0.132 H 
ATOM     19  H   NAG d1002       7.151  -8.092  29.762  0.00  0.00     0.210 HD
ATOM     20  H   NAG d1002       6.959 -14.676  32.122  0.00  0.00     0.040 H 
ATOM     21  H   NAG d1002       5.543 -14.353  33.094  0.00  0.00     0.040 H 
ATOM     22  H   NAG d1002       6.988 -14.991  33.841  0.00  0.00     0.040 H 
ATOM     23  H   NAG d1002      10.722  -5.867  32.092  0.00  0.00     0.209 HD
ATOM     24  H   NAG d1002       7.458 -10.470  30.415  0.00  0.00     0.091 H 
ATOM     25  H   NAG d1002       9.374  -9.007  29.794  0.00  0.00     0.090 H 
ATOM     26  H   NAG d1002      11.063  -7.308  30.314  0.00  0.00     0.078 H 
ATOM     27  H   NAG d1002       9.436  -6.603  30.320  0.00  0.00     0.078 H 
ATOM     28  C1  NAG d1000      18.546 -15.782  33.871  0.00  0.00     0.151 C 
ATOM     29  C4  NAG d1000      16.427 -15.896  31.820  0.00  0.00     0.089 C 
ATOM     30  C2  NAG d1000      18.059 -14.477  33.167  0.00  0.00     0.087 C 
ATOM     31  O3  NAG d1000      16.061 -13.456  32.143  0.00  0.00    -0.348 OA
ATOM     32  O5  NAG d1000      18.391 -17.009  32.972  0.00  0.00    -0.349 OA
ATOM     33  C5  NAG d1000      16.964 -17.187  32.565  0.00  0.00     0.089 C 
ATOM     34  O4  NAG d1000      15.044 -16.125  31.449  0.00  0.00    -0.390 OA
ATOM     35  C3  NAG d1000      16.557 -14.664  32.802  0.00  0.00     0.093 C 
ATOM     36  O1  NAG d1000      19.906 -15.672  34.215  0.00  0.00    -0.369 OA
ATOM     37  N2  NAG d1000      18.237 -13.297  34.103  0.00  0.00    -0.349 N 
ATOM     38  C7  NAG d1000      18.605 -12.014  33.639  0.00  0.00     0.214 C 
ATOM     39  C6  NAG d1000      16.895 -18.446  31.679  0.00  0.00     0.043 C 
ATOM     40  C8  NAG d1000      18.707 -11.022  34.771  0.00  0.00    -0.003 C 
ATOM     41  O6  NAG d1000      16.208 -19.540  32.325  0.00  0.00    -0.398 OA
ATOM     42  O7  NAG d1000      18.822 -11.696  32.456  0.00  0.00    -0.274 OA
ATOM     43  H   NAG d1000      17.939 -15.905  34.743  0.00  0.00     0.132 H 
ATOM     44  H   NAG d1000      16.991 -15.691  30.934  0.00  0.00     0.091 H 
ATOM     45  H   NAG d1000      18.628 -14.288  32.281  0.00  0.00     0.084 H 
ATOM     46  H   NAG d1000      16.333 -17.316  33.419  0.00  0.00     0.090 H 
ATOM     47  H   NAG d1000      14.522 -16.312  32.245  0.00  0.00     0.210 HD
ATOM     48  H   NAG d1000      15.982 -14.840  33.687  0.00  0.00     0.091 H 
ATOM     49  H   NAG d1000      20.435 -15.562  33.410  0.00  0.00     0.212 HD
ATOM     50  H   NAG d1000      18.091 -13.430  35.068  0.00  0.00     0.163 HD
ATOM     51  H   NAG d1000      17.892 -18.757  31.446  0.00  0.00     0.078 H 
ATOM     52  H   NAG d1000      16.346 -18.193  30.797  0.00  0.00     0.078 H 
ATOM     53  H   NAG d1000      18.480 -11.511  35.695  0.00  0.00     0.040 H 
ATOM     54  H   NAG d1000      18.013 -10.224  34.610  0.00  0.00     0.040 H 
ATOM     55  H   NAG d1000      19.701 -10.627  34.811  0.00  0.00     0.040 H 
ATOM     56  H   NAG d1000      16.686 -19.791  33.131  0.00  0.00     0.209 HD
ATOM     57  C2  BDP d1001      14.529 -11.526  32.345  0.00  0.00     0.110 C 
ATOM     58  C1  BDP d1001      14.776 -13.048  32.515  0.00  0.00     0.160 C 
ATOM     59  O6A BDP d1001      10.532 -13.977  30.533  0.00  0.00    -0.646 OA
ATOM     60  C5  BDP d1001      12.231 -13.713  31.793  0.00  0.00     0.152 C 
ATOM     61  C3  BDP d1001      13.084 -11.250  32.806  0.00  0.00     0.092 C 
ATOM     62  O2  BDP d1001      15.470 -10.788  33.166  0.00  0.00    -0.388 OA
ATOM     63  O5  BDP d1001      13.839 -13.832  31.717  0.00  0.00    -0.340 OA
ATOM     64  C4  BDP d1001      12.119 -12.038  31.894  0.00  0.00     0.103 C 
ATOM     65  O3  BDP d1001      12.805  -9.838  32.688  0.00  0.00    -0.390 OA
ATOM     66  C6  BDP d1001      11.570 -14.462  31.067  0.00  0.00     0.206 C 
ATOM     67  O4  BDP d1001      10.728 -11.851  32.303  0.00  0.00    -0.348 OA
ATOM     68  O6B BDP d1001      12.040 -15.624  30.940  0.00  0.00    -0.646 OA
ATOM     69  H   BDP d1001      14.664 -11.220  31.329  0.00  0.00     0.094 H 
ATOM     70  H   BDP d1001      14.643 -13.221  33.562  0.00  0.00     0.133 H 
ATOM     71  H   BDP d1001      11.680 -14.154  32.597  0.00  0.00     0.104 H 
ATOM     72  H   BDP d1001      12.959 -11.552  33.825  0.00  0.00     0.091 H 
ATOM     73  H   BDP d1001      15.365 -11.050  34.094  0.00  0.00     0.210 HD
ATOM     74  H   BDP d1001      12.420 -11.623  30.955  0.00  0.00     0.092 H 
ATOM     75  H   BDP d1001      12.918  -9.562  31.765  0.00  0.00     0.210 HD
ATOM     76  C2  BDP d1003       3.827 -10.582  31.927  0.00  0.00     0.110 C 
ATOM     77  C3  BDP d1003       2.770 -11.090  30.896  0.00  0.00     0.092 C 
ATOM     78  C6  BDP d1003       4.051  -9.280  27.837  0.00  0.00     0.206 C 
ATOM     79  C4  BDP d1003       2.751 -10.170  29.672  0.00  0.00     0.097 C 
ATOM     80  O2  BDP d1003       3.935 -11.403  33.118  0.00  0.00    -0.388 OA
ATOM     81  O3  BDP d1003       1.490 -11.087  31.576  0.00  0.00    -0.390 OA
ATOM     82  O6B BDP d1003       4.490  -8.127  28.064  0.00  0.00    -0.646 OA
ATOM     83  O4  BDP d1003       1.751 -10.547  28.627  0.00  0.00    -0.390 OA
ATOM     84  O6A BDP d1003       3.679  -9.822  26.769  0.00  0.00    -0.646 OA
ATOM     85  C1  BDP d1003       5.153 -10.602  31.193  0.00  0.00     0.160 C 
ATOM     86  O5  BDP d1003       5.046  -9.817  29.988  0.00  0.00    -0.340 OA
ATOM     87  C5  BDP d1003       3.970 -10.184  29.052  0.00  0.00     0.152 C 
ATOM     88  H   BDP d1003       3.535  -9.613  32.274  0.00  0.00     0.094 H 
ATOM     89  H   BDP d1003       3.002 -12.074  30.546  0.00  0.00     0.091 H 
ATOM     90  H   BDP d1003       2.490  -9.210  30.065  0.00  0.00     0.091 H 
ATOM     91  H   BDP d1003       4.199 -12.302  32.868  0.00  0.00     0.210 HD
ATOM     92  H   BDP d1003       1.292 -10.190  31.888  0.00  0.00     0.210 HD
ATOM     93  H   BDP d1003       1.977 -11.417  28.262  0.00  0.00     0.210 HD
ATOM     94  H   BDP d1003       5.390 -11.612  30.929  0.00  0.00     0.133 H 
ATOM     95  H   BDP d1003       4.096 -11.191  28.713  0.00  0.00     0.104 H 
ENDROOT
TORSDOF 24
