MODEL 1
REMARK VINA RESULT:      -7.1      0.000      0.000
REMARK  0 active torsions:
REMARK  status: ('A' for Active; 'I' for Inactive)
REMARK       I    between atoms: C1_1  and  O4_26 
REMARK       I    between atoms: C2_2  and  N_3 
REMARK       I    between atoms: N_3  and  S1_23 
REMARK       I    between atoms: O2S_4  and  S1_23 
REMARK       I    between atoms: S_5  and  O2_15 
REMARK       I    between atoms: O1_6  and  C1_27 
REMARK       I    between atoms: O1_6  and  C7_20 
REMARK       I    between atoms: C5_7  and  C6_28 
REMARK       I    between atoms: O3_8  and  C3_9 
REMARK       I    between atoms: C4_10  and  O4_26 
REMARK       I    between atoms: C4_11  and  O4_14 
REMARK       I    between atoms: O2_15  and  C2_22 
REMARK       I    between atoms: O6_17  and  C6_18 
REMARK       I    between atoms: C6_18  and  C5_29 
REMARK       I    between atoms: C3_19  and  O3_21 
REMARK       I    between atoms: S1_23  and  O1S_30 
REMARK       I    between atoms: S1_23  and  O3S_25 
ROOT
ATOM      1  C1  GNS d 142     -28.481 -11.858  60.089  0.00  0.00     0.150 C 
ATOM      2  C2  GNS d 142     -28.131 -10.775  59.076  0.00  0.00     0.081 C 
ATOM      3  N   GNS d 142     -27.637 -11.380  57.854  0.00  0.00    -0.210 NA
ATOM      4  O2S GNS d 142     -28.357  -9.441  56.528  0.00  0.00    -0.296 OA
ATOM      5  O3  GNS d 142     -26.973  -8.697  58.791  0.00  0.00    -0.391 OA
ATOM      6  C3  GNS d 142     -27.091  -9.816  59.641  0.00  0.00     0.083 C 
ATOM      7  C4  GNS d 142     -27.478  -9.353  61.040  0.00  0.00     0.089 C 
ATOM      8  O5  GNS d 142     -28.913 -11.256  61.289  0.00  0.00    -0.349 OA
ATOM      9  O4  GNS d 142     -26.390  -8.677  61.629  0.00  0.00    -0.390 OA
ATOM     10  O6  GNS d 142     -29.750 -10.098  63.343  0.00  0.00    -0.398 OA
ATOM     11  C6  GNS d 142     -28.342 -10.065  63.288  0.00  0.00     0.043 C 
ATOM     12  S1  GNS d 142     -28.192 -10.889  56.437  0.00  0.00     0.156 S 
ATOM     13  O3S GNS d 142     -27.198 -11.272  55.439  0.00  0.00    -0.296 OA
ATOM     14  C5  GNS d 142     -27.876 -10.535  61.915  0.00  0.00     0.089 C 
ATOM     15  O1S GNS d 142     -29.466 -11.569  56.224  0.00  0.00    -0.296 OA
ATOM     16  H   GNS d 142     -29.263 -12.474  59.696  0.00  0.00     0.131 H 
ATOM     17  H   GNS d 142     -29.019 -10.218  58.860  0.00  0.00     0.076 H 
ATOM     18  H   GNS d 142     -27.835 -12.379  57.919  0.00  0.00     0.140 HD
ATOM     19  H   GNS d 142     -29.025  -9.234  57.200  0.00  0.00     0.231 HD
ATOM     20  H   GNS d 142     -26.727  -8.991  57.900  0.00  0.00     0.210 HD
ATOM     21  H   GNS d 142     -26.154 -10.330  59.701  0.00  0.00     0.089 H 
ATOM     22  H   GNS d 142     -28.317  -8.694  60.959  0.00  0.00     0.091 H 
ATOM     23  H   GNS d 142     -25.634  -9.282  61.699  0.00  0.00     0.210 HD
ATOM     24  H   GNS d 142     -30.047  -9.799  64.217  0.00  0.00     0.209 HD
ATOM     25  H   GNS d 142     -27.940 -10.711  64.041  0.00  0.00     0.078 H 
ATOM     26  H   GNS d 142     -28.001  -9.065  63.458  0.00  0.00     0.078 H 
ATOM     27  H   GNS d 142     -26.368 -10.801  55.613  0.00  0.00     0.231 HD
ATOM     28  H   GNS d 142     -27.019 -11.163  62.044  0.00  0.00     0.090 H 
ATOM     29  H   GNS d 142     -30.099 -11.291  56.904  0.00  0.00     0.231 HD
ATOM     30  S   IDY d 143     -23.899 -12.177  56.929  0.00  0.00     0.252 S 
ATOM     31  O1  IDY d 143     -23.536 -15.249  59.871  0.00  0.00    -0.363 OA
ATOM     32  C5  IDY d 143     -25.409 -13.852  61.546  0.00  0.00     0.152 C 
ATOM     33  C4  IDY d 143     -26.653 -13.777  60.647  0.00  0.00     0.103 C 
ATOM     34  O62 IDY d 143     -25.375 -11.723  62.700  0.00  0.00    -0.646 OA
ATOM     35  O2  IDY d 143     -25.028 -12.565  57.908  0.00  0.00    -0.244 OA
ATOM     36  O61 IDY d 143     -25.866 -13.592  63.848  0.00  0.00    -0.646 OA
ATOM     37  C3  IDY d 143     -26.413 -14.170  59.177  0.00  0.00     0.094 C 
ATOM     38  C7  IDY d 143     -24.204 -15.940  60.492  0.00  0.00     0.007 C 
ATOM     39  O3  IDY d 143     -26.510 -15.596  59.082  0.00  0.00    -0.390 OA
ATOM     40  C2  IDY d 143     -25.040 -13.826  58.591  0.00  0.00     0.134 C 
ATOM     41  OS3 IDY d 143     -22.565 -12.727  57.353  0.00  0.00    -0.572 OA
ATOM     42  O4  IDY d 143     -27.343 -12.650  60.344  0.00  0.00    -0.348 OA
ATOM     43  C1  IDY d 143     -23.919 -13.899  59.637  0.00  0.00     0.160 C 
ATOM     44  C6  IDY d 143     -25.579 -12.991  62.762  0.00  0.00     0.206 C 
ATOM     45  OS1 IDY d 143     -23.852 -10.687  56.813  0.00  0.00    -0.572 OA
ATOM     46  O5  IDY d 143     -24.240 -13.321  60.907  0.00  0.00    -0.340 OA
ATOM     47  OS2 IDY d 143     -24.264 -12.746  55.626  0.00  0.00    -0.572 OA
ATOM     48  H   IDY d 143     -25.297 -14.892  61.775  0.00  0.00     0.104 H 
ATOM     49  H   IDY d 143     -27.187 -14.394  61.339  0.00  0.00     0.092 H 
ATOM     50  H   IDY d 143     -27.143 -13.610  58.629  0.00  0.00     0.091 H 
ATOM     51  H   IDY d 143     -23.753 -16.908  60.558  0.00  0.00     0.066 H 
ATOM     52  H   IDY d 143     -25.162 -16.024  60.024  0.00  0.00     0.066 H 
ATOM     53  H   IDY d 143     -24.321 -15.533  61.474  0.00  0.00     0.066 H 
ATOM     54  H   IDY d 143     -25.807 -16.003  59.611  0.00  0.00     0.210 HD
ATOM     55  H   IDY d 143     -24.842 -14.582  57.860  0.00  0.00     0.097 H 
ATOM     56  H   IDY d 143     -23.127 -13.322  59.208  0.00  0.00     0.133 H 
ENDROOT
TORSDOF 17
ENDMDL
MODEL 2
REMARK VINA RESULT:      -7.0      2.442      5.371
REMARK  0 active torsions:
REMARK  status: ('A' for Active; 'I' for Inactive)
REMARK       I    between atoms: C1_1  and  O4_26 
REMARK       I    between atoms: C2_2  and  N_3 
REMARK       I    between atoms: N_3  and  S1_23 
REMARK       I    between atoms: O2S_4  and  S1_23 
REMARK       I    between atoms: S_5  and  O2_15 
REMARK       I    between atoms: O1_6  and  C1_27 
REMARK       I    between atoms: O1_6  and  C7_20 
REMARK       I    between atoms: C5_7  and  C6_28 
REMARK       I    between atoms: O3_8  and  C3_9 
REMARK       I    between atoms: C4_10  and  O4_26 
REMARK       I    between atoms: C4_11  and  O4_14 
REMARK       I    between atoms: O2_15  and  C2_22 
REMARK       I    between atoms: O6_17  and  C6_18 
REMARK       I    between atoms: C6_18  and  C5_29 
REMARK       I    between atoms: C3_19  and  O3_21 
REMARK       I    between atoms: S1_23  and  O1S_30 
REMARK       I    between atoms: S1_23  and  O3S_25 
ROOT
ATOM      1  C1  GNS d 142     -27.381  -9.917  58.814  0.00  0.00     0.150 C 
ATOM      2  C2  GNS d 142     -28.348 -10.596  59.775  0.00  0.00     0.081 C 
ATOM      3  N   GNS d 142     -27.653 -10.983  60.988  0.00  0.00    -0.210 NA
ATOM      4  O2S GNS d 142     -29.733 -10.874  62.291  0.00  0.00    -0.296 OA
ATOM      5  O3  GNS d 142     -30.051 -12.274  59.939  0.00  0.00    -0.391 OA
ATOM      6  C3  GNS d 142     -28.990 -11.819  59.130  0.00  0.00     0.083 C 
ATOM      7  C4  GNS d 142     -29.518 -11.488  57.739  0.00  0.00     0.089 C 
ATOM      8  O5  GNS d 142     -28.057  -9.591  57.620  0.00  0.00    -0.349 OA
ATOM      9  O4  GNS d 142     -29.873 -12.680  57.076  0.00  0.00    -0.390 OA
ATOM     10  O6  GNS d 142     -29.364  -8.972  55.578  0.00  0.00    -0.398 OA
ATOM     11  C6  GNS d 142     -29.024 -10.341  55.560  0.00  0.00     0.043 C 
ATOM     12  S1  GNS d 142     -28.295 -10.658  62.417  0.00  0.00     0.156 S 
ATOM     13  O3S GNS d 142     -27.678 -11.572  63.374  0.00  0.00    -0.296 OA
ATOM     14  C5  GNS d 142     -28.469 -10.744  56.921  0.00  0.00     0.089 C 
ATOM     15  O1S GNS d 142     -27.978  -9.264  62.714  0.00  0.00    -0.296 OA
ATOM     16  H   GNS d 142     -27.000  -9.025  59.264  0.00  0.00     0.131 H 
ATOM     17  H   GNS d 142     -29.123  -9.900  60.020  0.00  0.00     0.076 H 
ATOM     18  H   GNS d 142     -26.741 -10.526  60.963  0.00  0.00     0.140 HD
ATOM     19  H   GNS d 142     -30.099 -10.248  61.648  0.00  0.00     0.231 HD
ATOM     20  H   GNS d 142     -29.716 -12.485  60.825  0.00  0.00     0.210 HD
ATOM     21  H   GNS d 142     -28.246 -12.582  59.038  0.00  0.00     0.089 H 
ATOM     22  H   GNS d 142     -30.376 -10.857  57.843  0.00  0.00     0.091 H 
ATOM     23  H   GNS d 142     -29.089 -13.245  56.986  0.00  0.00     0.210 HD
ATOM     24  H   GNS d 142     -29.717  -8.715  54.712  0.00  0.00     0.209 HD
ATOM     25  H   GNS d 142     -28.284 -10.515  54.807  0.00  0.00     0.078 H 
ATOM     26  H   GNS d 142     -29.896 -10.922  55.344  0.00  0.00     0.078 H 
ATOM     27  H   GNS d 142     -27.911 -12.486  63.144  0.00  0.00     0.231 HD
ATOM     28  H   GNS d 142     -27.636 -11.397  56.768  0.00  0.00     0.090 H 
ATOM     29  H   GNS d 142     -28.403  -8.689  62.059  0.00  0.00     0.231 HD
ATOM     30  S   IDY d 143     -25.912 -14.427  61.745  0.00  0.00     0.252 S 
ATOM     31  O1  IDY d 143     -22.808 -13.801  58.881  0.00  0.00    -0.363 OA
ATOM     32  C5  IDY d 143     -24.624 -12.269  57.263  0.00  0.00     0.152 C 
ATOM     33  C4  IDY d 143     -25.039 -11.142  58.221  0.00  0.00     0.103 C 
ATOM     34  O62 IDY d 143     -26.651 -12.796  56.046  0.00  0.00    -0.646 OA
ATOM     35  O2  IDY d 143     -25.820 -13.181  60.837  0.00  0.00    -0.244 OA
ATOM     36  O61 IDY d 143     -24.961 -11.767  54.980  0.00  0.00    -0.646 OA
ATOM     37  C3  IDY d 143     -24.619 -11.353  59.688  0.00  0.00     0.094 C 
ATOM     38  C7  IDY d 143     -22.309 -12.941  58.316  0.00  0.00     0.007 C 
ATOM     39  O3  IDY d 143     -23.271 -10.891  59.830  0.00  0.00    -0.390 OA
ATOM     40  C2  IDY d 143     -24.597 -12.800  60.193  0.00  0.00     0.134 C 
ATOM     41  OS3 IDY d 143     -25.023 -15.543  61.271  0.00  0.00    -0.572 OA
ATOM     42  O4  IDY d 143     -26.312 -10.791  58.525  0.00  0.00    -0.348 OA
ATOM     43  C1  IDY d 143     -24.215 -13.800  59.094  0.00  0.00     0.160 C 
ATOM     44  C6  IDY d 143     -25.482 -12.263  56.032  0.00  0.00     0.206 C 
ATOM     45  OS1 IDY d 143     -27.338 -14.870  61.814  0.00  0.00    -0.572 OA
ATOM     46  O5  IDY d 143     -24.838 -13.571  57.825  0.00  0.00    -0.340 OA
ATOM     47  OS2 IDY d 143     -25.479 -14.000  63.081  0.00  0.00    -0.572 OA
ATOM     48  H   IDY d 143     -23.589 -12.091  57.059  0.00  0.00     0.104 H 
ATOM     49  H   IDY d 143     -24.575 -10.426  57.576  0.00  0.00     0.092 H 
ATOM     50  H   IDY d 143     -25.360 -10.829  60.255  0.00  0.00     0.091 H 
ATOM     51  H   IDY d 143     -21.256 -13.118  58.256  0.00  0.00     0.066 H 
ATOM     52  H   IDY d 143     -22.488 -12.022  58.834  0.00  0.00     0.066 H 
ATOM     53  H   IDY d 143     -22.717 -12.879  57.329  0.00  0.00     0.066 H 
ATOM     54  H   IDY d 143     -22.684 -11.431  59.278  0.00  0.00     0.210 HD
ATOM     55  H   IDY d 143     -23.827 -12.833  60.935  0.00  0.00     0.097 H 
ATOM     56  H   IDY d 143     -24.568 -14.740  59.465  0.00  0.00     0.133 H 
ENDROOT
TORSDOF 17
ENDMDL
MODEL 3
REMARK VINA RESULT:      -6.9      2.392      5.456
REMARK  0 active torsions:
REMARK  status: ('A' for Active; 'I' for Inactive)
REMARK       I    between atoms: C1_1  and  O4_26 
REMARK       I    between atoms: C2_2  and  N_3 
REMARK       I    between atoms: N_3  and  S1_23 
REMARK       I    between atoms: O2S_4  and  S1_23 
REMARK       I    between atoms: S_5  and  O2_15 
REMARK       I    between atoms: O1_6  and  C1_27 
REMARK       I    between atoms: O1_6  and  C7_20 
REMARK       I    between atoms: C5_7  and  C6_28 
REMARK       I    between atoms: O3_8  and  C3_9 
REMARK       I    between atoms: C4_10  and  O4_26 
REMARK       I    between atoms: C4_11  and  O4_14 
REMARK       I    between atoms: O2_15  and  C2_22 
REMARK       I    between atoms: O6_17  and  C6_18 
REMARK       I    between atoms: C6_18  and  C5_29 
REMARK       I    between atoms: C3_19  and  O3_21 
REMARK       I    between atoms: S1_23  and  O1S_30 
REMARK       I    between atoms: S1_23  and  O3S_25 
ROOT
ATOM      1  C1  GNS d 142     -24.011 -11.617  60.278  0.00  0.00     0.150 C 
ATOM      2  C2  GNS d 142     -25.079 -10.839  59.519  0.00  0.00     0.081 C 
ATOM      3  N   GNS d 142     -26.192 -10.537  60.398  0.00  0.00    -0.210 NA
ATOM      4  O2S GNS d 142     -26.793  -8.564  59.063  0.00  0.00    -0.296 OA
ATOM      5  O3  GNS d 142     -26.362 -10.789  57.495  0.00  0.00    -0.391 OA
ATOM      6  C3  GNS d 142     -25.570 -11.625  58.309  0.00  0.00     0.083 C 
ATOM      7  C4  GNS d 142     -24.398 -12.162  57.495  0.00  0.00     0.089 C 
ATOM      8  O5  GNS d 142     -22.958 -11.948  59.400  0.00  0.00    -0.349 OA
ATOM      9  O4  GNS d 142     -24.873 -13.084  56.540  0.00  0.00    -0.390 OA
ATOM     10  O6  GNS d 142     -21.100 -12.408  57.788  0.00  0.00    -0.398 OA
ATOM     11  C6  GNS d 142     -22.167 -13.311  57.595  0.00  0.00     0.043 C 
ATOM     12  S1  GNS d 142     -26.803  -9.059  60.436  0.00  0.00     0.156 S 
ATOM     13  O3S GNS d 142     -28.155  -9.175  60.974  0.00  0.00    -0.296 OA
ATOM     14  C5  GNS d 142     -23.377 -12.846  58.396  0.00  0.00     0.089 C 
ATOM     15  O1S GNS d 142     -25.937  -8.266  61.305  0.00  0.00    -0.296 OA
ATOM     16  H   GNS d 142     -23.634 -11.015  61.078  0.00  0.00     0.131 H 
ATOM     17  H   GNS d 142     -24.645  -9.925  59.172  0.00  0.00     0.076 H 
ATOM     18  H   GNS d 142     -25.885 -10.753  61.347  0.00  0.00     0.140 HD
ATOM     19  H   GNS d 142     -25.879  -8.503  58.748  0.00  0.00     0.231 HD
ATOM     20  H   GNS d 142     -27.108 -10.447  58.013  0.00  0.00     0.210 HD
ATOM     21  H   GNS d 142     -26.149 -12.454  58.657  0.00  0.00     0.089 H 
ATOM     22  H   GNS d 142     -23.920 -11.340  57.005  0.00  0.00     0.091 H 
ATOM     23  H   GNS d 142     -25.304 -13.825  56.993  0.00  0.00     0.210 HD
ATOM     24  H   GNS d 142     -20.330 -12.704  57.278  0.00  0.00     0.209 HD
ATOM     25  H   GNS d 142     -21.873 -14.285  57.924  0.00  0.00     0.078 H 
ATOM     26  H   GNS d 142     -22.419 -13.347  56.556  0.00  0.00     0.078 H 
ATOM     27  H   GNS d 142     -28.698  -9.707  60.371  0.00  0.00     0.231 HD
ATOM     28  H   GNS d 142     -23.839 -13.702  58.841  0.00  0.00     0.090 H 
ATOM     29  H   GNS d 142     -25.051  -8.211  60.917  0.00  0.00     0.231 HD
ATOM     30  S   IDY d 143     -29.443 -12.677  60.956  0.00  0.00     0.252 S 
ATOM     31  O1  IDY d 143     -27.354 -15.843  62.916  0.00  0.00    -0.363 OA
ATOM     32  C5  IDY d 143     -25.026 -15.278  61.327  0.00  0.00     0.152 C 
ATOM     33  C4  IDY d 143     -24.737 -13.813  61.688  0.00  0.00     0.103 C 
ATOM     34  O62 IDY d 143     -24.526 -15.422  58.961  0.00  0.00    -0.646 OA
ATOM     35  O2  IDY d 143     -27.913 -12.694  61.169  0.00  0.00    -0.244 OA
ATOM     36  O61 IDY d 143     -23.171 -16.438  60.439  0.00  0.00    -0.646 OA
ATOM     37  C3  IDY d 143     -25.857 -13.107  62.474  0.00  0.00     0.094 C 
ATOM     38  C7  IDY d 143     -26.367 -16.023  63.464  0.00  0.00     0.007 C 
ATOM     39  O3  IDY d 143     -25.681 -13.416  63.862  0.00  0.00    -0.390 OA
ATOM     40  C2  IDY d 143     -27.293 -13.533  62.153  0.00  0.00     0.134 C 
ATOM     41  OS3 IDY d 143     -30.062 -14.030  61.176  0.00  0.00    -0.572 OA
ATOM     42  O4  IDY d 143     -24.573 -12.798  60.803  0.00  0.00    -0.348 OA
ATOM     43  C1  IDY d 143     -27.394 -15.013  61.761  0.00  0.00     0.160 C 
ATOM     44  C6  IDY d 143     -24.185 -15.716  60.165  0.00  0.00     0.206 C 
ATOM     45  OS1 IDY d 143     -29.733 -12.173  59.579  0.00  0.00    -0.572 OA
ATOM     46  O5  IDY d 143     -26.372 -15.473  60.870  0.00  0.00    -0.340 OA
ATOM     47  OS2 IDY d 143     -29.989 -11.731  61.936  0.00  0.00    -0.572 OA
ATOM     48  H   IDY d 143     -24.830 -15.828  62.224  0.00  0.00     0.104 H 
ATOM     49  H   IDY d 143     -23.807 -14.108  62.127  0.00  0.00     0.092 H 
ATOM     50  H   IDY d 143     -25.762 -12.075  62.205  0.00  0.00     0.091 H 
ATOM     51  H   IDY d 143     -26.535 -16.668  64.301  0.00  0.00     0.066 H 
ATOM     52  H   IDY d 143     -25.975 -15.088  63.809  0.00  0.00     0.066 H 
ATOM     53  H   IDY d 143     -25.667 -16.479  62.797  0.00  0.00     0.066 H 
ATOM     54  H   IDY d 143     -25.786 -14.371  63.996  0.00  0.00     0.210 HD
ATOM     55  H   IDY d 143     -27.840 -13.407  63.064  0.00  0.00     0.097 H 
ATOM     56  H   IDY d 143     -28.329 -15.082  61.246  0.00  0.00     0.133 H 
ENDROOT
TORSDOF 17
ENDMDL
MODEL 4
REMARK VINA RESULT:      -6.6      1.971      5.331
REMARK  0 active torsions:
REMARK  status: ('A' for Active; 'I' for Inactive)
REMARK       I    between atoms: C1_1  and  O4_26 
REMARK       I    between atoms: C2_2  and  N_3 
REMARK       I    between atoms: N_3  and  S1_23 
REMARK       I    between atoms: O2S_4  and  S1_23 
REMARK       I    between atoms: S_5  and  O2_15 
REMARK       I    between atoms: O1_6  and  C1_27 
REMARK       I    between atoms: O1_6  and  C7_20 
REMARK       I    between atoms: C5_7  and  C6_28 
REMARK       I    between atoms: O3_8  and  C3_9 
REMARK       I    between atoms: C4_10  and  O4_26 
REMARK       I    between atoms: C4_11  and  O4_14 
REMARK       I    between atoms: O2_15  and  C2_22 
REMARK       I    between atoms: O6_17  and  C6_18 
REMARK       I    between atoms: C6_18  and  C5_29 
REMARK       I    between atoms: C3_19  and  O3_21 
REMARK       I    between atoms: S1_23  and  O1S_30 
REMARK       I    between atoms: S1_23  and  O3S_25 
ROOT
ATOM      1  C1  GNS d 142     -23.832 -13.861  60.330  0.00  0.00     0.150 C 
ATOM      2  C2  GNS d 142     -24.294 -14.748  59.181  0.00  0.00     0.081 C 
ATOM      3  N   GNS d 142     -24.193 -14.028  57.926  0.00  0.00    -0.210 NA
ATOM      4  O2S GNS d 142     -23.946 -16.125  56.670  0.00  0.00    -0.296 OA
ATOM      5  O3  GNS d 142     -26.038 -16.226  58.461  0.00  0.00    -0.391 OA
ATOM      6  C3  GNS d 142     -25.727 -15.219  59.398  0.00  0.00     0.083 C 
ATOM      7  C4  GNS d 142     -25.915 -15.763  60.809  0.00  0.00     0.089 C 
ATOM      8  O5  GNS d 142     -23.982 -14.554  61.549  0.00  0.00    -0.349 OA
ATOM      9  O4  GNS d 142     -27.289 -15.953  61.060  0.00  0.00    -0.390 OA
ATOM     10  O6  GNS d 142     -24.200 -15.898  63.648  0.00  0.00    -0.398 OA
ATOM     11  C6  GNS d 142     -25.452 -15.386  63.249  0.00  0.00     0.043 C 
ATOM     12  S1  GNS d 142     -23.522 -14.728  56.654  0.00  0.00     0.156 S 
ATOM     13  O3S GNS d 142     -24.007 -14.015  55.476  0.00  0.00    -0.296 OA
ATOM     14  C5  GNS d 142     -25.338 -14.806  61.844  0.00  0.00     0.089 C 
ATOM     15  O1S GNS d 142     -22.077 -14.596  56.813  0.00  0.00    -0.296 OA
ATOM     16  H   GNS d 142     -22.803 -13.603  60.190  0.00  0.00     0.131 H 
ATOM     17  H   GNS d 142     -23.659 -15.609  59.146  0.00  0.00     0.076 H 
ATOM     18  H   GNS d 142     -23.655 -13.182  58.115  0.00  0.00     0.140 HD
ATOM     19  H   GNS d 142     -23.602 -16.557  57.466  0.00  0.00     0.231 HD
ATOM     20  H   GNS d 142     -25.918 -15.880  57.563  0.00  0.00     0.210 HD
ATOM     21  H   GNS d 142     -26.381 -14.382  59.267  0.00  0.00     0.089 H 
ATOM     22  H   GNS d 142     -25.397 -16.696  60.885  0.00  0.00     0.091 H 
ATOM     23  H   GNS d 142     -27.751 -15.103  60.989  0.00  0.00     0.210 HD
ATOM     24  H   GNS d 142     -24.272 -16.268  64.542  0.00  0.00     0.209 HD
ATOM     25  H   GNS d 142     -25.757 -14.619  63.929  0.00  0.00     0.078 H 
ATOM     26  H   GNS d 142     -26.176 -16.174  63.251  0.00  0.00     0.078 H 
ATOM     27  H   GNS d 142     -24.969 -14.125  55.405  0.00  0.00     0.231 HD
ATOM     28  H   GNS d 142     -25.895 -13.893  61.808  0.00  0.00     0.090 H 
ATOM     29  H   GNS d 142     -21.792 -15.081  57.603  0.00  0.00     0.231 HD
ATOM     30  S   IDY d 143     -26.981 -11.874  56.180  0.00  0.00     0.252 S 
ATOM     31  O1  IDY d 143     -26.894  -8.832  59.175  0.00  0.00    -0.363 OA
ATOM     32  C5  IDY d 143     -26.183 -10.803  61.142  0.00  0.00     0.152 C 
ATOM     33  C4  IDY d 143     -24.875 -11.373  60.572  0.00  0.00     0.103 C 
ATOM     34  O62 IDY d 143     -27.314 -12.728  62.083  0.00  0.00    -0.646 OA
ATOM     35  O2  IDY d 143     -26.080 -11.928  57.433  0.00  0.00    -0.244 OA
ATOM     36  O61 IDY d 143     -26.464 -11.166  63.459  0.00  0.00    -0.646 OA
ATOM     37  C3  IDY d 143     -24.565 -10.952  59.123  0.00  0.00     0.094 C 
ATOM     38  C7  IDY d 143     -26.197  -8.438  59.991  0.00  0.00     0.007 C 
ATOM     39  O3  IDY d 143     -23.915  -9.676  59.165  0.00  0.00    -0.390 OA
ATOM     40  C2  IDY d 143     -25.767 -10.754  58.194  0.00  0.00     0.134 C 
ATOM     41  OS3 IDY d 143     -28.069 -10.843  56.306  0.00  0.00    -0.572 OA
ATOM     42  O4  IDY d 143     -24.610 -12.685  60.360  0.00  0.00    -0.348 OA
ATOM     43  C1  IDY d 143     -27.004 -10.231  58.937  0.00  0.00     0.160 C 
ATOM     44  C6  IDY d 143     -26.669 -11.636  62.292  0.00  0.00     0.206 C 
ATOM     45  OS1 IDY d 143     -27.556 -13.233  55.941  0.00  0.00    -0.572 OA
ATOM     46  O5  IDY d 143     -27.262 -10.858  60.198  0.00  0.00    -0.340 OA
ATOM     47  OS2 IDY d 143     -26.108 -11.519  55.055  0.00  0.00    -0.572 OA
ATOM     48  H   IDY d 143     -25.949  -9.796  61.418  0.00  0.00     0.104 H 
ATOM     49  H   IDY d 143     -24.344 -10.994  61.420  0.00  0.00     0.092 H 
ATOM     50  H   IDY d 143     -23.987 -11.763  58.728  0.00  0.00     0.091 H 
ATOM     51  H   IDY d 143     -26.250  -7.370  60.020  0.00  0.00     0.066 H 
ATOM     52  H   IDY d 143     -25.193  -8.740  59.780  0.00  0.00     0.066 H 
ATOM     53  H   IDY d 143     -26.498  -8.835  60.938  0.00  0.00     0.066 H 
ATOM     54  H   IDY d 143     -24.522  -9.017  59.537  0.00  0.00     0.210 HD
ATOM     55  H   IDY d 143     -25.470  -9.997  57.498  0.00  0.00     0.097 H 
ATOM     56  H   IDY d 143     -27.817 -10.467  58.284  0.00  0.00     0.133 H 
ENDROOT
TORSDOF 17
ENDMDL
MODEL 5
REMARK VINA RESULT:      -6.6      2.156      5.525
REMARK  0 active torsions:
REMARK  status: ('A' for Active; 'I' for Inactive)
REMARK       I    between atoms: C1_1  and  O4_26 
REMARK       I    between atoms: C2_2  and  N_3 
REMARK       I    between atoms: N_3  and  S1_23 
REMARK       I    between atoms: O2S_4  and  S1_23 
REMARK       I    between atoms: S_5  and  O2_15 
REMARK       I    between atoms: O1_6  and  C1_27 
REMARK       I    between atoms: O1_6  and  C7_20 
REMARK       I    between atoms: C5_7  and  C6_28 
REMARK       I    between atoms: O3_8  and  C3_9 
REMARK       I    between atoms: C4_10  and  O4_26 
REMARK       I    between atoms: C4_11  and  O4_14 
REMARK       I    between atoms: O2_15  and  C2_22 
REMARK       I    between atoms: O6_17  and  C6_18 
REMARK       I    between atoms: C6_18  and  C5_29 
REMARK       I    between atoms: C3_19  and  O3_21 
REMARK       I    between atoms: S1_23  and  O1S_30 
REMARK       I    between atoms: S1_23  and  O3S_25 
ROOT
ATOM      1  C1  GNS d 142     -25.553 -14.204  58.769  0.00  0.00     0.150 C 
ATOM      2  C2  GNS d 142     -25.382 -12.972  57.890  0.00  0.00     0.081 C 
ATOM      3  N   GNS d 142     -24.865 -11.869  58.677  0.00  0.00    -0.210 NA
ATOM      4  O2S GNS d 142     -23.854 -10.840  56.688  0.00  0.00    -0.296 OA
ATOM      5  O3  GNS d 142     -26.467 -11.600  56.252  0.00  0.00    -0.391 OA
ATOM      6  C3  GNS d 142     -26.703 -12.576  57.242  0.00  0.00     0.083 C 
ATOM      7  C4  GNS d 142     -27.385 -13.785  56.611  0.00  0.00     0.089 C 
ATOM      8  O5  GNS d 142     -26.103 -15.254  58.004  0.00  0.00    -0.349 OA
ATOM      9  O4  GNS d 142     -28.703 -13.442  56.247  0.00  0.00    -0.390 OA
ATOM     10  O6  GNS d 142     -26.993 -17.081  56.544  0.00  0.00    -0.398 OA
ATOM     11  C6  GNS d 142     -28.023 -16.194  56.922  0.00  0.00     0.043 C 
ATOM     12  S1  GNS d 142     -23.645 -10.994  58.125  0.00  0.00     0.156 S 
ATOM     13  O3S GNS d 142     -23.688  -9.718  58.831  0.00  0.00    -0.296 OA
ATOM     14  C5  GNS d 142     -27.415 -14.961  57.579  0.00  0.00     0.089 C 
ATOM     15  O1S GNS d 142     -22.424 -11.739  58.420  0.00  0.00    -0.296 OA
ATOM     16  H   GNS d 142     -24.601 -14.503  59.154  0.00  0.00     0.131 H 
ATOM     17  H   GNS d 142     -24.685 -13.209  57.114  0.00  0.00     0.076 H 
ATOM     18  H   GNS d 142     -24.567 -12.260  59.571  0.00  0.00     0.140 HD
ATOM     19  H   GNS d 142     -23.818 -11.710  56.261  0.00  0.00     0.231 HD
ATOM     20  H   GNS d 142     -26.032 -10.831  56.653  0.00  0.00     0.210 HD
ATOM     21  H   GNS d 142     -27.346 -12.181  58.000  0.00  0.00     0.089 H 
ATOM     22  H   GNS d 142     -26.830 -14.073  55.744  0.00  0.00     0.091 H 
ATOM     23  H   GNS d 142     -29.200 -13.182  57.039  0.00  0.00     0.210 HD
ATOM     24  H   GNS d 142     -27.380 -17.865  56.125  0.00  0.00     0.209 HD
ATOM     25  H   GNS d 142     -28.677 -16.681  57.613  0.00  0.00     0.078 H 
ATOM     26  H   GNS d 142     -28.576 -15.899  56.054  0.00  0.00     0.078 H 
ATOM     27  H   GNS d 142     -24.511  -9.254  58.611  0.00  0.00     0.231 HD
ATOM     28  H   GNS d 142     -28.020 -14.691  58.420  0.00  0.00     0.090 H 
ATOM     29  H   GNS d 142     -22.432 -12.578  57.934  0.00  0.00     0.231 HD
ATOM     30  S   IDY d 143     -26.935  -9.110  60.566  0.00  0.00     0.252 S 
ATOM     31  O1  IDY d 143     -28.483 -11.854  63.448  0.00  0.00    -0.363 OA
ATOM     32  C5  IDY d 143     -28.402 -13.949  61.482  0.00  0.00     0.152 C 
ATOM     33  C4  IDY d 143     -26.913 -13.977  61.100  0.00  0.00     0.103 C 
ATOM     34  O62 IDY d 143     -29.562 -14.346  59.393  0.00  0.00    -0.646 OA
ATOM     35  O2  IDY d 143     -26.632 -10.625  60.559  0.00  0.00    -0.244 OA
ATOM     36  O61 IDY d 143     -29.564 -15.941  60.976  0.00  0.00    -0.646 OA
ATOM     37  C3  IDY d 143     -26.090 -12.786  61.625  0.00  0.00     0.094 C 
ATOM     38  C7  IDY d 143     -28.243 -12.884  63.882  0.00  0.00     0.007 C 
ATOM     39  O3  IDY d 143     -25.685 -13.088  62.966  0.00  0.00    -0.390 OA
ATOM     40  C2  IDY d 143     -26.816 -11.441  61.724  0.00  0.00     0.134 C 
ATOM     41  OS3 IDY d 143     -28.100  -8.768  61.453  0.00  0.00    -0.572 OA
ATOM     42  O4  IDY d 143     -26.419 -13.902  59.841  0.00  0.00    -0.348 OA
ATOM     43  C1  IDY d 143     -28.304 -11.599  62.059  0.00  0.00     0.160 C 
ATOM     44  C6  IDY d 143     -29.207 -14.797  60.543  0.00  0.00     0.206 C 
ATOM     45  OS1 IDY d 143     -27.180  -8.661  59.162  0.00  0.00    -0.572 OA
ATOM     46  O5  IDY d 143     -28.977 -12.642  61.345  0.00  0.00    -0.340 OA
ATOM     47  OS2 IDY d 143     -25.729  -8.448  61.076  0.00  0.00    -0.572 OA
ATOM     48  H   IDY d 143     -28.434 -14.292  62.496  0.00  0.00     0.104 H 
ATOM     49  H   IDY d 143     -26.833 -14.967  61.499  0.00  0.00     0.092 H 
ATOM     50  H   IDY d 143     -25.302 -12.672  60.909  0.00  0.00     0.091 H 
ATOM     51  H   IDY d 143     -28.439 -12.883  64.934  0.00  0.00     0.066 H 
ATOM     52  H   IDY d 143     -27.211 -13.111  63.712  0.00  0.00     0.066 H 
ATOM     53  H   IDY d 143     -28.854 -13.622  63.406  0.00  0.00     0.066 H 
ATOM     54  H   IDY d 143     -26.471 -13.171  63.529  0.00  0.00     0.210 HD
ATOM     55  H   IDY d 143     -26.358 -10.927  62.543  0.00  0.00     0.097 H 
ATOM     56  H   IDY d 143     -28.738 -10.668  61.760  0.00  0.00     0.133 H 
ENDROOT
TORSDOF 17
ENDMDL
MODEL 6
REMARK VINA RESULT:      -6.5      2.208      3.068
REMARK  0 active torsions:
REMARK  status: ('A' for Active; 'I' for Inactive)
REMARK       I    between atoms: C1_1  and  O4_26 
REMARK       I    between atoms: C2_2  and  N_3 
REMARK       I    between atoms: N_3  and  S1_23 
REMARK       I    between atoms: O2S_4  and  S1_23 
REMARK       I    between atoms: S_5  and  O2_15 
REMARK       I    between atoms: O1_6  and  C1_27 
REMARK       I    between atoms: O1_6  and  C7_20 
REMARK       I    between atoms: C5_7  and  C6_28 
REMARK       I    between atoms: O3_8  and  C3_9 
REMARK       I    between atoms: C4_10  and  O4_26 
REMARK       I    between atoms: C4_11  and  O4_14 
REMARK       I    between atoms: O2_15  and  C2_22 
REMARK       I    between atoms: O6_17  and  C6_18 
REMARK       I    between atoms: C6_18  and  C5_29 
REMARK       I    between atoms: C3_19  and  O3_21 
REMARK       I    between atoms: S1_23  and  O1S_30 
REMARK       I    between atoms: S1_23  and  O3S_25 
ROOT
ATOM      1  C1  GNS d 142     -26.407 -13.194  58.400  0.00  0.00     0.150 C 
ATOM      2  C2  GNS d 142     -25.473 -12.241  57.666  0.00  0.00     0.081 C 
ATOM      3  N   GNS d 142     -24.505 -12.994  56.892  0.00  0.00    -0.210 NA
ATOM      4  O2S GNS d 142     -24.232 -11.134  55.308  0.00  0.00    -0.296 OA
ATOM      5  O3  GNS d 142     -24.097 -10.296  57.930  0.00  0.00    -0.391 OA
ATOM      6  C3  GNS d 142     -24.754 -11.319  58.644  0.00  0.00     0.083 C 
ATOM      7  C4  GNS d 142     -25.736 -10.699  59.631  0.00  0.00     0.089 C 
ATOM      8  O5  GNS d 142     -27.311 -12.451  59.189  0.00  0.00    -0.349 OA
ATOM      9  O4  GNS d 142     -25.022 -10.061  60.665  0.00  0.00    -0.390 OA
ATOM     10  O6  GNS d 142     -28.927 -11.044  60.481  0.00  0.00    -0.398 OA
ATOM     11  C6  GNS d 142     -27.689 -11.129  61.151  0.00  0.00     0.043 C 
ATOM     12  S1  GNS d 142     -24.211 -12.593  55.371  0.00  0.00     0.156 S 
ATOM     13  O3S GNS d 142     -22.902 -13.144  55.035  0.00  0.00    -0.296 OA
ATOM     14  C5  GNS d 142     -26.653 -11.760  60.227  0.00  0.00     0.089 C 
ATOM     15  O1S GNS d 142     -25.275 -13.187  54.565  0.00  0.00    -0.296 OA
ATOM     16  H   GNS d 142     -26.950 -13.779  57.689  0.00  0.00     0.131 H 
ATOM     17  H   GNS d 142     -26.060 -11.637  57.006  0.00  0.00     0.076 H 
ATOM     18  H   GNS d 142     -24.823 -13.963  56.885  0.00  0.00     0.140 HD
ATOM     19  H   GNS d 142     -25.117 -10.814  55.538  0.00  0.00     0.231 HD
ATOM     20  H   GNS d 142     -23.472 -10.690  57.301  0.00  0.00     0.210 HD
ATOM     21  H   GNS d 142     -24.042 -11.899  59.193  0.00  0.00     0.089 H 
ATOM     22  H   GNS d 142     -26.338  -9.986  59.108  0.00  0.00     0.091 H 
ATOM     23  H   GNS d 142     -24.479 -10.714  61.134  0.00  0.00     0.210 HD
ATOM     24  H   GNS d 142     -29.586 -10.644  61.070  0.00  0.00     0.209 HD
ATOM     25  H   GNS d 142     -27.798 -11.732  62.028  0.00  0.00     0.078 H 
ATOM     26  H   GNS d 142     -27.366 -10.148  61.431  0.00  0.00     0.078 H 
ATOM     27  H   GNS d 142     -22.224 -12.727  55.589  0.00  0.00     0.231 HD
ATOM     28  H   GNS d 142     -26.057 -12.439  60.799  0.00  0.00     0.090 H 
ATOM     29  H   GNS d 142     -26.127 -12.797  54.816  0.00  0.00     0.231 HD
ATOM     30  S   IDY d 143     -20.929 -14.167  58.032  0.00  0.00     0.252 S 
ATOM     31  O1  IDY d 143     -22.453 -16.973  60.867  0.00  0.00    -0.363 OA
ATOM     32  C5  IDY d 143     -24.738 -15.283  61.297  0.00  0.00     0.152 C 
ATOM     33  C4  IDY d 143     -25.343 -15.192  59.887  0.00  0.00     0.103 C 
ATOM     34  O62 IDY d 143     -25.043 -13.065  62.222  0.00  0.00    -0.646 OA
ATOM     35  O2  IDY d 143     -22.434 -14.372  58.314  0.00  0.00    -0.244 OA
ATOM     36  O61 IDY d 143     -26.256 -14.775  63.032  0.00  0.00    -0.646 OA
ATOM     37  C3  IDY d 143     -24.444 -15.737  58.762  0.00  0.00     0.094 C 
ATOM     38  C7  IDY d 143     -23.417 -17.548  61.087  0.00  0.00     0.007 C 
ATOM     39  O3  IDY d 143     -24.644 -17.154  58.686  0.00  0.00    -0.390 OA
ATOM     40  C2  IDY d 143     -22.933 -15.560  58.945  0.00  0.00     0.134 C 
ATOM     41  OS3 IDY d 143     -20.063 -14.780  59.098  0.00  0.00    -0.572 OA
ATOM     42  O4  IDY d 143     -25.652 -14.047  59.231  0.00  0.00    -0.348 OA
ATOM     43  C1  IDY d 143     -22.507 -15.624  60.417  0.00  0.00     0.160 C 
ATOM     44  C6  IDY d 143     -25.395 -14.301  62.221  0.00  0.00     0.206 C 
ATOM     45  OS1 IDY d 143     -20.659 -12.703  57.898  0.00  0.00    -0.572 OA
ATOM     46  O5  IDY d 143     -23.354 -14.907  61.323  0.00  0.00    -0.340 OA
ATOM     47  OS2 IDY d 143     -20.653 -14.824  56.749  0.00  0.00    -0.572 OA
ATOM     48  H   IDY d 143     -24.877 -16.302  61.592  0.00  0.00     0.104 H 
ATOM     49  H   IDY d 143     -26.220 -15.698  60.234  0.00  0.00     0.092 H 
ATOM     50  H   IDY d 143     -24.729 -15.174  57.897  0.00  0.00     0.091 H 
ATOM     51  H   IDY d 143     -23.175 -18.538  61.411  0.00  0.00     0.066 H 
ATOM     52  H   IDY d 143     -24.013 -17.599  60.199  0.00  0.00     0.066 H 
ATOM     53  H   IDY d 143     -23.964 -17.044  61.856  0.00  0.00     0.066 H 
ATOM     54  H   IDY d 143     -24.355 -17.565  59.516  0.00  0.00     0.210 HD
ATOM     55  H   IDY d 143     -22.484 -16.393  58.446  0.00  0.00     0.097 H 
ATOM     56  H   IDY d 143     -21.546 -15.155  60.430  0.00  0.00     0.133 H 
ENDROOT
TORSDOF 17
ENDMDL
MODEL 7
REMARK VINA RESULT:      -6.5      1.730      5.368
REMARK  0 active torsions:
REMARK  status: ('A' for Active; 'I' for Inactive)
REMARK       I    between atoms: C1_1  and  O4_26 
REMARK       I    between atoms: C2_2  and  N_3 
REMARK       I    between atoms: N_3  and  S1_23 
REMARK       I    between atoms: O2S_4  and  S1_23 
REMARK       I    between atoms: S_5  and  O2_15 
REMARK       I    between atoms: O1_6  and  C1_27 
REMARK       I    between atoms: O1_6  and  C7_20 
REMARK       I    between atoms: C5_7  and  C6_28 
REMARK       I    between atoms: O3_8  and  C3_9 
REMARK       I    between atoms: C4_10  and  O4_26 
REMARK       I    between atoms: C4_11  and  O4_14 
REMARK       I    between atoms: O2_15  and  C2_22 
REMARK       I    between atoms: O6_17  and  C6_18 
REMARK       I    between atoms: C6_18  and  C5_29 
REMARK       I    between atoms: C3_19  and  O3_21 
REMARK       I    between atoms: S1_23  and  O1S_30 
REMARK       I    between atoms: S1_23  and  O3S_25 
ROOT
ATOM      1  C1  GNS d 142     -24.267 -13.281  58.610  0.00  0.00     0.150 C 
ATOM      2  C2  GNS d 142     -25.131 -13.736  57.440  0.00  0.00     0.081 C 
ATOM      3  N   GNS d 142     -25.545 -12.589  56.654  0.00  0.00    -0.210 NA
ATOM      4  O2S GNS d 142     -25.781 -13.975  54.639  0.00  0.00    -0.296 OA
ATOM      5  O3  GNS d 142     -26.994 -15.116  56.835  0.00  0.00    -0.391 OA
ATOM      6  C3  GNS d 142     -26.354 -14.500  57.930  0.00  0.00     0.083 C 
ATOM      7  C4  GNS d 142     -25.962 -15.562  58.952  0.00  0.00     0.089 C 
ATOM      8  O5  GNS d 142     -23.913 -14.399  59.394  0.00  0.00    -0.349 OA
ATOM      9  O4  GNS d 142     -27.122 -16.074  59.567  0.00  0.00    -0.390 OA
ATOM     10  O6  GNS d 142     -23.263 -16.452  60.668  0.00  0.00    -0.398 OA
ATOM     11  C6  GNS d 142     -24.579 -16.059  60.988  0.00  0.00     0.043 C 
ATOM     12  S1  GNS d 142     -25.420 -12.625  55.060  0.00  0.00     0.156 S 
ATOM     13  O3S GNS d 142     -26.342 -11.618  54.542  0.00  0.00    -0.296 OA
ATOM     14  C5  GNS d 142     -25.038 -14.980  60.015  0.00  0.00     0.089 C 
ATOM     15  O1S GNS d 142     -24.031 -12.308  54.738  0.00  0.00    -0.296 OA
ATOM     16  H   GNS d 142     -23.381 -12.811  58.237  0.00  0.00     0.131 H 
ATOM     17  H   GNS d 142     -24.548 -14.392  56.828  0.00  0.00     0.076 H 
ATOM     18  H   GNS d 142     -24.990 -11.796  56.976  0.00  0.00     0.140 HD
ATOM     19  H   GNS d 142     -25.144 -14.608  55.005  0.00  0.00     0.231 HD
ATOM     20  H   GNS d 142     -27.244 -14.442  56.185  0.00  0.00     0.210 HD
ATOM     21  H   GNS d 142     -27.020 -13.807  58.401  0.00  0.00     0.089 H 
ATOM     22  H   GNS d 142     -25.441 -16.346  58.443  0.00  0.00     0.091 H 
ATOM     23  H   GNS d 142     -27.587 -15.357  60.025  0.00  0.00     0.210 HD
ATOM     24  H   GNS d 142     -22.971 -17.139  61.288  0.00  0.00     0.209 HD
ATOM     25  H   GNS d 142     -24.603 -15.673  61.986  0.00  0.00     0.078 H 
ATOM     26  H   GNS d 142     -25.231 -16.904  60.917  0.00  0.00     0.078 H 
ATOM     27  H   GNS d 142     -27.251 -11.863  54.775  0.00  0.00     0.231 HD
ATOM     28  H   GNS d 142     -25.579 -14.237  60.562  0.00  0.00     0.090 H 
ATOM     29  H   GNS d 142     -23.451 -12.997  55.097  0.00  0.00     0.231 HD
ATOM     30  S   IDY d 143     -28.830 -10.468  57.074  0.00  0.00     0.252 S 
ATOM     31  O1  IDY d 143     -27.615  -8.821  60.821  0.00  0.00    -0.363 OA
ATOM     32  C5  IDY d 143     -26.155 -11.229  61.396  0.00  0.00     0.152 C 
ATOM     33  C4  IDY d 143     -25.169 -11.298  60.218  0.00  0.00     0.103 C 
ATOM     34  O62 IDY d 143     -26.791 -13.534  61.779  0.00  0.00    -0.646 OA
ATOM     35  O2  IDY d 143     -27.506 -10.830  57.783  0.00  0.00    -0.244 OA
ATOM     36  O61 IDY d 143     -25.492 -12.484  63.283  0.00  0.00    -0.646 OA
ATOM     37  C3  IDY d 143     -25.463 -10.313  59.071  0.00  0.00     0.094 C 
ATOM     38  C7  IDY d 143     -26.659  -8.647  61.424  0.00  0.00     0.007 C 
ATOM     39  O3  IDY d 143     -24.869  -9.054  59.411  0.00  0.00    -0.390 OA
ATOM     40  C2  IDY d 143     -26.937  -9.996  58.801  0.00  0.00     0.134 C 
ATOM     41  OS3 IDY d 143     -29.795  -9.773  57.994  0.00  0.00    -0.572 OA
ATOM     42  O4  IDY d 143     -24.989 -12.363  59.400  0.00  0.00    -0.348 OA
ATOM     43  C1  IDY d 143     -27.788 -10.021  60.077  0.00  0.00     0.160 C 
ATOM     44  C6  IDY d 143     -26.134 -12.506  62.182  0.00  0.00     0.206 C 
ATOM     45  OS1 IDY d 143     -29.431 -11.715  56.510  0.00  0.00    -0.572 OA
ATOM     46  O5  IDY d 143     -27.517 -11.113  60.962  0.00  0.00    -0.340 OA
ATOM     47  OS2 IDY d 143     -28.478  -9.566  55.972  0.00  0.00    -0.572 OA
ATOM     48  H   IDY d 143     -25.847 -10.376  61.964  0.00  0.00     0.104 H 
ATOM     49  H   IDY d 143     -24.352 -11.179  60.899  0.00  0.00     0.092 H 
ATOM     50  H   IDY d 143     -25.075 -10.797  58.199  0.00  0.00     0.091 H 
ATOM     51  H   IDY d 143     -26.713  -7.697  61.912  0.00  0.00     0.066 H 
ATOM     52  H   IDY d 143     -25.815  -8.663  60.767  0.00  0.00     0.066 H 
ATOM     53  H   IDY d 143     -26.555  -9.419  62.157  0.00  0.00     0.066 H 
ATOM     54  H   IDY d 143     -25.290  -8.704  60.211  0.00  0.00     0.210 HD
ATOM     55  H   IDY d 143     -26.951  -8.993  58.429  0.00  0.00     0.097 H 
ATOM     56  H   IDY d 143     -28.790 -10.134  59.718  0.00  0.00     0.133 H 
ENDROOT
TORSDOF 17
ENDMDL
MODEL 8
REMARK VINA RESULT:      -6.5      2.376      6.200
REMARK  0 active torsions:
REMARK  status: ('A' for Active; 'I' for Inactive)
REMARK       I    between atoms: C1_1  and  O4_26 
REMARK       I    between atoms: C2_2  and  N_3 
REMARK       I    between atoms: N_3  and  S1_23 
REMARK       I    between atoms: O2S_4  and  S1_23 
REMARK       I    between atoms: S_5  and  O2_15 
REMARK       I    between atoms: O1_6  and  C1_27 
REMARK       I    between atoms: O1_6  and  C7_20 
REMARK       I    between atoms: C5_7  and  C6_28 
REMARK       I    between atoms: O3_8  and  C3_9 
REMARK       I    between atoms: C4_10  and  O4_26 
REMARK       I    between atoms: C4_11  and  O4_14 
REMARK       I    between atoms: O2_15  and  C2_22 
REMARK       I    between atoms: O6_17  and  C6_18 
REMARK       I    between atoms: C6_18  and  C5_29 
REMARK       I    between atoms: C3_19  and  O3_21 
REMARK       I    between atoms: S1_23  and  O1S_30 
REMARK       I    between atoms: S1_23  and  O3S_25 
ROOT
ATOM      1  C1  GNS d 142     -26.604 -12.913  58.231  0.00  0.00     0.150 C 
ATOM      2  C2  GNS d 142     -25.819 -14.058  58.857  0.00  0.00     0.081 C 
ATOM      3  N   GNS d 142     -26.593 -14.663  59.925  0.00  0.00    -0.210 NA
ATOM      4  O2S GNS d 142     -25.429 -16.808  59.637  0.00  0.00    -0.296 OA
ATOM      5  O3  GNS d 142     -23.680 -14.681  59.738  0.00  0.00    -0.391 OA
ATOM      6  C3  GNS d 142     -24.480 -13.572  59.396  0.00  0.00     0.083 C 
ATOM      7  C4  GNS d 142     -23.751 -12.722  58.361  0.00  0.00     0.089 C 
ATOM      8  O5  GNS d 142     -25.822 -12.301  57.228  0.00  0.00    -0.349 OA
ATOM      9  O4  GNS d 142     -22.649 -12.086  58.967  0.00  0.00    -0.390 OA
ATOM     10  O6  GNS d 142     -24.395 -11.342  55.410  0.00  0.00    -0.398 OA
ATOM     11  C6  GNS d 142     -23.978 -10.875  56.674  0.00  0.00     0.043 C 
ATOM     12  S1  GNS d 142     -26.727 -16.255  60.012  0.00  0.00     0.156 S 
ATOM     13  O3S GNS d 142     -27.088 -16.572  61.391  0.00  0.00    -0.296 OA
ATOM     14  C5  GNS d 142     -24.681 -11.671  57.767  0.00  0.00     0.089 C 
ATOM     15  O1S GNS d 142     -27.775 -16.642  59.072  0.00  0.00    -0.296 OA
ATOM     16  H   GNS d 142     -27.505 -13.293  57.798  0.00  0.00     0.131 H 
ATOM     17  H   GNS d 142     -25.631 -14.790  58.099  0.00  0.00     0.076 H 
ATOM     18  H   GNS d 142     -27.539 -14.291  59.850  0.00  0.00     0.140 HD
ATOM     19  H   GNS d 142     -25.231 -16.574  58.718  0.00  0.00     0.231 HD
ATOM     20  H   GNS d 142     -24.143 -15.223  60.397  0.00  0.00     0.210 HD
ATOM     21  H   GNS d 142     -24.662 -12.970  60.261  0.00  0.00     0.089 H 
ATOM     22  H   GNS d 142     -23.416 -13.362  57.572  0.00  0.00     0.091 H 
ATOM     23  H   GNS d 142     -22.962 -11.508  59.681  0.00  0.00     0.210 HD
ATOM     24  H   GNS d 142     -23.947 -10.835  54.715  0.00  0.00     0.209 HD
ATOM     25  H   GNS d 142     -24.226  -9.839  56.771  0.00  0.00     0.078 H 
ATOM     26  H   GNS d 142     -22.919 -10.998  56.768  0.00  0.00     0.078 H 
ATOM     27  H   GNS d 142     -26.369 -16.301  61.983  0.00  0.00     0.231 HD
ATOM     28  H   GNS d 142     -24.969 -10.997  58.546  0.00  0.00     0.090 H 
ATOM     29  H   GNS d 142     -27.500 -16.417  58.170  0.00  0.00     0.231 HD
ATOM     30  S   IDY d 143     -26.523 -13.733  63.745  0.00  0.00     0.252 S 
ATOM     31  O1  IDY d 143     -28.340  -9.918  63.132  0.00  0.00    -0.363 OA
ATOM     32  C5  IDY d 143     -27.105  -9.758  60.541  0.00  0.00     0.152 C 
ATOM     33  C4  IDY d 143     -27.661 -11.008  59.840  0.00  0.00     0.103 C 
ATOM     34  O62 IDY d 143     -24.812  -9.612  59.773  0.00  0.00    -0.646 OA
ATOM     35  O2  IDY d 143     -26.908 -13.179  62.356  0.00  0.00    -0.244 OA
ATOM     36  O61 IDY d 143     -26.312  -8.096  59.063  0.00  0.00    -0.646 OA
ATOM     37  C3  IDY d 143     -28.388 -12.000  60.767  0.00  0.00     0.094 C 
ATOM     38  C7  IDY d 143     -28.974  -9.375  62.351  0.00  0.00     0.007 C 
ATOM     39  O3  IDY d 143     -29.742 -11.556  60.910  0.00  0.00    -0.390 OA
ATOM     40  C2  IDY d 143     -27.856 -12.114  62.200  0.00  0.00     0.134 C 
ATOM     41  OS3 IDY d 143     -26.515 -12.663  64.802  0.00  0.00    -0.572 OA
ATOM     42  O4  IDY d 143     -26.923 -11.962  59.222  0.00  0.00    -0.348 OA
ATOM     43  C1  IDY d 143     -27.289 -10.789  62.725  0.00  0.00     0.160 C 
ATOM     44  C6  IDY d 143     -26.007  -9.138  59.729  0.00  0.00     0.206 C 
ATOM     45  OS1 IDY d 143     -25.188 -14.398  63.645  0.00  0.00    -0.572 OA
ATOM     46  O5  IDY d 143     -26.476 -10.067  61.792  0.00  0.00    -0.340 OA
ATOM     47  OS2 IDY d 143     -27.534 -14.741  64.086  0.00  0.00    -0.572 OA
ATOM     48  H   IDY d 143     -27.951  -9.115  60.671  0.00  0.00     0.104 H 
ATOM     49  H   IDY d 143     -28.169 -10.383  59.135  0.00  0.00     0.092 H 
ATOM     50  H   IDY d 143     -28.250 -12.952  60.299  0.00  0.00     0.091 H 
ATOM     51  H   IDY d 143     -29.707  -8.771  62.845  0.00  0.00     0.066 H 
ATOM     52  H   IDY d 143     -29.466 -10.093  61.728  0.00  0.00     0.066 H 
ATOM     53  H   IDY d 143     -28.345  -8.752  61.751  0.00  0.00     0.066 H 
ATOM     54  H   IDY d 143     -29.754 -10.688  61.343  0.00  0.00     0.210 HD
ATOM     55  H   IDY d 143     -28.705 -12.358  62.802  0.00  0.00     0.097 H 
ATOM     56  H   IDY d 143     -26.665 -11.079  63.543  0.00  0.00     0.133 H 
ENDROOT
TORSDOF 17
ENDMDL
MODEL 9
REMARK VINA RESULT:      -6.3      2.301      5.840
REMARK  0 active torsions:
REMARK  status: ('A' for Active; 'I' for Inactive)
REMARK       I    between atoms: C1_1  and  O4_26 
REMARK       I    between atoms: C2_2  and  N_3 
REMARK       I    between atoms: N_3  and  S1_23 
REMARK       I    between atoms: O2S_4  and  S1_23 
REMARK       I    between atoms: S_5  and  O2_15 
REMARK       I    between atoms: O1_6  and  C1_27 
REMARK       I    between atoms: O1_6  and  C7_20 
REMARK       I    between atoms: C5_7  and  C6_28 
REMARK       I    between atoms: O3_8  and  C3_9 
REMARK       I    between atoms: C4_10  and  O4_26 
REMARK       I    between atoms: C4_11  and  O4_14 
REMARK       I    between atoms: O2_15  and  C2_22 
REMARK       I    between atoms: O6_17  and  C6_18 
REMARK       I    between atoms: C6_18  and  C5_29 
REMARK       I    between atoms: C3_19  and  O3_21 
REMARK       I    between atoms: S1_23  and  O1S_30 
REMARK       I    between atoms: S1_23  and  O3S_25 
ROOT
ATOM      1  C1  GNS d 142     -23.531 -14.275  60.538  0.00  0.00     0.150 C 
ATOM      2  C2  GNS d 142     -23.027 -14.836  59.214  0.00  0.00     0.081 C 
ATOM      3  N   GNS d 142     -22.644 -13.751  58.331  0.00  0.00    -0.210 NA
ATOM      4  O2S GNS d 142     -21.058 -15.201  57.138  0.00  0.00    -0.296 OA
ATOM      5  O3  GNS d 142     -23.519 -16.398  57.465  0.00  0.00    -0.391 OA
ATOM      6  C3  GNS d 142     -24.091 -15.699  58.548  0.00  0.00     0.083 C 
ATOM      7  C4  GNS d 142     -24.685 -16.695  59.537  0.00  0.00     0.089 C 
ATOM      8  O5  GNS d 142     -23.948 -15.336  61.369  0.00  0.00    -0.349 OA
ATOM      9  O4  GNS d 142     -25.825 -17.298  58.969  0.00  0.00    -0.390 OA
ATOM     10  O6  GNS d 142     -24.577 -17.290  62.801  0.00  0.00    -0.398 OA
ATOM     11  C6  GNS d 142     -25.588 -17.013  61.859  0.00  0.00     0.043 C 
ATOM     12  S1  GNS d 142     -21.250 -13.813  57.548  0.00  0.00     0.156 S 
ATOM     13  O3S GNS d 142     -21.367 -12.909  56.408  0.00  0.00    -0.296 OA
ATOM     14  C5  GNS d 142     -25.071 -16.005  60.839  0.00  0.00     0.089 C 
ATOM     15  O1S GNS d 142     -20.219 -13.376  58.486  0.00  0.00    -0.296 OA
ATOM     16  H   GNS d 142     -22.744 -13.734  61.019  0.00  0.00     0.131 H 
ATOM     17  H   GNS d 142     -22.173 -15.449  59.413  0.00  0.00     0.076 H 
ATOM     18  H   GNS d 142     -22.627 -12.903  58.897  0.00  0.00     0.140 HD
ATOM     19  H   GNS d 142     -20.986 -15.763  57.925  0.00  0.00     0.231 HD
ATOM     20  H   GNS d 142     -23.140 -15.765  56.835  0.00  0.00     0.210 HD
ATOM     21  H   GNS d 142     -24.875 -15.060  58.198  0.00  0.00     0.089 H 
ATOM     22  H   GNS d 142     -23.947 -17.439  59.753  0.00  0.00     0.091 H 
ATOM     23  H   GNS d 142     -26.489 -16.617  58.776  0.00  0.00     0.210 HD
ATOM     24  H   GNS d 142     -24.906 -17.931  63.450  0.00  0.00     0.209 HD
ATOM     25  H   GNS d 142     -26.442 -16.608  62.360  0.00  0.00     0.078 H 
ATOM     26  H   GNS d 142     -25.865 -17.917  61.358  0.00  0.00     0.078 H 
ATOM     27  H   GNS d 142     -22.059 -13.232  55.809  0.00  0.00     0.231 HD
ATOM     28  H   GNS d 142     -25.851 -15.302  60.631  0.00  0.00     0.090 H 
ATOM     29  H   GNS d 142     -20.171 -13.999  59.228  0.00  0.00     0.231 HD
ATOM     30  S   IDY d 143     -24.891 -11.937  55.663  0.00  0.00     0.252 S 
ATOM     31  O1  IDY d 143     -27.377 -10.095  58.606  0.00  0.00    -0.363 OA
ATOM     32  C5  IDY d 143     -26.962 -12.343  60.349  0.00  0.00     0.152 C 
ATOM     33  C4  IDY d 143     -25.433 -12.347  60.512  0.00  0.00     0.103 C 
ATOM     34  O62 IDY d 143     -27.560 -14.688  60.246  0.00  0.00    -0.646 OA
ATOM     35  O2  IDY d 143     -24.730 -12.157  57.183  0.00  0.00    -0.244 OA
ATOM     36  O61 IDY d 143     -28.118 -13.486  62.061  0.00  0.00    -0.646 OA
ATOM     37  C3  IDY d 143     -24.677 -11.422  59.541  0.00  0.00     0.094 C 
ATOM     38  C7  IDY d 143     -27.350  -9.819  59.715  0.00  0.00     0.007 C 
ATOM     39  O3  IDY d 143     -24.669 -10.105  60.106  0.00  0.00    -0.390 OA
ATOM     40  C2  IDY d 143     -25.284 -11.249  58.145  0.00  0.00     0.134 C 
ATOM     41  OS3 IDY d 143     -26.215 -11.312  55.316  0.00  0.00    -0.572 OA
ATOM     42  O4  IDY d 143     -24.619 -13.410  60.301  0.00  0.00    -0.348 OA
ATOM     43  C1  IDY d 143     -26.817 -11.324  58.156  0.00  0.00     0.160 C 
ATOM     44  C6  IDY d 143     -27.561 -13.593  60.920  0.00  0.00     0.206 C 
ATOM     45  OS1 IDY d 143     -24.717 -13.247  54.965  0.00  0.00    -0.572 OA
ATOM     46  O5  IDY d 143     -27.365 -12.365  58.972  0.00  0.00    -0.340 OA
ATOM     47  OS2 IDY d 143     -23.810 -11.031  55.257  0.00  0.00    -0.572 OA
ATOM     48  H   IDY d 143     -27.290 -11.452  60.843  0.00  0.00     0.104 H 
ATOM     49  H   IDY d 143     -25.547 -12.137  61.555  0.00  0.00     0.092 H 
ATOM     50  H   IDY d 143     -23.722 -11.888  59.418  0.00  0.00     0.091 H 
ATOM     51  H   IDY d 143     -27.816  -8.867  59.857  0.00  0.00     0.066 H 
ATOM     52  H   IDY d 143     -26.334  -9.772  60.046  0.00  0.00     0.066 H 
ATOM     53  H   IDY d 143     -27.875 -10.561  60.279  0.00  0.00     0.066 H 
ATOM     54  H   IDY d 143     -25.579  -9.777  60.173  0.00  0.00     0.210 HD
ATOM     55  H   IDY d 143     -25.016 -10.261  57.835  0.00  0.00     0.097 H 
ATOM     56  H   IDY d 143     -27.074 -11.538  57.140  0.00  0.00     0.133 H 
ENDROOT
TORSDOF 17
ENDMDL
MODEL 10
REMARK VINA RESULT:      -6.3      2.594      6.457
REMARK  0 active torsions:
REMARK  status: ('A' for Active; 'I' for Inactive)
REMARK       I    between atoms: C1_1  and  O4_26 
REMARK       I    between atoms: C2_2  and  N_3 
REMARK       I    between atoms: N_3  and  S1_23 
REMARK       I    between atoms: O2S_4  and  S1_23 
REMARK       I    between atoms: S_5  and  O2_15 
REMARK       I    between atoms: O1_6  and  C1_27 
REMARK       I    between atoms: O1_6  and  C7_20 
REMARK       I    between atoms: C5_7  and  C6_28 
REMARK       I    between atoms: O3_8  and  C3_9 
REMARK       I    between atoms: C4_10  and  O4_26 
REMARK       I    between atoms: C4_11  and  O4_14 
REMARK       I    between atoms: O2_15  and  C2_22 
REMARK       I    between atoms: O6_17  and  C6_18 
REMARK       I    between atoms: C6_18  and  C5_29 
REMARK       I    between atoms: C3_19  and  O3_21 
REMARK       I    between atoms: S1_23  and  O1S_30 
REMARK       I    between atoms: S1_23  and  O3S_25 
ROOT
ATOM      1  C1  GNS d 142     -25.434 -13.988  58.763  0.00  0.00     0.150 C 
ATOM      2  C2  GNS d 142     -25.295 -13.152  60.029  0.00  0.00     0.081 C 
ATOM      3  N   GNS d 142     -26.598 -12.939  60.628  0.00  0.00    -0.210 NA
ATOM      4  O2S GNS d 142     -25.599 -12.662  62.856  0.00  0.00    -0.296 OA
ATOM      5  O3  GNS d 142     -24.295 -11.173  60.938  0.00  0.00    -0.391 OA
ATOM      6  C3  GNS d 142     -24.635 -11.812  59.728  0.00  0.00     0.083 C 
ATOM      7  C4  GNS d 142     -23.379 -11.999  58.883  0.00  0.00     0.089 C 
ATOM      8  O5  GNS d 142     -24.167 -14.145  58.163  0.00  0.00    -0.349 OA
ATOM      9  O4  GNS d 142     -22.938 -10.746  58.415  0.00  0.00    -0.390 OA
ATOM     10  O6  GNS d 142     -21.867 -14.445  57.224  0.00  0.00    -0.398 OA
ATOM     11  C6  GNS d 142     -22.378 -13.171  56.901  0.00  0.00     0.043 C 
ATOM     12  S1  GNS d 142     -26.803 -13.163  62.199  0.00  0.00     0.156 S 
ATOM     13  O3S GNS d 142     -27.995 -12.412  62.580  0.00  0.00    -0.296 OA
ATOM     14  C5  GNS d 142     -23.652 -12.918  57.698  0.00  0.00     0.089 C 
ATOM     15  O1S GNS d 142     -26.976 -14.598  62.402  0.00  0.00    -0.296 OA
ATOM     16  H   GNS d 142     -25.833 -14.948  59.012  0.00  0.00     0.131 H 
ATOM     17  H   GNS d 142     -24.673 -13.686  60.717  0.00  0.00     0.076 H 
ATOM     18  H   GNS d 142     -27.247 -13.568  60.154  0.00  0.00     0.140 HD
ATOM     19  H   GNS d 142     -24.835 -13.188  62.574  0.00  0.00     0.231 HD
ATOM     20  H   GNS d 142     -25.093 -11.054  61.476  0.00  0.00     0.210 HD
ATOM     21  H   GNS d 142     -25.327 -11.210  59.177  0.00  0.00     0.089 H 
ATOM     22  H   GNS d 142     -22.624 -12.449  59.494  0.00  0.00     0.091 H 
ATOM     23  H   GNS d 142     -23.628 -10.346  57.863  0.00  0.00     0.210 HD
ATOM     24  H   GNS d 142     -21.057 -14.607  56.716  0.00  0.00     0.209 HD
ATOM     25  H   GNS d 142     -22.599 -13.131  55.855  0.00  0.00     0.078 H 
ATOM     26  H   GNS d 142     -21.652 -12.424  57.141  0.00  0.00     0.078 H 
ATOM     27  H   GNS d 142     -27.842 -11.465  62.432  0.00  0.00     0.231 HD
ATOM     28  H   GNS d 142     -24.364 -12.441  57.059  0.00  0.00     0.090 H 
ATOM     29  H   GNS d 142     -26.166 -15.062  62.138  0.00  0.00     0.231 HD
ATOM     30  S   IDY d 143     -29.050  -9.928  60.002  0.00  0.00     0.252 S 
ATOM     31  O1  IDY d 143     -29.894 -11.093  55.982  0.00  0.00    -0.363 OA
ATOM     32  C5  IDY d 143     -27.249 -12.196  55.757  0.00  0.00     0.152 C 
ATOM     33  C4  IDY d 143     -27.237 -13.240  56.885  0.00  0.00     0.103 C 
ATOM     34  O62 IDY d 143     -25.019 -11.249  55.795  0.00  0.00    -0.646 OA
ATOM     35  O2  IDY d 143     -28.402 -11.146  59.307  0.00  0.00    -0.244 OA
ATOM     36  O61 IDY d 143     -25.628 -12.569  54.080  0.00  0.00    -0.646 OA
ATOM     37  C3  IDY d 143     -28.423 -13.150  57.862  0.00  0.00     0.094 C 
ATOM     38  C7  IDY d 143     -29.836 -12.022  55.318  0.00  0.00     0.007 C 
ATOM     39  O3  IDY d 143     -29.519 -13.874  57.290  0.00  0.00    -0.390 OA
ATOM     40  C2  IDY d 143     -28.978 -11.748  58.140  0.00  0.00     0.134 C 
ATOM     41  OS3 IDY d 143     -29.713  -9.001  59.022  0.00  0.00    -0.572 OA
ATOM     42  O4  IDY d 143     -26.302 -13.338  57.862  0.00  0.00    -0.348 OA
ATOM     43  C1  IDY d 143     -28.863 -10.819  56.925  0.00  0.00     0.160 C 
ATOM     44  C6  IDY d 143     -25.871 -12.003  55.196  0.00  0.00     0.206 C 
ATOM     45  OS1 IDY d 143     -28.003  -9.213  60.794  0.00  0.00    -0.572 OA
ATOM     46  O5  IDY d 143     -27.616 -10.891  56.224  0.00  0.00    -0.340 OA
ATOM     47  OS2 IDY d 143     -30.062 -10.464  60.921  0.00  0.00    -0.572 OA
ATOM     48  H   IDY d 143     -27.949 -12.572  55.041  0.00  0.00     0.104 H 
ATOM     49  H   IDY d 143     -27.132 -14.019  56.159  0.00  0.00     0.092 H 
ATOM     50  H   IDY d 143     -28.038 -13.529  58.785  0.00  0.00     0.091 H 
ATOM     51  H   IDY d 143     -30.694 -12.057  54.679  0.00  0.00     0.066 H 
ATOM     52  H   IDY d 143     -29.812 -12.899  55.931  0.00  0.00     0.066 H 
ATOM     53  H   IDY d 143     -28.950 -11.979  54.721  0.00  0.00     0.066 H 
ATOM     54  H   IDY d 143     -29.790 -13.449  56.462  0.00  0.00     0.210 HD
ATOM     55  H   IDY d 143     -30.020 -11.886  58.338  0.00  0.00     0.097 H 
ATOM     56  H   IDY d 143     -28.946  -9.837  57.340  0.00  0.00     0.133 H 
ENDROOT
TORSDOF 17
ENDMDL
MODEL 11
REMARK VINA RESULT:      -6.2      2.105      3.318
REMARK  0 active torsions:
REMARK  status: ('A' for Active; 'I' for Inactive)
REMARK       I    between atoms: C1_1  and  O4_26 
REMARK       I    between atoms: C2_2  and  N_3 
REMARK       I    between atoms: N_3  and  S1_23 
REMARK       I    between atoms: O2S_4  and  S1_23 
REMARK       I    between atoms: S_5  and  O2_15 
REMARK       I    between atoms: O1_6  and  C1_27 
REMARK       I    between atoms: O1_6  and  C7_20 
REMARK       I    between atoms: C5_7  and  C6_28 
REMARK       I    between atoms: O3_8  and  C3_9 
REMARK       I    between atoms: C4_10  and  O4_26 
REMARK       I    between atoms: C4_11  and  O4_14 
REMARK       I    between atoms: O2_15  and  C2_22 
REMARK       I    between atoms: O6_17  and  C6_18 
REMARK       I    between atoms: C6_18  and  C5_29 
REMARK       I    between atoms: C3_19  and  O3_21 
REMARK       I    between atoms: S1_23  and  O1S_30 
REMARK       I    between atoms: S1_23  and  O3S_25 
ROOT
ATOM      1  C1  GNS d 142     -28.478 -12.786  61.030  0.00  0.00     0.150 C 
ATOM      2  C2  GNS d 142     -27.692 -11.533  61.395  0.00  0.00     0.081 C 
ATOM      3  N   GNS d 142     -27.204 -10.885  60.192  0.00  0.00    -0.210 NA
ATOM      4  O2S GNS d 142     -27.149  -8.701  61.315  0.00  0.00    -0.296 OA
ATOM      5  O3  GNS d 142     -25.974 -10.679  62.831  0.00  0.00    -0.391 OA
ATOM      6  C3  GNS d 142     -26.525 -11.870  62.315  0.00  0.00     0.083 C 
ATOM      7  C4  GNS d 142     -26.977 -12.761  63.466  0.00  0.00     0.089 C 
ATOM      8  O5  GNS d 142     -28.903 -13.434  62.209  0.00  0.00    -0.349 OA
ATOM      9  O4  GNS d 142     -25.847 -13.257  64.148  0.00  0.00    -0.390 OA
ATOM     10  O6  GNS d 142     -29.689 -14.458  64.352  0.00  0.00    -0.398 OA
ATOM     11  C6  GNS d 142     -28.335 -14.772  64.113  0.00  0.00     0.043 C 
ATOM     12  S1  GNS d 142     -27.379  -9.306  60.007  0.00  0.00     0.156 S 
ATOM     13  O3S GNS d 142     -26.390  -8.885  59.020  0.00  0.00    -0.296 OA
ATOM     14  C5  GNS d 142     -27.814 -13.927  62.956  0.00  0.00     0.089 C 
ATOM     15  O1S GNS d 142     -28.744  -9.085  59.538  0.00  0.00    -0.296 OA
ATOM     16  H   GNS d 142     -29.330 -12.514  60.444  0.00  0.00     0.131 H 
ATOM     17  H   GNS d 142     -28.347 -10.866  61.914  0.00  0.00     0.076 H 
ATOM     18  H   GNS d 142     -27.679 -11.329  59.406  0.00  0.00     0.140 HD
ATOM     19  H   GNS d 142     -27.827  -9.007  61.937  0.00  0.00     0.231 HD
ATOM     20  H   GNS d 142     -25.686 -10.112  62.099  0.00  0.00     0.210 HD
ATOM     21  H   GNS d 142     -25.788 -12.398  61.746  0.00  0.00     0.089 H 
ATOM     22  H   GNS d 142     -27.578 -12.177  64.131  0.00  0.00     0.091 H 
ATOM     23  H   GNS d 142     -25.308 -13.785  63.538  0.00  0.00     0.210 HD
ATOM     24  H   GNS d 142     -30.021 -14.995  65.088  0.00  0.00     0.209 HD
ATOM     25  H   GNS d 142     -28.248 -15.809  63.865  0.00  0.00     0.078 H 
ATOM     26  H   GNS d 142     -27.761 -14.566  64.992  0.00  0.00     0.078 H 
ATOM     27  H   GNS d 142     -25.498  -9.047  59.366  0.00  0.00     0.231 HD
ATOM     28  H   GNS d 142     -27.195 -14.543  62.338  0.00  0.00     0.090 H 
ATOM     29  H   GNS d 142     -29.371  -9.376  60.218  0.00  0.00     0.231 HD
ATOM     30  S   IDY d 143     -23.737 -11.440  58.421  0.00  0.00     0.252 S 
ATOM     31  O1  IDY d 143     -24.692 -15.415  57.188  0.00  0.00    -0.363 OA
ATOM     32  C5  IDY d 143     -26.337 -15.733  59.524  0.00  0.00     0.152 C 
ATOM     33  C4  IDY d 143     -27.360 -14.599  59.357  0.00  0.00     0.103 C 
ATOM     34  O62 IDY d 143     -25.890 -15.790  61.904  0.00  0.00    -0.646 OA
ATOM     35  O2  IDY d 143     -25.065 -12.150  58.764  0.00  0.00    -0.244 OA
ATOM     36  O61 IDY d 143     -27.048 -17.469  60.959  0.00  0.00    -0.646 OA
ATOM     37  C3  IDY d 143     -27.017 -13.577  58.256  0.00  0.00     0.094 C 
ATOM     38  C7  IDY d 143     -25.611 -16.074  57.019  0.00  0.00     0.007 C 
ATOM     39  O3  IDY d 143     -27.489 -14.100  57.009  0.00  0.00    -0.390 OA
ATOM     40  C2  IDY d 143     -25.529 -13.289  58.027  0.00  0.00     0.134 C 
ATOM     41  OS3 IDY d 143     -22.688 -12.402  57.934  0.00  0.00    -0.572 OA
ATOM     42  O4  IDY d 143     -27.656 -13.658  60.286  0.00  0.00    -0.348 OA
ATOM     43  C1  IDY d 143     -24.646 -14.515  58.290  0.00  0.00     0.160 C 
ATOM     44  C6  IDY d 143     -26.444 -16.349  60.888  0.00  0.00     0.206 C 
ATOM     45  OS1 IDY d 143     -23.263 -10.695  59.627  0.00  0.00    -0.572 OA
ATOM     46  O5  IDY d 143     -24.983 -15.263  59.464  0.00  0.00    -0.340 OA
ATOM     47  OS2 IDY d 143     -24.043 -10.479  57.355  0.00  0.00    -0.572 OA
ATOM     48  H   IDY d 143     -26.553 -16.419  58.731  0.00  0.00     0.104 H 
ATOM     49  H   IDY d 143     -28.143 -15.322  59.262  0.00  0.00     0.092 H 
ATOM     50  H   IDY d 143     -27.471 -12.666  58.588  0.00  0.00     0.091 H 
ATOM     51  H   IDY d 143     -25.461 -16.678  56.148  0.00  0.00     0.066 H 
ATOM     52  H   IDY d 143     -26.473 -15.455  56.879  0.00  0.00     0.066 H 
ATOM     53  H   IDY d 143     -25.759 -16.705  57.870  0.00  0.00     0.066 H 
ATOM     54  H   IDY d 143     -27.016 -14.921  56.803  0.00  0.00     0.210 HD
ATOM     55  H   IDY d 143     -25.441 -13.050  56.988  0.00  0.00     0.097 H 
ATOM     56  H   IDY d 143     -23.669 -14.105  58.436  0.00  0.00     0.133 H 
ENDROOT
TORSDOF 17
ENDMDL
MODEL 12
REMARK VINA RESULT:      -6.2      2.521      5.578
REMARK  0 active torsions:
REMARK  status: ('A' for Active; 'I' for Inactive)
REMARK       I    between atoms: C1_1  and  O4_26 
REMARK       I    between atoms: C2_2  and  N_3 
REMARK       I    between atoms: N_3  and  S1_23 
REMARK       I    between atoms: O2S_4  and  S1_23 
REMARK       I    between atoms: S_5  and  O2_15 
REMARK       I    between atoms: O1_6  and  C1_27 
REMARK       I    between atoms: O1_6  and  C7_20 
REMARK       I    between atoms: C5_7  and  C6_28 
REMARK       I    between atoms: O3_8  and  C3_9 
REMARK       I    between atoms: C4_10  and  O4_26 
REMARK       I    between atoms: C4_11  and  O4_14 
REMARK       I    between atoms: O2_15  and  C2_22 
REMARK       I    between atoms: O6_17  and  C6_18 
REMARK       I    between atoms: C6_18  and  C5_29 
REMARK       I    between atoms: C3_19  and  O3_21 
REMARK       I    between atoms: S1_23  and  O1S_30 
REMARK       I    between atoms: S1_23  and  O3S_25 
ROOT
ATOM      1  C1  GNS d 142     -24.758 -12.905  59.868  0.00  0.00     0.150 C 
ATOM      2  C2  GNS d 142     -24.610 -11.600  59.096  0.00  0.00     0.081 C 
ATOM      3  N   GNS d 142     -25.830 -10.822  59.197  0.00  0.00    -0.210 NA
ATOM      4  O2S GNS d 142     -24.597  -8.726  58.844  0.00  0.00    -0.296 OA
ATOM      5  O3  GNS d 142     -23.908 -10.661  57.006  0.00  0.00    -0.391 OA
ATOM      6  C3  GNS d 142     -24.283 -11.868  57.632  0.00  0.00     0.083 C 
ATOM      7  C4  GNS d 142     -23.150 -12.880  57.501  0.00  0.00     0.089 C 
ATOM      8  O5  GNS d 142     -23.585 -13.674  59.720  0.00  0.00    -0.349 OA
ATOM      9  O4  GNS d 142     -23.041 -13.292  56.158  0.00  0.00    -0.390 OA
ATOM     10  O6  GNS d 142     -21.431 -14.923  59.474  0.00  0.00    -0.398 OA
ATOM     11  C6  GNS d 142     -22.229 -15.068  58.320  0.00  0.00     0.043 C 
ATOM     12  S1  GNS d 142     -25.757  -9.264  59.549  0.00  0.00     0.156 S 
ATOM     13  O3S GNS d 142     -27.009  -8.669  59.089  0.00  0.00    -0.296 OA
ATOM     14  C5  GNS d 142     -23.400 -14.094  58.387  0.00  0.00     0.089 C 
ATOM     15  O1S GNS d 142     -25.607  -9.164  60.998  0.00  0.00    -0.296 OA
ATOM     16  H   GNS d 142     -24.917 -12.690  60.904  0.00  0.00     0.131 H 
ATOM     17  H   GNS d 142     -23.801 -11.047  59.525  0.00  0.00     0.076 H 
ATOM     18  H   GNS d 142     -26.400 -11.262  59.920  0.00  0.00     0.140 HD
ATOM     19  H   GNS d 142     -23.792  -9.148  59.180  0.00  0.00     0.231 HD
ATOM     20  H   GNS d 142     -24.629 -10.016  57.089  0.00  0.00     0.210 HD
ATOM     21  H   GNS d 142     -25.154 -12.271  57.159  0.00  0.00     0.089 H 
ATOM     22  H   GNS d 142     -22.240 -12.412  57.815  0.00  0.00     0.091 H 
ATOM     23  H   GNS d 142     -23.870 -13.714  55.882  0.00  0.00     0.210 HD
ATOM     24  H   GNS d 142     -20.686 -15.543  59.431  0.00  0.00     0.209 HD
ATOM     25  H   GNS d 142     -22.601 -16.069  58.267  0.00  0.00     0.078 H 
ATOM     26  H   GNS d 142     -21.641 -14.860  57.451  0.00  0.00     0.078 H 
ATOM     27  H   GNS d 142     -27.072  -8.754  58.125  0.00  0.00     0.231 HD
ATOM     28  H   GNS d 142     -24.278 -14.594  58.035  0.00  0.00     0.090 H 
ATOM     29  H   GNS d 142     -24.767  -9.568  61.265  0.00  0.00     0.231 HD
ATOM     30  S   IDY d 143     -28.900 -10.867  56.741  0.00  0.00     0.252 S 
ATOM     31  O1  IDY d 143     -30.061 -14.831  57.825  0.00  0.00    -0.363 OA
ATOM     32  C5  IDY d 143     -27.309 -15.488  58.331  0.00  0.00     0.152 C 
ATOM     33  C4  IDY d 143     -26.925 -14.465  59.411  0.00  0.00     0.103 C 
ATOM     34  O62 IDY d 143     -25.334 -15.656  56.938  0.00  0.00    -0.646 OA
ATOM     35  O2  IDY d 143     -28.128 -11.742  57.753  0.00  0.00    -0.244 OA
ATOM     36  O61 IDY d 143     -25.904 -17.384  58.256  0.00  0.00    -0.646 OA
ATOM     37  C3  IDY d 143     -27.953 -13.339  59.630  0.00  0.00     0.094 C 
ATOM     38  C7  IDY d 143     -29.914 -15.574  58.681  0.00  0.00     0.007 C 
ATOM     39  O3  IDY d 143     -28.952 -13.825  60.535  0.00  0.00    -0.390 OA
ATOM     40  C2  IDY d 143     -28.732 -12.873  58.395  0.00  0.00     0.134 C 
ATOM     41  OS3 IDY d 143     -29.871 -11.671  55.919  0.00  0.00    -0.572 OA
ATOM     42  O4  IDY d 143     -25.860 -13.628  59.365  0.00  0.00    -0.348 OA
ATOM     43  C1  IDY d 143     -28.982 -14.008  57.394  0.00  0.00     0.160 C 
ATOM     44  C6  IDY d 143     -26.093 -16.202  57.820  0.00  0.00     0.206 C 
ATOM     45  OS1 IDY d 143     -27.917 -10.158  55.867  0.00  0.00    -0.572 OA
ATOM     46  O5  IDY d 143     -27.860 -14.867  57.161  0.00  0.00    -0.340 OA
ATOM     47  OS2 IDY d 143     -29.642  -9.876  57.529  0.00  0.00    -0.572 OA
ATOM     48  H   IDY d 143     -28.015 -16.138  58.804  0.00  0.00     0.104 H 
ATOM     49  H   IDY d 143     -26.772 -15.262  60.108  0.00  0.00     0.092 H 
ATOM     50  H   IDY d 143     -27.370 -12.509  59.972  0.00  0.00     0.091 H 
ATOM     51  H   IDY d 143     -30.830 -16.097  58.860  0.00  0.00     0.066 H 
ATOM     52  H   IDY d 143     -29.626 -15.047  59.567  0.00  0.00     0.066 H 
ATOM     53  H   IDY d 143     -29.150 -16.274  58.418  0.00  0.00     0.066 H 
ATOM     54  H   IDY d 143     -29.418 -14.572  60.130  0.00  0.00     0.210 HD
ATOM     55  H   IDY d 143     -29.686 -12.555  58.761  0.00  0.00     0.097 H 
ATOM     56  H   IDY d 143     -29.201 -13.503  56.477  0.00  0.00     0.133 H 
ENDROOT
TORSDOF 17
ENDMDL
MODEL 13
REMARK VINA RESULT:      -6.2      1.958      2.715
REMARK  0 active torsions:
REMARK  status: ('A' for Active; 'I' for Inactive)
REMARK       I    between atoms: C1_1  and  O4_26 
REMARK       I    between atoms: C2_2  and  N_3 
REMARK       I    between atoms: N_3  and  S1_23 
REMARK       I    between atoms: O2S_4  and  S1_23 
REMARK       I    between atoms: S_5  and  O2_15 
REMARK       I    between atoms: O1_6  and  C1_27 
REMARK       I    between atoms: O1_6  and  C7_20 
REMARK       I    between atoms: C5_7  and  C6_28 
REMARK       I    between atoms: O3_8  and  C3_9 
REMARK       I    between atoms: C4_10  and  O4_26 
REMARK       I    between atoms: C4_11  and  O4_14 
REMARK       I    between atoms: O2_15  and  C2_22 
REMARK       I    between atoms: O6_17  and  C6_18 
REMARK       I    between atoms: C6_18  and  C5_29 
REMARK       I    between atoms: C3_19  and  O3_21 
REMARK       I    between atoms: S1_23  and  O1S_30 
REMARK       I    between atoms: S1_23  and  O3S_25 
ROOT
ATOM      1  C1  GNS d 142     -26.916 -12.374  58.368  0.00  0.00     0.150 C 
ATOM      2  C2  GNS d 142     -25.776 -11.650  57.664  0.00  0.00     0.081 C 
ATOM      3  N   GNS d 142     -24.907 -12.610  57.011  0.00  0.00    -0.210 NA
ATOM      4  O2S GNS d 142     -24.191 -10.937  55.361  0.00  0.00    -0.296 OA
ATOM      5  O3  GNS d 142     -24.095  -9.964  57.937  0.00  0.00    -0.391 OA
ATOM      6  C3  GNS d 142     -24.974 -10.807  58.648  0.00  0.00     0.083 C 
ATOM      7  C4  GNS d 142     -25.896  -9.960  59.518  0.00  0.00     0.089 C 
ATOM      8  O5  GNS d 142     -27.725 -11.433  59.040  0.00  0.00    -0.349 OA
ATOM      9  O4  GNS d 142     -25.154  -9.390  60.572  0.00  0.00    -0.390 OA
ATOM     10  O6  GNS d 142     -29.149  -9.683  60.121  0.00  0.00    -0.398 OA
ATOM     11  C6  GNS d 142     -27.997  -9.940  60.894  0.00  0.00     0.043 C 
ATOM     12  S1  GNS d 142     -24.438 -12.369  55.501  0.00  0.00     0.156 S 
ATOM     13  O3S GNS d 142     -23.229 -13.162  55.302  0.00  0.00    -0.296 OA
ATOM     14  C5  GNS d 142     -27.029 -10.801  60.091  0.00  0.00     0.089 C 
ATOM     15  O1S GNS d 142     -25.531 -12.818  54.643  0.00  0.00    -0.296 OA
ATOM     16  H   GNS d 142     -27.504 -12.900  57.646  0.00  0.00     0.131 H 
ATOM     17  H   GNS d 142     -26.196 -10.997  56.927  0.00  0.00     0.076 H 
ATOM     18  H   GNS d 142     -25.393 -13.507  57.029  0.00  0.00     0.140 HD
ATOM     19  H   GNS d 142     -25.018 -10.451  55.500  0.00  0.00     0.231 HD
ATOM     20  H   GNS d 142     -23.508 -10.502  57.383  0.00  0.00     0.210 HD
ATOM     21  H   GNS d 142     -24.419 -11.465  59.283  0.00  0.00     0.089 H 
ATOM     22  H   GNS d 142     -26.321  -9.188  58.911  0.00  0.00     0.091 H 
ATOM     23  H   GNS d 142     -24.773 -10.097  61.117  0.00  0.00     0.210 HD
ATOM     24  H   GNS d 142     -29.765  -9.135  60.632  0.00  0.00     0.209 HD
ATOM     25  H   GNS d 142     -28.275 -10.455  61.789  0.00  0.00     0.078 H 
ATOM     26  H   GNS d 142     -27.524  -9.014  61.148  0.00  0.00     0.078 H 
ATOM     27  H   GNS d 142     -22.528 -12.835  55.888  0.00  0.00     0.231 HD
ATOM     28  H   GNS d 142     -26.607 -11.536  60.744  0.00  0.00     0.090 H 
ATOM     29  H   GNS d 142     -26.315 -12.269  54.803  0.00  0.00     0.231 HD
ATOM     30  S   IDY d 143     -21.691 -14.316  58.500  0.00  0.00     0.252 S 
ATOM     31  O1  IDY d 143     -23.894 -16.618  61.343  0.00  0.00    -0.363 OA
ATOM     32  C5  IDY d 143     -25.861 -14.528  61.496  0.00  0.00     0.152 C 
ATOM     33  C4  IDY d 143     -26.338 -14.426  60.039  0.00  0.00     0.103 C 
ATOM     34  O62 IDY d 143     -25.827 -12.235  62.277  0.00  0.00    -0.646 OA
ATOM     35  O2  IDY d 143     -23.224 -14.235  58.668  0.00  0.00    -0.244 OA
ATOM     36  O61 IDY d 143     -27.383 -13.648  63.073  0.00  0.00    -0.646 OA
ATOM     37  C3  IDY d 143     -25.474 -15.193  59.021  0.00  0.00     0.094 C 
ATOM     38  C7  IDY d 143     -24.958 -16.999  61.513  0.00  0.00     0.007 C 
ATOM     39  O3  IDY d 143     -25.920 -16.554  59.003  0.00  0.00    -0.390 OA
ATOM     40  C2  IDY d 143     -23.973 -15.272  59.317  0.00  0.00     0.134 C 
ATOM     41  OS3 IDY d 143     -21.028 -15.000  59.664  0.00  0.00    -0.572 OA
ATOM     42  O4  IDY d 143     -26.388 -13.290  59.301  0.00  0.00    -0.348 OA
ATOM     43  C1  IDY d 143     -23.672 -15.313  60.821  0.00  0.00     0.160 C 
ATOM     44  C6  IDY d 143     -26.395 -13.388  62.311  0.00  0.00     0.206 C 
ATOM     45  OS1 IDY d 143     -21.153 -12.934  58.312  0.00  0.00    -0.572 OA
ATOM     46  O5  IDY d 143     -24.437 -14.401  61.616  0.00  0.00    -0.340 OA
ATOM     47  OS2 IDY d 143     -21.447 -15.094  57.280  0.00  0.00    -0.572 OA
ATOM     48  H   IDY d 143     -26.202 -15.485  61.832  0.00  0.00     0.104 H 
ATOM     49  H   IDY d 143     -27.315 -14.745  60.339  0.00  0.00     0.092 H 
ATOM     50  H   IDY d 143     -25.591 -14.647  58.107  0.00  0.00     0.091 H 
ATOM     51  H   IDY d 143     -24.923 -17.993  61.908  0.00  0.00     0.066 H 
ATOM     52  H   IDY d 143     -25.489 -17.003  60.584  0.00  0.00     0.066 H 
ATOM     53  H   IDY d 143     -25.459 -16.357  62.208  0.00  0.00     0.066 H 
ATOM     54  H   IDY d 143     -25.770 -16.954  59.874  0.00  0.00     0.210 HD
ATOM     55  H   IDY d 143     -23.647 -16.202  58.901  0.00  0.00     0.097 H 
ATOM     56  H   IDY d 143     -22.645 -15.020  60.888  0.00  0.00     0.133 H 
ENDROOT
TORSDOF 17
ENDMDL
MODEL 14
REMARK VINA RESULT:      -6.2      1.907      5.563
REMARK  0 active torsions:
REMARK  status: ('A' for Active; 'I' for Inactive)
REMARK       I    between atoms: C1_1  and  O4_26 
REMARK       I    between atoms: C2_2  and  N_3 
REMARK       I    between atoms: N_3  and  S1_23 
REMARK       I    between atoms: O2S_4  and  S1_23 
REMARK       I    between atoms: S_5  and  O2_15 
REMARK       I    between atoms: O1_6  and  C1_27 
REMARK       I    between atoms: O1_6  and  C7_20 
REMARK       I    between atoms: C5_7  and  C6_28 
REMARK       I    between atoms: O3_8  and  C3_9 
REMARK       I    between atoms: C4_10  and  O4_26 
REMARK       I    between atoms: C4_11  and  O4_14 
REMARK       I    between atoms: O2_15  and  C2_22 
REMARK       I    between atoms: O6_17  and  C6_18 
REMARK       I    between atoms: C6_18  and  C5_29 
REMARK       I    between atoms: C3_19  and  O3_21 
REMARK       I    between atoms: S1_23  and  O1S_30 
REMARK       I    between atoms: S1_23  and  O3S_25 
ROOT
ATOM      1  C1  GNS d 142     -24.789 -14.343  60.219  0.00  0.00     0.150 C 
ATOM      2  C2  GNS d 142     -24.830 -13.735  58.823  0.00  0.00     0.081 C 
ATOM      3  N   GNS d 142     -24.653 -12.297  58.904  0.00  0.00    -0.210 NA
ATOM      4  O2S GNS d 142     -23.735 -12.219  56.626  0.00  0.00    -0.296 OA
ATOM      5  O3  GNS d 142     -26.053 -13.704  56.763  0.00  0.00    -0.391 OA
ATOM      6  C3  GNS d 142     -26.144 -14.060  58.124  0.00  0.00     0.083 C 
ATOM      7  C4  GNS d 142     -26.471 -15.545  58.239  0.00  0.00     0.089 C 
ATOM      8  O5  GNS d 142     -25.012 -15.734  60.132  0.00  0.00    -0.349 OA
ATOM      9  O4  GNS d 142     -27.794 -15.769  57.810  0.00  0.00    -0.390 OA
ATOM     10  O6  GNS d 142     -25.324 -18.202  59.866  0.00  0.00    -0.398 OA
ATOM     11  C6  GNS d 142     -26.560 -17.528  59.777  0.00  0.00     0.043 C 
ATOM     12  S1  GNS d 142     -23.624 -11.562  57.924  0.00  0.00     0.156 S 
ATOM     13  O3S GNS d 142     -24.023 -10.158  57.871  0.00  0.00    -0.296 OA
ATOM     14  C5  GNS d 142     -26.314 -16.027  59.676  0.00  0.00     0.089 C 
ATOM     15  O1S GNS d 142     -22.295 -11.729  58.506  0.00  0.00    -0.296 OA
ATOM     16  H   GNS d 142     -23.831 -14.162  60.659  0.00  0.00     0.131 H 
ATOM     17  H   GNS d 142     -24.031 -14.157  58.250  0.00  0.00     0.076 H 
ATOM     18  H   GNS d 142     -24.353 -12.091  59.856  0.00  0.00     0.140 HD
ATOM     19  H   GNS d 142     -23.462 -13.145  56.708  0.00  0.00     0.231 HD
ATOM     20  H   GNS d 142     -25.845 -12.759  56.689  0.00  0.00     0.210 HD
ATOM     21  H   GNS d 142     -26.925 -13.503  58.597  0.00  0.00     0.089 H 
ATOM     22  H   GNS d 142     -25.789 -16.091  57.622  0.00  0.00     0.091 H 
ATOM     23  H   GNS d 142     -28.406 -15.270  58.375  0.00  0.00     0.210 HD
ATOM     24  H   GNS d 142     -25.481 -19.157  59.931  0.00  0.00     0.209 HD
ATOM     25  H   GNS d 142     -27.143 -17.736  60.650  0.00  0.00     0.078 H 
ATOM     26  H   GNS d 142     -27.087 -17.862  58.909  0.00  0.00     0.078 H 
ATOM     27  H   GNS d 142     -24.908 -10.088  57.480  0.00  0.00     0.231 HD
ATOM     28  H   GNS d 142     -27.036 -15.523  60.282  0.00  0.00     0.090 H 
ATOM     29  H   GNS d 142     -22.066 -12.671  58.525  0.00  0.00     0.231 HD
ATOM     30  S   IDY d 143     -27.462  -9.560  59.187  0.00  0.00     0.252 S 
ATOM     31  O1  IDY d 143     -28.584 -10.727  63.139  0.00  0.00    -0.363 OA
ATOM     32  C5  IDY d 143     -27.848 -13.440  62.535  0.00  0.00     0.152 C 
ATOM     33  C4  IDY d 143     -26.365 -13.296  62.157  0.00  0.00     0.103 C 
ATOM     34  O62 IDY d 143     -28.696 -15.116  61.006  0.00  0.00    -0.646 OA
ATOM     35  O2  IDY d 143     -26.819 -10.739  59.950  0.00  0.00    -0.244 OA
ATOM     36  O61 IDY d 143     -28.470 -15.624  63.184  0.00  0.00    -0.646 OA
ATOM     37  C3  IDY d 143     -25.888 -11.846  61.953  0.00  0.00     0.094 C 
ATOM     38  C7  IDY d 143     -28.152 -11.297  64.031  0.00  0.00     0.007 C 
ATOM     39  O3  IDY d 143     -25.545 -11.312  63.237  0.00  0.00    -0.390 OA
ATOM     40  C2  IDY d 143     -26.911 -10.862  61.376  0.00  0.00     0.134 C 
ATOM     41  OS3 IDY d 143     -28.749  -9.108  59.822  0.00  0.00    -0.572 OA
ATOM     42  O4  IDY d 143     -25.792 -13.757  61.018  0.00  0.00    -0.348 OA
ATOM     43  C1  IDY d 143     -28.347 -11.183  61.811  0.00  0.00     0.160 C 
ATOM     44  C6  IDY d 143     -28.350 -14.815  62.207  0.00  0.00     0.206 C 
ATOM     45  OS1 IDY d 143     -27.680  -9.967  57.765  0.00  0.00    -0.572 OA
ATOM     46  O5  IDY d 143     -28.695 -12.571  61.770  0.00  0.00    -0.340 OA
ATOM     47  OS2 IDY d 143     -26.492  -8.460  59.227  0.00  0.00    -0.572 OA
ATOM     48  H   IDY d 143     -27.889 -13.212  63.580  0.00  0.00     0.104 H 
ATOM     49  H   IDY d 143     -26.094 -13.890  63.005  0.00  0.00     0.092 H 
ATOM     50  H   IDY d 143     -25.088 -11.926  61.246  0.00  0.00     0.091 H 
ATOM     51  H   IDY d 143     -28.435 -10.806  64.938  0.00  0.00     0.066 H 
ATOM     52  H   IDY d 143     -27.085 -11.320  63.956  0.00  0.00     0.066 H 
ATOM     53  H   IDY d 143     -28.531 -12.297  64.033  0.00  0.00     0.066 H 
ATOM     54  H   IDY d 143     -26.337 -11.283  63.797  0.00  0.00     0.210 HD
ATOM     55  H   IDY d 143     -26.658  -9.909  61.790  0.00  0.00     0.097 H 
ATOM     56  H   IDY d 143     -28.956 -10.674  61.094  0.00  0.00     0.133 H 
ENDROOT
TORSDOF 17
ENDMDL
MODEL 15
REMARK VINA RESULT:      -6.2      2.494      4.952
REMARK  0 active torsions:
REMARK  status: ('A' for Active; 'I' for Inactive)
REMARK       I    between atoms: C1_1  and  O4_26 
REMARK       I    between atoms: C2_2  and  N_3 
REMARK       I    between atoms: N_3  and  S1_23 
REMARK       I    between atoms: O2S_4  and  S1_23 
REMARK       I    between atoms: S_5  and  O2_15 
REMARK       I    between atoms: O1_6  and  C1_27 
REMARK       I    between atoms: O1_6  and  C7_20 
REMARK       I    between atoms: C5_7  and  C6_28 
REMARK       I    between atoms: O3_8  and  C3_9 
REMARK       I    between atoms: C4_10  and  O4_26 
REMARK       I    between atoms: C4_11  and  O4_14 
REMARK       I    between atoms: O2_15  and  C2_22 
REMARK       I    between atoms: O6_17  and  C6_18 
REMARK       I    between atoms: C6_18  and  C5_29 
REMARK       I    between atoms: C3_19  and  O3_21 
REMARK       I    between atoms: S1_23  and  O1S_30 
REMARK       I    between atoms: S1_23  and  O3S_25 
ROOT
ATOM      1  C1  GNS d 142     -28.748 -12.736  60.623  0.00  0.00     0.150 C 
ATOM      2  C2  GNS d 142     -27.637 -12.221  61.530  0.00  0.00     0.081 C 
ATOM      3  N   GNS d 142     -27.104 -10.979  61.005  0.00  0.00    -0.210 NA
ATOM      4  O2S GNS d 142     -26.393 -10.264  63.245  0.00  0.00    -0.296 OA
ATOM      5  O3  GNS d 142     -25.642 -12.857  62.695  0.00  0.00    -0.391 OA
ATOM      6  C3  GNS d 142     -26.523 -13.251  61.666  0.00  0.00     0.083 C 
ATOM      7  C4  GNS d 142     -27.089 -14.630  61.984  0.00  0.00     0.089 C 
ATOM      8  O5  GNS d 142     -29.224 -13.969  61.117  0.00  0.00    -0.349 OA
ATOM      9  O4  GNS d 142     -26.071 -15.597  61.855  0.00  0.00    -0.390 OA
ATOM     10  O6  GNS d 142     -30.062 -16.103  62.120  0.00  0.00    -0.398 OA
ATOM     11  C6  GNS d 142     -28.859 -16.318  61.415  0.00  0.00     0.043 C 
ATOM     12  S1  GNS d 142     -26.882  -9.729  61.978  0.00  0.00     0.156 S 
ATOM     13  O3S GNS d 142     -25.905  -8.859  61.330  0.00  0.00    -0.296 OA
ATOM     14  C5  GNS d 142     -28.239 -14.976  61.046  0.00  0.00     0.089 C 
ATOM     15  O1S GNS d 142     -28.179  -9.075  62.128  0.00  0.00    -0.296 OA
ATOM     16  H   GNS d 142     -29.548 -12.027  60.601  0.00  0.00     0.131 H 
ATOM     17  H   GNS d 142     -28.052 -12.045  62.501  0.00  0.00     0.076 H 
ATOM     18  H   GNS d 142     -27.742 -10.672  60.271  0.00  0.00     0.140 HD
ATOM     19  H   GNS d 142     -27.071 -10.834  63.639  0.00  0.00     0.231 HD
ATOM     20  H   GNS d 142     -25.281 -11.980  62.494  0.00  0.00     0.210 HD
ATOM     21  H   GNS d 142     -25.998 -13.306  60.736  0.00  0.00     0.089 H 
ATOM     22  H   GNS d 142     -27.461 -14.622  62.987  0.00  0.00     0.091 H 
ATOM     23  H   GNS d 142     -25.740 -15.598  60.943  0.00  0.00     0.210 HD
ATOM     24  H   GNS d 142     -30.457 -16.957  62.355  0.00  0.00     0.209 HD
ATOM     25  H   GNS d 142     -29.064 -16.874  60.524  0.00  0.00     0.078 H 
ATOM     26  H   GNS d 142     -28.179 -16.869  62.030  0.00  0.00     0.078 H 
ATOM     27  H   GNS d 142     -25.059  -9.327  61.249  0.00  0.00     0.231 HD
ATOM     28  H   GNS d 142     -27.854 -15.042  60.050  0.00  0.00     0.090 H 
ATOM     29  H   GNS d 142     -28.799  -9.682  62.560  0.00  0.00     0.231 HD
ATOM     30  S   IDY d 143     -24.060 -10.537  58.554  0.00  0.00     0.252 S 
ATOM     31  O1  IDY d 143     -26.108 -12.308  55.252  0.00  0.00    -0.363 OA
ATOM     32  C5  IDY d 143     -27.574 -13.981  57.072  0.00  0.00     0.152 C 
ATOM     33  C4  IDY d 143     -28.281 -12.948  57.964  0.00  0.00     0.103 C 
ATOM     34  O62 IDY d 143     -26.956 -15.762  58.593  0.00  0.00    -0.646 OA
ATOM     35  O2  IDY d 143     -25.492 -11.109  58.639  0.00  0.00    -0.244 OA
ATOM     36  O61 IDY d 143     -28.583 -16.116  57.084  0.00  0.00    -0.646 OA
ATOM     37  C3  IDY d 143     -27.782 -11.501  57.796  0.00  0.00     0.094 C 
ATOM     38  C7  IDY d 143     -27.176 -12.532  54.913  0.00  0.00     0.007 C 
ATOM     39  O3  IDY d 143     -28.477 -10.922  56.685  0.00  0.00    -0.390 OA
ATOM     40  C2  IDY d 143     -26.295 -11.322  57.469  0.00  0.00     0.134 C 
ATOM     41  OS3 IDY d 143     -23.340 -10.989  57.314  0.00  0.00    -0.572 OA
ATOM     42  O4  IDY d 143     -28.245 -12.916  59.318  0.00  0.00    -0.348 OA
ATOM     43  C1  IDY d 143     -25.738 -12.469  56.617  0.00  0.00     0.160 C 
ATOM     44  C6  IDY d 143     -27.720 -15.362  57.640  0.00  0.00     0.206 C 
ATOM     45  OS1 IDY d 143     -23.310 -10.932  59.785  0.00  0.00    -0.572 OA
ATOM     46  O5  IDY d 143     -26.155 -13.778  57.019  0.00  0.00    -0.340 OA
ATOM     47  OS2 IDY d 143     -24.198  -9.076  58.527  0.00  0.00    -0.572 OA
ATOM     48  H   IDY d 143     -28.026 -13.869  56.108  0.00  0.00     0.104 H 
ATOM     49  H   IDY d 143     -29.229 -13.288  57.601  0.00  0.00     0.092 H 
ATOM     50  H   IDY d 143     -27.956 -11.047  58.750  0.00  0.00     0.091 H 
ATOM     51  H   IDY d 143     -27.262 -12.354  53.861  0.00  0.00     0.066 H 
ATOM     52  H   IDY d 143     -27.858 -11.897  55.439  0.00  0.00     0.066 H 
ATOM     53  H   IDY d 143     -27.409 -13.555  55.121  0.00  0.00     0.066 H 
ATOM     54  H   IDY d 143     -28.250 -11.405  55.875  0.00  0.00     0.210 HD
ATOM     55  H   IDY d 143     -26.236 -10.430  56.881  0.00  0.00     0.097 H 
ATOM     56  H   IDY d 143     -24.679 -12.407  56.759  0.00  0.00     0.133 H 
ENDROOT
TORSDOF 17
ENDMDL
MODEL 16
REMARK VINA RESULT:      -6.1      1.686      2.155
REMARK  0 active torsions:
REMARK  status: ('A' for Active; 'I' for Inactive)
REMARK       I    between atoms: C1_1  and  O4_26 
REMARK       I    between atoms: C2_2  and  N_3 
REMARK       I    between atoms: N_3  and  S1_23 
REMARK       I    between atoms: O2S_4  and  S1_23 
REMARK       I    between atoms: S_5  and  O2_15 
REMARK       I    between atoms: O1_6  and  C1_27 
REMARK       I    between atoms: O1_6  and  C7_20 
REMARK       I    between atoms: C5_7  and  C6_28 
REMARK       I    between atoms: O3_8  and  C3_9 
REMARK       I    between atoms: C4_10  and  O4_26 
REMARK       I    between atoms: C4_11  and  O4_14 
REMARK       I    between atoms: O2_15  and  C2_22 
REMARK       I    between atoms: O6_17  and  C6_18 
REMARK       I    between atoms: C6_18  and  C5_29 
REMARK       I    between atoms: C3_19  and  O3_21 
REMARK       I    between atoms: S1_23  and  O1S_30 
REMARK       I    between atoms: S1_23  and  O3S_25 
ROOT
ATOM      1  C1  GNS d 142     -27.992 -12.929  59.355  0.00  0.00     0.150 C 
ATOM      2  C2  GNS d 142     -27.762 -11.607  58.634  0.00  0.00     0.081 C 
ATOM      3  N   GNS d 142     -27.666 -11.832  57.204  0.00  0.00    -0.210 NA
ATOM      4  O2S GNS d 142     -28.429  -9.545  56.728  0.00  0.00    -0.296 OA
ATOM      5  O3  GNS d 142     -26.447  -9.604  58.642  0.00  0.00    -0.391 OA
ATOM      6  C3  GNS d 142     -26.498 -10.922  59.139  0.00  0.00     0.083 C 
ATOM      7  C4  GNS d 142     -26.467 -10.891  60.663  0.00  0.00     0.089 C 
ATOM      8  O5  GNS d 142     -28.034 -12.703  60.747  0.00  0.00    -0.349 OA
ATOM      9  O4  GNS d 142     -25.189 -10.486  61.098  0.00  0.00    -0.390 OA
ATOM     10  O6  GNS d 142     -28.183 -12.189  63.191  0.00  0.00    -0.398 OA
ATOM     11  C6  GNS d 142     -26.839 -12.214  62.765  0.00  0.00     0.043 C 
ATOM     12  S1  GNS d 142     -28.482 -10.902  56.191  0.00  0.00     0.156 S 
ATOM     13  O3S GNS d 142     -27.822 -11.010  54.894  0.00  0.00    -0.296 OA
ATOM     14  C5  GNS d 142     -26.789 -12.263  61.243  0.00  0.00     0.089 C 
ATOM     15  O1S GNS d 142     -29.848 -11.417  56.151  0.00  0.00    -0.296 OA
ATOM     16  H   GNS d 142     -28.920 -13.353  59.034  0.00  0.00     0.131 H 
ATOM     17  H   GNS d 142     -28.595 -10.966  58.835  0.00  0.00     0.076 H 
ATOM     18  H   GNS d 142     -27.972 -12.791  57.036  0.00  0.00     0.140 HD
ATOM     19  H   GNS d 142     -28.878  -9.520  57.587  0.00  0.00     0.231 HD
ATOM     20  H   GNS d 142     -26.467  -9.622  57.672  0.00  0.00     0.210 HD
ATOM     21  H   GNS d 142     -25.652 -11.478  58.794  0.00  0.00     0.089 H 
ATOM     22  H   GNS d 142     -27.206 -10.197  61.004  0.00  0.00     0.091 H 
ATOM     23  H   GNS d 142     -24.525 -11.121  60.785  0.00  0.00     0.210 HD
ATOM     24  H   GNS d 142     -28.215 -12.158  64.160  0.00  0.00     0.209 HD
ATOM     25  H   GNS d 142     -26.354 -13.079  63.166  0.00  0.00     0.078 H 
ATOM     26  H   GNS d 142     -26.339 -11.333  63.110  0.00  0.00     0.078 H 
ATOM     27  H   GNS d 142     -26.920 -10.659  54.960  0.00  0.00     0.231 HD
ATOM     28  H   GNS d 142     -26.018 -12.943  60.950  0.00  0.00     0.090 H 
ATOM     29  H   GNS d 142     -30.253 -11.329  57.028  0.00  0.00     0.231 HD
ATOM     30  S   IDY d 143     -24.406 -12.497  55.107  0.00  0.00     0.252 S 
ATOM     31  O1  IDY d 143     -23.740 -16.339  56.847  0.00  0.00    -0.363 OA
ATOM     32  C5  IDY d 143     -24.946 -15.429  59.293  0.00  0.00     0.152 C 
ATOM     33  C4  IDY d 143     -26.351 -15.018  58.827  0.00  0.00     0.103 C 
ATOM     34  O62 IDY d 143     -24.351 -13.761  60.946  0.00  0.00    -0.646 OA
ATOM     35  O2  IDY d 143     -25.302 -13.109  56.206  0.00  0.00    -0.244 OA
ATOM     36  O61 IDY d 143     -24.786 -15.865  61.608  0.00  0.00    -0.646 OA
ATOM     37  C3  IDY d 143     -26.532 -14.952  57.299  0.00  0.00     0.094 C 
ATOM     38  C7  IDY d 143     -24.320 -17.151  57.406  0.00  0.00     0.007 C 
ATOM     39  O3  IDY d 143     -26.835 -16.273  56.835  0.00  0.00    -0.390 OA
ATOM     40  C2  IDY d 143     -25.311 -14.517  56.482  0.00  0.00     0.134 C 
ATOM     41  OS3 IDY d 143     -23.093 -13.219  54.978  0.00  0.00    -0.572 OA
ATOM     42  O4  IDY d 143     -26.940 -13.818  59.055  0.00  0.00    -0.348 OA
ATOM     43  C1  IDY d 143     -23.989 -14.964  57.117  0.00  0.00     0.160 C 
ATOM     44  C6  IDY d 143     -24.698 -14.975  60.701  0.00  0.00     0.206 C 
ATOM     45  OS1 IDY d 143     -24.195 -11.049  55.408  0.00  0.00    -0.572 OA
ATOM     46  O5  IDY d 143     -23.909 -14.788  58.536  0.00  0.00    -0.340 OA
ATOM     47  OS2 IDY d 143     -25.151 -12.620  53.848  0.00  0.00    -0.572 OA
ATOM     48  H   IDY d 143     -24.918 -16.493  59.180  0.00  0.00     0.104 H 
ATOM     49  H   IDY d 143     -26.776 -15.789  59.436  0.00  0.00     0.092 H 
ATOM     50  H   IDY d 143     -27.294 -14.214  57.153  0.00  0.00     0.091 H 
ATOM     51  H   IDY d 143     -23.998 -18.115  57.070  0.00  0.00     0.066 H 
ATOM     52  H   IDY d 143     -25.367 -17.039  57.213  0.00  0.00     0.066 H 
ATOM     53  H   IDY d 143     -24.139 -17.061  58.456  0.00  0.00     0.066 H 
ATOM     54  H   IDY d 143     -26.084 -16.859  57.016  0.00  0.00     0.210 HD
ATOM     55  H   IDY d 143     -25.400 -15.020  55.543  0.00  0.00     0.097 H 
ATOM     56  H   IDY d 143     -23.257 -14.326  56.670  0.00  0.00     0.133 H 
ENDROOT
TORSDOF 17
ENDMDL
MODEL 17
REMARK VINA RESULT:      -6.1      2.374      3.786
REMARK  0 active torsions:
REMARK  status: ('A' for Active; 'I' for Inactive)
REMARK       I    between atoms: C1_1  and  O4_26 
REMARK       I    between atoms: C2_2  and  N_3 
REMARK       I    between atoms: N_3  and  S1_23 
REMARK       I    between atoms: O2S_4  and  S1_23 
REMARK       I    between atoms: S_5  and  O2_15 
REMARK       I    between atoms: O1_6  and  C1_27 
REMARK       I    between atoms: O1_6  and  C7_20 
REMARK       I    between atoms: C5_7  and  C6_28 
REMARK       I    between atoms: O3_8  and  C3_9 
REMARK       I    between atoms: C4_10  and  O4_26 
REMARK       I    between atoms: C4_11  and  O4_14 
REMARK       I    between atoms: O2_15  and  C2_22 
REMARK       I    between atoms: O6_17  and  C6_18 
REMARK       I    between atoms: C6_18  and  C5_29 
REMARK       I    between atoms: C3_19  and  O3_21 
REMARK       I    between atoms: S1_23  and  O1S_30 
REMARK       I    between atoms: S1_23  and  O3S_25 
ROOT
ATOM      1  C1  GNS d 142     -26.722 -11.759  57.523  0.00  0.00     0.150 C 
ATOM      2  C2  GNS d 142     -25.463 -11.959  56.689  0.00  0.00     0.081 C 
ATOM      3  N   GNS d 142     -25.508 -13.247  56.023  0.00  0.00    -0.210 NA
ATOM      4  O2S GNS d 142     -24.036 -12.441  54.228  0.00  0.00    -0.296 OA
ATOM      5  O3  GNS d 142     -23.072 -11.802  56.729  0.00  0.00    -0.391 OA
ATOM      6  C3  GNS d 142     -24.213 -11.864  57.555  0.00  0.00     0.083 C 
ATOM      7  C4  GNS d 142     -24.261 -10.630  58.449  0.00  0.00     0.089 C 
ATOM      8  O5  GNS d 142     -26.643 -10.527  58.205  0.00  0.00    -0.349 OA
ATOM      9  O4  GNS d 142     -23.228 -10.702  59.405  0.00  0.00    -0.390 OA
ATOM     10  O6  GNS d 142     -26.451  -8.284  59.298  0.00  0.00    -0.398 OA
ATOM     11  C6  GNS d 142     -25.683  -9.245  59.987  0.00  0.00     0.043 C 
ATOM     12  S1  GNS d 142     -25.148 -13.356  54.468  0.00  0.00     0.156 S 
ATOM     13  O3S GNS d 142     -24.785 -14.748  54.217  0.00  0.00    -0.296 OA
ATOM     14  C5  GNS d 142     -25.604 -10.522  59.159  0.00  0.00     0.089 C 
ATOM     15  O1S GNS d 142     -26.345 -12.964  53.729  0.00  0.00    -0.296 OA
ATOM     16  H   GNS d 142     -27.578 -11.759  56.882  0.00  0.00     0.131 H 
ATOM     17  H   GNS d 142     -25.422 -11.183  55.954  0.00  0.00     0.076 H 
ATOM     18  H   GNS d 142     -26.459 -13.600  56.131  0.00  0.00     0.140 HD
ATOM     19  H   GNS d 142     -24.322 -11.532  54.407  0.00  0.00     0.231 HD
ATOM     20  H   GNS d 142     -23.041 -12.588  56.161  0.00  0.00     0.210 HD
ATOM     21  H   GNS d 142     -24.168 -12.732  58.179  0.00  0.00     0.089 H 
ATOM     22  H   GNS d 142     -24.131  -9.762  57.835  0.00  0.00     0.091 H 
ATOM     23  H   GNS d 142     -23.353 -11.491  59.956  0.00  0.00     0.210 HD
ATOM     24  H   GNS d 142     -26.501  -7.472  59.826  0.00  0.00     0.209 HD
ATOM     25  H   GNS d 142     -26.141  -9.459  60.930  0.00  0.00     0.078 H 
ATOM     26  H   GNS d 142     -24.696  -8.864  60.149  0.00  0.00     0.078 H 
ATOM     27  H   GNS d 142     -23.988 -14.970  54.724  0.00  0.00     0.231 HD
ATOM     28  H   GNS d 142     -25.707 -11.360  59.816  0.00  0.00     0.090 H 
ATOM     29  H   GNS d 142     -26.554 -12.037  53.921  0.00  0.00     0.231 HD
ATOM     30  S   IDY d 143     -24.079 -16.665  57.339  0.00  0.00     0.252 S 
ATOM     31  O1  IDY d 143     -26.958 -16.977  60.477  0.00  0.00    -0.363 OA
ATOM     32  C5  IDY d 143     -27.041 -14.110  60.671  0.00  0.00     0.152 C 
ATOM     33  C4  IDY d 143     -27.473 -13.702  59.254  0.00  0.00     0.103 C 
ATOM     34  O62 IDY d 143     -25.432 -12.418  61.316  0.00  0.00    -0.646 OA
ATOM     35  O2  IDY d 143     -25.155 -15.596  57.626  0.00  0.00    -0.244 OA
ATOM     36  O61 IDY d 143     -27.445 -12.463  62.315  0.00  0.00    -0.646 OA
ATOM     37  C3  IDY d 143     -27.432 -14.837  58.214  0.00  0.00     0.094 C 
ATOM     38  C7  IDY d 143     -27.987 -16.563  60.755  0.00  0.00     0.007 C 
ATOM     39  O3  IDY d 143     -28.661 -15.567  58.310  0.00  0.00    -0.390 OA
ATOM     40  C2  IDY d 143     -26.332 -15.889  58.391  0.00  0.00     0.134 C 
ATOM     41  OS3 IDY d 143     -23.917 -17.630  58.482  0.00  0.00    -0.572 OA
ATOM     42  O4  IDY d 143     -26.837 -12.807  58.460  0.00  0.00    -0.348 OA
ATOM     43  C1  IDY d 143     -25.986 -16.136  59.865  0.00  0.00     0.160 C 
ATOM     44  C6  IDY d 143     -26.610 -12.910  61.462  0.00  0.00     0.206 C 
ATOM     45  OS1 IDY d 143     -22.787 -15.979  57.031  0.00  0.00    -0.572 OA
ATOM     46  O5  IDY d 143     -25.881 -14.954  60.667  0.00  0.00    -0.340 OA
ATOM     47  OS2 IDY d 143     -24.527 -17.397  56.149  0.00  0.00    -0.572 OA
ATOM     48  H   IDY d 143     -27.892 -14.609  61.087  0.00  0.00     0.104 H 
ATOM     49  H   IDY d 143     -28.384 -13.302  59.651  0.00  0.00     0.092 H 
ATOM     50  H   IDY d 143     -27.250 -14.339  57.284  0.00  0.00     0.091 H 
ATOM     51  H   IDY d 143     -28.574 -17.338  61.200  0.00  0.00     0.066 H 
ATOM     52  H   IDY d 143     -28.477 -16.206  59.873  0.00  0.00     0.066 H 
ATOM     53  H   IDY d 143     -27.872 -15.759  61.450  0.00  0.00     0.066 H 
ATOM     54  H   IDY d 143     -28.726 -15.976  59.187  0.00  0.00     0.210 HD
ATOM     55  H   IDY d 143     -26.740 -16.799  58.004  0.00  0.00     0.097 H 
ATOM     56  H   IDY d 143     -25.019 -16.593  59.832  0.00  0.00     0.133 H 
ENDROOT
TORSDOF 17
ENDMDL
MODEL 18
REMARK VINA RESULT:      -6.1      1.821      2.430
REMARK  0 active torsions:
REMARK  status: ('A' for Active; 'I' for Inactive)
REMARK       I    between atoms: C1_1  and  O4_26 
REMARK       I    between atoms: C2_2  and  N_3 
REMARK       I    between atoms: N_3  and  S1_23 
REMARK       I    between atoms: O2S_4  and  S1_23 
REMARK       I    between atoms: S_5  and  O2_15 
REMARK       I    between atoms: O1_6  and  C1_27 
REMARK       I    between atoms: O1_6  and  C7_20 
REMARK       I    between atoms: C5_7  and  C6_28 
REMARK       I    between atoms: O3_8  and  C3_9 
REMARK       I    between atoms: C4_10  and  O4_26 
REMARK       I    between atoms: C4_11  and  O4_14 
REMARK       I    between atoms: O2_15  and  C2_22 
REMARK       I    between atoms: O6_17  and  C6_18 
REMARK       I    between atoms: C6_18  and  C5_29 
REMARK       I    between atoms: C3_19  and  O3_21 
REMARK       I    between atoms: S1_23  and  O1S_30 
REMARK       I    between atoms: S1_23  and  O3S_25 
ROOT
ATOM      1  C1  GNS d 142     -28.147 -12.968  61.488  0.00  0.00     0.150 C 
ATOM      2  C2  GNS d 142     -27.846 -11.489  61.286  0.00  0.00     0.081 C 
ATOM      3  N   GNS d 142     -27.471 -11.243  59.906  0.00  0.00    -0.210 NA
ATOM      4  O2S GNS d 142     -28.235  -8.912  60.049  0.00  0.00    -0.296 OA
ATOM      5  O3  GNS d 142     -26.649  -9.619  62.189  0.00  0.00    -0.391 OA
ATOM      6  C3  GNS d 142     -26.733 -11.026  62.218  0.00  0.00     0.083 C 
ATOM      7  C4  GNS d 142     -26.991 -11.489  63.648  0.00  0.00     0.089 C 
ATOM      8  O5  GNS d 142     -28.461 -13.203  62.843  0.00  0.00    -0.349 OA
ATOM      9  O4  GNS d 142     -25.838 -11.269  64.428  0.00  0.00    -0.390 OA
ATOM     10  O6  GNS d 142     -29.093 -13.502  65.245  0.00  0.00    -0.398 OA
ATOM     11  C6  GNS d 142     -27.693 -13.412  65.102  0.00  0.00     0.043 C 
ATOM     12  S1  GNS d 142     -28.123 -10.021  59.106  0.00  0.00     0.156 S 
ATOM     13  O3S GNS d 142     -27.225  -9.717  57.996  0.00  0.00    -0.296 OA
ATOM     14  C5  GNS d 142     -27.354 -12.969  63.684  0.00  0.00     0.089 C 
ATOM     15  O1S GNS d 142     -29.432 -10.472  58.640  0.00  0.00    -0.296 OA
ATOM     16  H   GNS d 142     -28.977 -13.250  60.874  0.00  0.00     0.131 H 
ATOM     17  H   GNS d 142     -28.730 -10.932  61.516  0.00  0.00     0.076 H 
ATOM     18  H   GNS d 142     -27.695 -12.090  59.385  0.00  0.00     0.140 HD
ATOM     19  H   GNS d 142     -28.839  -9.157  60.766  0.00  0.00     0.231 HD
ATOM     20  H   GNS d 142     -26.485  -9.324  61.279  0.00  0.00     0.210 HD
ATOM     21  H   GNS d 142     -25.812 -11.456  61.884  0.00  0.00     0.089 H 
ATOM     22  H   GNS d 142     -27.813 -10.929  64.042  0.00  0.00     0.091 H 
ATOM     23  H   GNS d 142     -25.099 -11.780  64.063  0.00  0.00     0.210 HD
ATOM     24  H   GNS d 142     -29.308 -13.785  66.148  0.00  0.00     0.209 HD
ATOM     25  H   GNS d 142     -27.253 -14.369  65.291  0.00  0.00     0.078 H 
ATOM     26  H   GNS d 142     -27.308 -12.699  65.801  0.00  0.00     0.078 H 
ATOM     27  H   GNS d 142     -26.370  -9.421  58.344  0.00  0.00     0.231 HD
ATOM     28  H   GNS d 142     -26.510 -13.532  63.344  0.00  0.00     0.090 H 
ATOM     29  H   GNS d 142     -29.998 -10.664  59.403  0.00  0.00     0.231 HD
ATOM     30  S   IDY d 143     -23.847 -11.254  58.380  0.00  0.00     0.252 S 
ATOM     31  O1  IDY d 143     -23.346 -15.463  58.894  0.00  0.00    -0.363 OA
ATOM     32  C5  IDY d 143     -25.032 -15.369  61.220  0.00  0.00     0.152 C 
ATOM     33  C4  IDY d 143     -26.342 -14.804  60.648  0.00  0.00     0.103 C 
ATOM     34  O62 IDY d 143     -24.837 -14.334  63.402  0.00  0.00    -0.646 OA
ATOM     35  O2  IDY d 143     -24.905 -12.171  59.030  0.00  0.00    -0.244 OA
ATOM     36  O61 IDY d 143     -25.293 -16.530  63.260  0.00  0.00    -0.646 OA
ATOM     37  C3  IDY d 143     -26.234 -14.246  59.217  0.00  0.00     0.094 C 
ATOM     38  C7  IDY d 143     -23.982 -16.401  59.040  0.00  0.00     0.007 C 
ATOM     39  O3  IDY d 143     -26.382 -15.341  58.305  0.00  0.00    -0.390 OA
ATOM     40  C2  IDY d 143     -24.902 -13.592  58.834  0.00  0.00     0.134 C 
ATOM     41  OS3 IDY d 143     -22.501 -11.918  58.283  0.00  0.00    -0.572 OA
ATOM     42  O4  IDY d 143     -27.017 -13.732  61.129  0.00  0.00    -0.348 OA
ATOM     43  C1  IDY d 143     -23.703 -14.244  59.536  0.00  0.00     0.160 C 
ATOM     44  C6  IDY d 143     -25.076 -15.397  62.719  0.00  0.00     0.206 C 
ATOM     45  OS1 IDY d 143     -23.763  -9.983  59.163  0.00  0.00    -0.572 OA
ATOM     46  O5  IDY d 143     -23.902 -14.536  60.924  0.00  0.00    -0.340 OA
ATOM     47  OS2 IDY d 143     -24.334 -10.950  57.029  0.00  0.00    -0.572 OA
ATOM     48  H   IDY d 143     -24.934 -16.340  60.781  0.00  0.00     0.104 H 
ATOM     49  H   IDY d 143     -26.837 -15.723  60.884  0.00  0.00     0.092 H 
ATOM     50  H   IDY d 143     -26.987 -13.487  59.169  0.00  0.00     0.091 H 
ATOM     51  H   IDY d 143     -23.558 -17.210  58.483  0.00  0.00     0.066 H 
ATOM     52  H   IDY d 143     -24.978 -16.214  58.695  0.00  0.00     0.066 H 
ATOM     53  H   IDY d 143     -24.007 -16.657  60.078  0.00  0.00     0.066 H 
ATOM     54  H   IDY d 143     -25.652 -15.967  58.431  0.00  0.00     0.210 HD
ATOM     55  H   IDY d 143     -24.788 -13.764  57.785  0.00  0.00     0.097 H 
ATOM     56  H   IDY d 143     -22.930 -13.508  59.467  0.00  0.00     0.133 H 
ENDROOT
TORSDOF 17
ENDMDL
MODEL 19
REMARK VINA RESULT:      -6.1      2.741      5.744
REMARK  0 active torsions:
REMARK  status: ('A' for Active; 'I' for Inactive)
REMARK       I    between atoms: C1_1  and  O4_26 
REMARK       I    between atoms: C2_2  and  N_3 
REMARK       I    between atoms: N_3  and  S1_23 
REMARK       I    between atoms: O2S_4  and  S1_23 
REMARK       I    between atoms: S_5  and  O2_15 
REMARK       I    between atoms: O1_6  and  C1_27 
REMARK       I    between atoms: O1_6  and  C7_20 
REMARK       I    between atoms: C5_7  and  C6_28 
REMARK       I    between atoms: O3_8  and  C3_9 
REMARK       I    between atoms: C4_10  and  O4_26 
REMARK       I    between atoms: C4_11  and  O4_14 
REMARK       I    between atoms: O2_15  and  C2_22 
REMARK       I    between atoms: O6_17  and  C6_18 
REMARK       I    between atoms: C6_18  and  C5_29 
REMARK       I    between atoms: C3_19  and  O3_21 
REMARK       I    between atoms: S1_23  and  O1S_30 
REMARK       I    between atoms: S1_23  and  O3S_25 
ROOT
ATOM      1  C1  GNS d 142     -25.764 -11.262  58.502  0.00  0.00     0.150 C 
ATOM      2  C2  GNS d 142     -26.494 -12.123  59.526  0.00  0.00     0.081 C 
ATOM      3  N   GNS d 142     -25.536 -12.767  60.405  0.00  0.00    -0.210 NA
ATOM      4  O2S GNS d 142     -27.199 -12.922  62.207  0.00  0.00    -0.296 OA
ATOM      5  O3  GNS d 142     -28.202 -13.783  59.789  0.00  0.00    -0.391 OA
ATOM      6  C3  GNS d 142     -27.357 -13.174  58.839  0.00  0.00     0.083 C 
ATOM      7  C4  GNS d 142     -28.203 -12.548  57.735  0.00  0.00     0.089 C 
ATOM      8  O5  GNS d 142     -26.703 -10.682  57.623  0.00  0.00    -0.349 OA
ATOM      9  O4  GNS d 142     -28.793 -13.567  56.961  0.00  0.00    -0.390 OA
ATOM     10  O6  GNS d 142     -28.449  -9.629  56.172  0.00  0.00    -0.398 OA
ATOM     11  C6  GNS d 142     -28.214 -10.965  55.786  0.00  0.00     0.043 C 
ATOM     12  S1  GNS d 142     -25.766 -12.750  61.988  0.00  0.00     0.156 S 
ATOM     13  O3S GNS d 142     -24.984 -13.853  62.539  0.00  0.00    -0.296 OA
ATOM     14  C5  GNS d 142     -27.355 -11.655  56.838  0.00  0.00     0.089 C 
ATOM     15  O1S GNS d 142     -25.294 -11.454  62.469  0.00  0.00    -0.296 OA
ATOM     16  H   GNS d 142     -25.223 -10.490  59.008  0.00  0.00     0.131 H 
ATOM     17  H   GNS d 142     -27.132 -11.489  60.104  0.00  0.00     0.076 H 
ATOM     18  H   GNS d 142     -24.634 -12.322  60.233  0.00  0.00     0.140 HD
ATOM     19  H   GNS d 142     -27.677 -12.169  61.826  0.00  0.00     0.231 HD
ATOM     20  H   GNS d 142     -27.664 -14.181  60.492  0.00  0.00     0.210 HD
ATOM     21  H   GNS d 142     -26.713 -13.906  58.398  0.00  0.00     0.089 H 
ATOM     22  H   GNS d 142     -28.963 -11.948  58.190  0.00  0.00     0.091 H 
ATOM     23  H   GNS d 142     -28.098 -14.107  56.553  0.00  0.00     0.210 HD
ATOM     24  H   GNS d 142     -28.995  -9.190  55.502  0.00  0.00     0.209 HD
ATOM     25  H   GNS d 142     -27.706 -10.980  54.844  0.00  0.00     0.078 H 
ATOM     26  H   GNS d 142     -29.148 -11.479  55.694  0.00  0.00     0.078 H 
ATOM     27  H   GNS d 142     -25.327 -14.694  62.198  0.00  0.00     0.231 HD
ATOM     28  H   GNS d 142     -26.633 -12.267  56.339  0.00  0.00     0.090 H 
ATOM     29  H   GNS d 142     -25.835 -10.749  62.083  0.00  0.00     0.231 HD
ATOM     30  S   IDY d 143     -23.885 -16.307  59.953  0.00  0.00     0.252 S 
ATOM     31  O1  IDY d 143     -21.590 -15.108  56.558  0.00  0.00    -0.363 OA
ATOM     32  C5  IDY d 143     -23.658 -13.250  55.829  0.00  0.00     0.152 C 
ATOM     33  C4  IDY d 143     -23.738 -12.350  57.072  0.00  0.00     0.103 C 
ATOM     34  O62 IDY d 143     -25.960 -13.487  55.112  0.00  0.00    -0.646 OA
ATOM     35  O2  IDY d 143     -23.950 -14.897  59.327  0.00  0.00    -0.244 OA
ATOM     36  O61 IDY d 143     -24.538 -12.267  53.870  0.00  0.00    -0.646 OA
ATOM     37  C3  IDY d 143     -22.970 -12.875  58.299  0.00  0.00     0.094 C 
ATOM     38  C7  IDY d 143     -21.199 -14.151  56.069  0.00  0.00     0.007 C 
ATOM     39  O3  IDY d 143     -21.603 -12.465  58.170  0.00  0.00    -0.390 OA
ATOM     40  C2  IDY d 143     -22.912 -14.396  58.473  0.00  0.00     0.134 C 
ATOM     41  OS3 IDY d 143     -23.222 -17.303  59.041  0.00  0.00    -0.572 OA
ATOM     42  O4  IDY d 143     -24.865 -12.062  57.768  0.00  0.00    -0.348 OA
ATOM     43  C1  IDY d 143     -22.891 -15.141  57.133  0.00  0.00     0.160 C 
ATOM     44  C6  IDY d 143     -24.801 -12.973  54.898  0.00  0.00     0.206 C 
ATOM     45  OS1 IDY d 143     -25.271 -16.743  60.306  0.00  0.00    -0.572 OA
ATOM     46  O5  IDY d 143     -23.804 -14.640  56.149  0.00  0.00    -0.340 OA
ATOM     47  OS2 IDY d 143     -23.096 -16.180  61.184  0.00  0.00    -0.572 OA
ATOM     48  H   IDY d 143     -22.701 -13.041  55.398  0.00  0.00     0.104 H 
ATOM     49  H   IDY d 143     -23.411 -11.517  56.487  0.00  0.00     0.092 H 
ATOM     50  H   IDY d 143     -23.504 -12.478  59.138  0.00  0.00     0.091 H 
ATOM     51  H   IDY d 143     -20.210 -14.319  55.697  0.00  0.00     0.066 H 
ATOM     52  H   IDY d 143     -21.178 -13.363  56.793  0.00  0.00     0.066 H 
ATOM     53  H   IDY d 143     -21.842 -13.876  55.260  0.00  0.00     0.066 H 
ATOM     54  H   IDY d 143     -21.215 -12.879  57.384  0.00  0.00     0.210 HD
ATOM     55  H   IDY d 143     -21.981 -14.594  58.962  0.00  0.00     0.097 H 
ATOM     56  H   IDY d 143     -23.197 -16.135  57.383  0.00  0.00     0.133 H 
ENDROOT
TORSDOF 17
ENDMDL
MODEL 20
REMARK VINA RESULT:      -6.1      1.774      5.473
REMARK  0 active torsions:
REMARK  status: ('A' for Active; 'I' for Inactive)
REMARK       I    between atoms: C1_1  and  O4_26 
REMARK       I    between atoms: C2_2  and  N_3 
REMARK       I    between atoms: N_3  and  S1_23 
REMARK       I    between atoms: O2S_4  and  S1_23 
REMARK       I    between atoms: S_5  and  O2_15 
REMARK       I    between atoms: O1_6  and  C1_27 
REMARK       I    between atoms: O1_6  and  C7_20 
REMARK       I    between atoms: C5_7  and  C6_28 
REMARK       I    between atoms: O3_8  and  C3_9 
REMARK       I    between atoms: C4_10  and  O4_26 
REMARK       I    between atoms: C4_11  and  O4_14 
REMARK       I    between atoms: O2_15  and  C2_22 
REMARK       I    between atoms: O6_17  and  C6_18 
REMARK       I    between atoms: C6_18  and  C5_29 
REMARK       I    between atoms: C3_19  and  O3_21 
REMARK       I    between atoms: S1_23  and  O1S_30 
REMARK       I    between atoms: S1_23  and  O3S_25 
ROOT
ATOM      1  C1  GNS d 142     -24.980 -12.652  61.544  0.00  0.00     0.150 C 
ATOM      2  C2  GNS d 142     -24.933 -13.156  60.107  0.00  0.00     0.081 C 
ATOM      3  N   GNS d 142     -25.166 -12.058  59.188  0.00  0.00    -0.210 NA
ATOM      4  O2S GNS d 142     -23.912 -13.199  57.409  0.00  0.00    -0.296 OA
ATOM      5  O3  GNS d 142     -25.733 -14.867  58.633  0.00  0.00    -0.391 OA
ATOM      6  C3  GNS d 142     -25.965 -14.253  59.880  0.00  0.00     0.083 C 
ATOM      7  C4  GNS d 142     -25.897 -15.304  60.983  0.00  0.00     0.089 C 
ATOM      8  O5  GNS d 142     -24.802 -13.736  62.429  0.00  0.00    -0.349 OA
ATOM      9  O4  GNS d 142     -27.014 -16.158  60.887  0.00  0.00    -0.390 OA
ATOM     10  O6  GNS d 142     -24.388 -15.708  63.913  0.00  0.00    -0.398 OA
ATOM     11  C6  GNS d 142     -25.723 -15.694  63.458  0.00  0.00     0.043 C 
ATOM     12  S1  GNS d 142     -24.214 -11.864  57.917  0.00  0.00     0.156 S 
ATOM     13  O3S GNS d 142     -24.959 -11.059  56.953  0.00  0.00    -0.296 OA
ATOM     14  C5  GNS d 142     -25.875 -14.649  62.359  0.00  0.00     0.089 C 
ATOM     15  O1S GNS d 142     -23.015 -11.177  58.389  0.00  0.00    -0.296 OA
ATOM     16  H   GNS d 142     -24.200 -11.935  61.696  0.00  0.00     0.131 H 
ATOM     17  H   GNS d 142     -23.961 -13.567  59.928  0.00  0.00     0.076 H 
ATOM     18  H   GNS d 142     -25.106 -11.199  59.735  0.00  0.00     0.140 HD
ATOM     19  H   GNS d 142     -23.419 -13.695  58.080  0.00  0.00     0.231 HD
ATOM     20  H   GNS d 142     -25.776 -14.199  57.930  0.00  0.00     0.210 HD
ATOM     21  H   GNS d 142     -26.939 -13.809  59.895  0.00  0.00     0.089 H 
ATOM     22  H   GNS d 142     -24.995 -15.866  60.860  0.00  0.00     0.091 H 
ATOM     23  H   GNS d 142     -27.827 -15.640  61.000  0.00  0.00     0.210 HD
ATOM     24  H   GNS d 142     -24.292 -16.372  64.612  0.00  0.00     0.209 HD
ATOM     25  H   GNS d 142     -26.375 -15.453  64.272  0.00  0.00     0.078 H 
ATOM     26  H   GNS d 142     -25.978 -16.658  63.071  0.00  0.00     0.078 H 
ATOM     27  H   GNS d 142     -25.746 -11.547  56.664  0.00  0.00     0.231 HD
ATOM     28  H   GNS d 142     -26.802 -14.136  62.503  0.00  0.00     0.090 H 
ATOM     29  H   GNS d 142     -22.549 -11.740  59.025  0.00  0.00     0.231 HD
ATOM     30  S   IDY d 143     -28.610 -10.882  57.700  0.00  0.00     0.252 S 
ATOM     31  O1  IDY d 143     -30.062  -9.464  61.457  0.00  0.00    -0.363 OA
ATOM     32  C5  IDY d 143     -28.530 -11.490  62.802  0.00  0.00     0.152 C 
ATOM     33  C4  IDY d 143     -27.098 -11.168  62.348  0.00  0.00     0.103 C 
ATOM     34  O62 IDY d 143     -28.612 -13.911  62.849  0.00  0.00    -0.646 OA
ATOM     35  O2  IDY d 143     -27.820 -10.991  59.023  0.00  0.00    -0.244 OA
ATOM     36  O61 IDY d 143     -28.649 -12.768  64.784  0.00  0.00    -0.646 OA
ATOM     37  C3  IDY d 143     -26.999 -10.151  61.196  0.00  0.00     0.094 C 
ATOM     38  C7  IDY d 143     -29.659  -9.137  62.475  0.00  0.00     0.007 C 
ATOM     39  O3  IDY d 143     -27.046  -8.837  61.764  0.00  0.00    -0.390 OA
ATOM     40  C2  IDY d 143     -28.129 -10.175  60.161  0.00  0.00     0.134 C 
ATOM     41  OS3 IDY d 143     -30.062 -10.565  57.930  0.00  0.00    -0.572 OA
ATOM     42  O4  IDY d 143     -26.229 -12.045  61.790  0.00  0.00    -0.348 OA
ATOM     43  C1  IDY d 143     -29.479 -10.568  60.773  0.00  0.00     0.160 C 
ATOM     44  C6  IDY d 143     -28.578 -12.810  63.513  0.00  0.00     0.206 C 
ATOM     45  OS1 IDY d 143     -28.454 -12.158  56.938  0.00  0.00    -0.572 OA
ATOM     46  O5  IDY d 143     -29.429 -11.661  61.697  0.00  0.00    -0.340 OA
ATOM     47  OS2 IDY d 143     -27.993  -9.790  56.937  0.00  0.00    -0.572 OA
ATOM     48  H   IDY d 143     -28.817 -10.665  63.421  0.00  0.00     0.104 H 
ATOM     49  H   IDY d 143     -26.833 -10.937  63.359  0.00  0.00     0.092 H 
ATOM     50  H   IDY d 143     -26.094 -10.412  60.687  0.00  0.00     0.091 H 
ATOM     51  H   IDY d 143     -30.220  -8.297  62.828  0.00  0.00     0.066 H 
ATOM     52  H   IDY d 143     -28.629  -8.862  62.380  0.00  0.00     0.066 H 
ATOM     53  H   IDY d 143     -29.750  -9.944  63.171  0.00  0.00     0.066 H 
ATOM     54  H   IDY d 143     -27.903  -8.703  62.198  0.00  0.00     0.210 HD
ATOM     55  H   IDY d 143     -28.218  -9.168  59.811  0.00  0.00     0.097 H 
ATOM     56  H   IDY d 143     -30.064 -10.878  59.934  0.00  0.00     0.133 H 
ENDROOT
TORSDOF 17
ENDMDL
MODEL 21
REMARK VINA RESULT:      -5.9      2.613      6.275
REMARK  0 active torsions:
REMARK  status: ('A' for Active; 'I' for Inactive)
REMARK       I    between atoms: C1_1  and  O4_26 
REMARK       I    between atoms: C2_2  and  N_3 
REMARK       I    between atoms: N_3  and  S1_23 
REMARK       I    between atoms: O2S_4  and  S1_23 
REMARK       I    between atoms: S_5  and  O2_15 
REMARK       I    between atoms: O1_6  and  C1_27 
REMARK       I    between atoms: O1_6  and  C7_20 
REMARK       I    between atoms: C5_7  and  C6_28 
REMARK       I    between atoms: O3_8  and  C3_9 
REMARK       I    between atoms: C4_10  and  O4_26 
REMARK       I    between atoms: C4_11  and  O4_14 
REMARK       I    between atoms: O2_15  and  C2_22 
REMARK       I    between atoms: O6_17  and  C6_18 
REMARK       I    between atoms: C6_18  and  C5_29 
REMARK       I    between atoms: C3_19  and  O3_21 
REMARK       I    between atoms: S1_23  and  O1S_30 
REMARK       I    between atoms: S1_23  and  O3S_25 
ROOT
ATOM      1  C1  GNS d 142     -24.803 -14.555  59.244  0.00  0.00     0.150 C 
ATOM      2  C2  GNS d 142     -24.641 -13.251  60.015  0.00  0.00     0.081 C 
ATOM      3  N   GNS d 142     -25.944 -12.709  60.351  0.00  0.00    -0.210 NA
ATOM      4  O2S GNS d 142     -25.018 -11.527  62.297  0.00  0.00    -0.296 OA
ATOM      5  O3  GNS d 142     -23.501 -11.144  60.029  0.00  0.00    -0.391 OA
ATOM      6  C3  GNS d 142     -23.846 -12.234  59.205  0.00  0.00     0.083 C 
ATOM      7  C4  GNS d 142     -22.579 -12.861  58.634  0.00  0.00     0.089 C 
ATOM      8  O5  GNS d 142     -23.532 -15.047  58.879  0.00  0.00    -0.349 OA
ATOM      9  O4  GNS d 142     -22.003 -11.982  57.695  0.00  0.00    -0.390 OA
ATOM     10  O6  GNS d 142     -21.232 -15.883  58.358  0.00  0.00    -0.398 OA
ATOM     11  C6  GNS d 142     -21.608 -14.859  57.464  0.00  0.00     0.043 C 
ATOM     12  S1  GNS d 142     -26.235 -12.191  61.836  0.00  0.00     0.156 S 
ATOM     13  O3S GNS d 142     -27.367 -11.273  61.748  0.00  0.00    -0.296 OA
ATOM     14  C5  GNS d 142     -22.885 -14.193  57.961  0.00  0.00     0.089 C 
ATOM     15  O1S GNS d 142     -26.549 -13.368  62.640  0.00  0.00    -0.296 OA
ATOM     16  H   GNS d 142     -25.301 -15.274  59.860  0.00  0.00     0.131 H 
ATOM     17  H   GNS d 142     -24.102 -13.459  60.915  0.00  0.00     0.076 H 
ATOM     18  H   GNS d 142     -26.627 -13.440  60.155  0.00  0.00     0.140 HD
ATOM     19  H   GNS d 142     -24.296 -12.172  62.340  0.00  0.00     0.231 HD
ATOM     20  H   GNS d 142     -24.307 -10.745  60.393  0.00  0.00     0.210 HD
ATOM     21  H   GNS d 142     -24.455 -11.900  58.391  0.00  0.00     0.089 H 
ATOM     22  H   GNS d 142     -21.896 -13.036  59.439  0.00  0.00     0.091 H 
ATOM     23  H   GNS d 142     -22.629 -11.829  56.970  0.00  0.00     0.210 HD
ATOM     24  H   GNS d 142     -20.420 -16.307  58.041  0.00  0.00     0.209 HD
ATOM     25  H   GNS d 142     -21.779 -15.278  56.494  0.00  0.00     0.078 H 
ATOM     26  H   GNS d 142     -20.826 -14.132  57.405  0.00  0.00     0.078 H 
ATOM     27  H   GNS d 142     -27.120 -10.506  61.208  0.00  0.00     0.231 HD
ATOM     28  H   GNS d 142     -23.522 -14.009  57.122  0.00  0.00     0.090 H 
ATOM     29  H   GNS d 142     -25.776 -13.952  62.675  0.00  0.00     0.231 HD
ATOM     30  S   IDY d 143     -28.074 -10.148  58.262  0.00  0.00     0.252 S 
ATOM     31  O1  IDY d 143     -28.851 -12.935  55.121  0.00  0.00    -0.363 OA
ATOM     32  C5  IDY d 143     -26.313 -14.189  55.621  0.00  0.00     0.152 C 
ATOM     33  C4  IDY d 143     -26.447 -14.615  57.092  0.00  0.00     0.103 C 
ATOM     34  O62 IDY d 143     -24.009 -13.472  55.413  0.00  0.00    -0.646 OA
ATOM     35  O2  IDY d 143     -27.514 -11.587  58.233  0.00  0.00    -0.244 OA
ATOM     36  O61 IDY d 143     -24.664 -15.378  54.419  0.00  0.00    -0.646 OA
ATOM     37  C3  IDY d 143     -27.660 -14.020  57.829  0.00  0.00     0.094 C 
ATOM     38  C7  IDY d 143     -28.852 -14.064  54.944  0.00  0.00     0.007 C 
ATOM     39  O3  IDY d 143     -28.794 -14.851  57.552  0.00  0.00    -0.390 OA
ATOM     40  C2  IDY d 143     -28.093 -12.610  57.411  0.00  0.00     0.134 C 
ATOM     41  OS3 IDY d 143     -28.605  -9.718  56.922  0.00  0.00    -0.572 OA
ATOM     42  O4  IDY d 143     -25.568 -14.324  58.082  0.00  0.00    -0.348 OA
ATOM     43  C1  IDY d 143     -27.840 -12.334  55.924  0.00  0.00     0.160 C 
ATOM     44  C6  IDY d 143     -24.901 -14.358  55.145  0.00  0.00     0.206 C 
ATOM     45  OS1 IDY d 143     -27.000  -9.222  58.735  0.00  0.00    -0.572 OA
ATOM     46  O5  IDY d 143     -26.577 -12.792  55.430  0.00  0.00    -0.340 OA
ATOM     47  OS2 IDY d 143     -29.170 -10.148  59.238  0.00  0.00    -0.572 OA
ATOM     48  H   IDY d 143     -27.015 -14.800  55.092  0.00  0.00     0.104 H 
ATOM     49  H   IDY d 143     -26.385 -15.642  56.797  0.00  0.00     0.092 H 
ATOM     50  H   IDY d 143     -27.352 -13.969  58.853  0.00  0.00     0.091 H 
ATOM     51  H   IDY d 143     -29.681 -14.327  54.322  0.00  0.00     0.066 H 
ATOM     52  H   IDY d 143     -28.936 -14.572  55.883  0.00  0.00     0.066 H 
ATOM     53  H   IDY d 143     -27.940 -14.351  54.464  0.00  0.00     0.066 H 
ATOM     54  H   IDY d 143     -28.988 -14.827  56.602  0.00  0.00     0.210 HD
ATOM     55  H   IDY d 143     -29.151 -12.577  57.566  0.00  0.00     0.097 H 
ATOM     56  H   IDY d 143     -27.849 -11.267  55.853  0.00  0.00     0.133 H 
ENDROOT
TORSDOF 17
ENDMDL
MODEL 22
REMARK VINA RESULT:      -5.9      3.426      6.356
REMARK  0 active torsions:
REMARK  status: ('A' for Active; 'I' for Inactive)
REMARK       I    between atoms: C1_1  and  O4_26 
REMARK       I    between atoms: C2_2  and  N_3 
REMARK       I    between atoms: N_3  and  S1_23 
REMARK       I    between atoms: O2S_4  and  S1_23 
REMARK       I    between atoms: S_5  and  O2_15 
REMARK       I    between atoms: O1_6  and  C1_27 
REMARK       I    between atoms: O1_6  and  C7_20 
REMARK       I    between atoms: C5_7  and  C6_28 
REMARK       I    between atoms: O3_8  and  C3_9 
REMARK       I    between atoms: C4_10  and  O4_26 
REMARK       I    between atoms: C4_11  and  O4_14 
REMARK       I    between atoms: O2_15  and  C2_22 
REMARK       I    between atoms: O6_17  and  C6_18 
REMARK       I    between atoms: C6_18  and  C5_29 
REMARK       I    between atoms: C3_19  and  O3_21 
REMARK       I    between atoms: S1_23  and  O1S_30 
REMARK       I    between atoms: S1_23  and  O3S_25 
ROOT
ATOM      1  C1  GNS d 142     -23.657 -14.907  59.679  0.00  0.00     0.150 C 
ATOM      2  C2  GNS d 142     -23.192 -13.508  59.296  0.00  0.00     0.081 C 
ATOM      3  N   GNS d 142     -24.336 -12.678  58.968  0.00  0.00    -0.210 NA
ATOM      4  O2S GNS d 142     -23.110 -10.638  59.578  0.00  0.00    -0.296 OA
ATOM      5  O3  GNS d 142     -21.629 -12.292  57.946  0.00  0.00    -0.391 OA
ATOM      6  C3  GNS d 142     -22.229 -13.557  58.116  0.00  0.00     0.083 C 
ATOM      7  C4  GNS d 142     -21.147 -14.607  58.339  0.00  0.00     0.089 C 
ATOM      8  O5  GNS d 142     -22.534 -15.718  59.947  0.00  0.00    -0.349 OA
ATOM      9  O4  GNS d 142     -20.431 -14.804  57.140  0.00  0.00    -0.390 OA
ATOM     10  O6  GNS d 142     -20.485 -17.049  60.488  0.00  0.00    -0.398 OA
ATOM     11  C6  GNS d 142     -20.667 -16.954  59.093  0.00  0.00     0.043 C 
ATOM     12  S1  GNS d 142     -24.455 -11.204  59.578  0.00  0.00     0.156 S 
ATOM     13  O3S GNS d 142     -25.369 -10.463  58.714  0.00  0.00    -0.296 OA
ATOM     14  C5  GNS d 142     -21.754 -15.929  58.791  0.00  0.00     0.089 C 
ATOM     15  O1S GNS d 142     -24.984 -11.349  60.932  0.00  0.00    -0.296 OA
ATOM     16  H   GNS d 142     -24.273 -14.851  60.552  0.00  0.00     0.131 H 
ATOM     17  H   GNS d 142     -22.677 -13.084  60.133  0.00  0.00     0.076 H 
ATOM     18  H   GNS d 142     -25.166 -13.189  59.268  0.00  0.00     0.140 HD
ATOM     19  H   GNS d 142     -22.540 -11.160  60.164  0.00  0.00     0.231 HD
ATOM     20  H   GNS d 142     -22.317 -11.624  57.805  0.00  0.00     0.210 HD
ATOM     21  H   GNS d 142     -22.782 -13.821  57.239  0.00  0.00     0.089 H 
ATOM     22  H   GNS d 142     -20.487 -14.257  59.105  0.00  0.00     0.091 H 
ATOM     23  H   GNS d 142     -21.036 -15.121  56.451  0.00  0.00     0.210 HD
ATOM     24  H   GNS d 142     -19.794 -17.702  60.680  0.00  0.00     0.209 HD
ATOM     25  H   GNS d 142     -20.959 -17.907  58.705  0.00  0.00     0.078 H 
ATOM     26  H   GNS d 142     -19.751 -16.648  58.634  0.00  0.00     0.078 H 
ATOM     27  H   GNS d 142     -24.984 -10.387  57.826  0.00  0.00     0.231 HD
ATOM     28  H   GNS d 142     -22.367 -16.307  58.000  0.00  0.00     0.090 H 
ATOM     29  H   GNS d 142     -24.352 -11.845  61.475  0.00  0.00     0.231 HD
ATOM     30  S   IDY d 143     -25.947 -12.126  55.424  0.00  0.00     0.252 S 
ATOM     31  O1  IDY d 143     -27.414 -16.127  55.163  0.00  0.00    -0.363 OA
ATOM     32  C5  IDY d 143     -25.185 -17.036  56.735  0.00  0.00     0.152 C 
ATOM     33  C4  IDY d 143     -25.353 -16.227  58.031  0.00  0.00     0.103 C 
ATOM     34  O62 IDY d 143     -22.790 -17.107  56.379  0.00  0.00    -0.646 OA
ATOM     35  O2  IDY d 143     -25.708 -13.200  56.507  0.00  0.00    -0.244 OA
ATOM     36  O61 IDY d 143     -23.873 -18.984  56.976  0.00  0.00    -0.646 OA
ATOM     37  C3  IDY d 143     -26.384 -15.086  57.953  0.00  0.00     0.094 C 
ATOM     38  C7  IDY d 143     -27.662 -17.007  55.850  0.00  0.00     0.007 C 
ATOM     39  O3  IDY d 143     -27.678 -15.645  58.210  0.00  0.00    -0.390 OA
ATOM     40  C2  IDY d 143     -26.521 -14.378  56.601  0.00  0.00     0.134 C 
ATOM     41  OS3 IDY d 143     -26.423 -12.721  54.128  0.00  0.00    -0.572 OA
ATOM     42  O4  IDY d 143     -24.397 -15.466  58.617  0.00  0.00    -0.348 OA
ATOM     43  C1  IDY d 143     -26.270 -15.319  55.415  0.00  0.00     0.160 C 
ATOM     44  C6  IDY d 143     -23.860 -17.737  56.713  0.00  0.00     0.206 C 
ATOM     45  OS1 IDY d 143     -24.684 -11.351  55.226  0.00  0.00    -0.572 OA
ATOM     46  O5  IDY d 143     -25.152 -16.200  55.570  0.00  0.00    -0.340 OA
ATOM     47  OS2 IDY d 143     -26.981 -11.227  55.951  0.00  0.00    -0.572 OA
ATOM     48  H   IDY d 143     -26.020 -17.706  56.718  0.00  0.00     0.104 H 
ATOM     49  H   IDY d 143     -25.522 -17.135  58.572  0.00  0.00     0.092 H 
ATOM     50  H   IDY d 143     -26.034 -14.362  58.659  0.00  0.00     0.091 H 
ATOM     51  H   IDY d 143     -28.551 -17.491  55.503  0.00  0.00     0.066 H 
ATOM     52  H   IDY d 143     -27.818 -16.648  56.846  0.00  0.00     0.066 H 
ATOM     53  H   IDY d 143     -26.851 -17.704  55.844  0.00  0.00     0.066 H 
ATOM     54  H   IDY d 143     -27.897 -16.285  57.516  0.00  0.00     0.210 HD
ATOM     55  H   IDY d 143     -27.541 -14.061  56.545  0.00  0.00     0.097 H 
ATOM     56  H   IDY d 143     -26.054 -14.659  54.602  0.00  0.00     0.133 H 
ENDROOT
TORSDOF 17
ENDMDL
MODEL 23
REMARK VINA RESULT:      -5.9      2.440      5.428
REMARK  0 active torsions:
REMARK  status: ('A' for Active; 'I' for Inactive)
REMARK       I    between atoms: C1_1  and  O4_26 
REMARK       I    between atoms: C2_2  and  N_3 
REMARK       I    between atoms: N_3  and  S1_23 
REMARK       I    between atoms: O2S_4  and  S1_23 
REMARK       I    between atoms: S_5  and  O2_15 
REMARK       I    between atoms: O1_6  and  C1_27 
REMARK       I    between atoms: O1_6  and  C7_20 
REMARK       I    between atoms: C5_7  and  C6_28 
REMARK       I    between atoms: O3_8  and  C3_9 
REMARK       I    between atoms: C4_10  and  O4_26 
REMARK       I    between atoms: C4_11  and  O4_14 
REMARK       I    between atoms: O2_15  and  C2_22 
REMARK       I    between atoms: O6_17  and  C6_18 
REMARK       I    between atoms: C6_18  and  C5_29 
REMARK       I    between atoms: C3_19  and  O3_21 
REMARK       I    between atoms: S1_23  and  O1S_30 
REMARK       I    between atoms: S1_23  and  O3S_25 
ROOT
ATOM      1  C1  GNS d 142     -25.214 -10.968  58.760  0.00  0.00     0.150 C 
ATOM      2  C2  GNS d 142     -24.768 -12.238  59.472  0.00  0.00     0.081 C 
ATOM      3  N   GNS d 142     -24.437 -13.262  58.500  0.00  0.00    -0.210 NA
ATOM      4  O2S GNS d 142     -22.895 -14.348  60.075  0.00  0.00    -0.296 OA
ATOM      5  O3  GNS d 142     -25.325 -13.763  61.235  0.00  0.00    -0.391 OA
ATOM      6  C3  GNS d 142     -25.853 -12.745  60.414  0.00  0.00     0.083 C 
ATOM      7  C4  GNS d 142     -26.390 -11.616  61.287  0.00  0.00     0.089 C 
ATOM      8  O5  GNS d 142     -25.581  -9.997  59.715  0.00  0.00    -0.349 OA
ATOM      9  O4  GNS d 142     -27.549 -12.053  61.959  0.00  0.00    -0.390 OA
ATOM     10  O6  GNS d 142     -26.121  -8.313  61.486  0.00  0.00    -0.398 OA
ATOM     11  C6  GNS d 142     -27.179  -9.233  61.329  0.00  0.00     0.043 C 
ATOM     12  S1  GNS d 142     -23.081 -14.098  58.649  0.00  0.00     0.156 S 
ATOM     13  O3S GNS d 142     -23.261 -15.331  57.888  0.00  0.00    -0.296 OA
ATOM     14  C5  GNS d 142     -26.721 -10.389  60.448  0.00  0.00     0.089 C 
ATOM     15  O1S GNS d 142     -22.012 -13.269  58.098  0.00  0.00    -0.296 OA
ATOM     16  H   GNS d 142     -24.411 -10.594  58.161  0.00  0.00     0.131 H 
ATOM     17  H   GNS d 142     -23.899 -12.009  60.053  0.00  0.00     0.076 H 
ATOM     18  H   GNS d 142     -24.402 -12.803  57.590  0.00  0.00     0.140 HD
ATOM     19  H   GNS d 142     -22.780 -13.504  60.538  0.00  0.00     0.231 HD
ATOM     20  H   GNS d 142     -24.983 -14.481  60.680  0.00  0.00     0.210 HD
ATOM     21  H   GNS d 142     -26.659 -13.131  59.825  0.00  0.00     0.089 H 
ATOM     22  H   GNS d 142     -25.635 -11.348  61.996  0.00  0.00     0.091 H 
ATOM     23  H   GNS d 142     -28.228 -12.294  61.309  0.00  0.00     0.210 HD
ATOM     24  H   GNS d 142     -26.413  -7.577  62.046  0.00  0.00     0.209 HD
ATOM     25  H   GNS d 142     -28.012  -8.743  60.870  0.00  0.00     0.078 H 
ATOM     26  H   GNS d 142     -27.470  -9.608  62.287  0.00  0.00     0.078 H 
ATOM     27  H   GNS d 142     -23.977 -15.853  58.283  0.00  0.00     0.231 HD
ATOM     28  H   GNS d 142     -27.516 -10.642  59.779  0.00  0.00     0.090 H 
ATOM     29  H   GNS d 142     -21.923 -12.462  58.627  0.00  0.00     0.231 HD
ATOM     30  S   IDY d 143     -26.826 -16.017  57.028  0.00  0.00     0.252 S 
ATOM     31  O1  IDY d 143     -29.189 -13.199  54.858  0.00  0.00    -0.363 OA
ATOM     32  C5  IDY d 143     -28.669 -11.222  56.879  0.00  0.00     0.152 C 
ATOM     33  C4  IDY d 143     -27.135 -11.133  56.857  0.00  0.00     0.103 C 
ATOM     34  O62 IDY d 143     -29.247 -11.015  59.222  0.00  0.00    -0.646 OA
ATOM     35  O2  IDY d 143     -26.591 -14.491  57.064  0.00  0.00    -0.244 OA
ATOM     36  O61 IDY d 143     -29.732  -9.332  57.814  0.00  0.00    -0.646 OA
ATOM     37  C3  IDY d 143     -26.435 -12.243  56.051  0.00  0.00     0.094 C 
ATOM     38  C7  IDY d 143     -29.113 -12.133  54.451  0.00  0.00     0.007 C 
ATOM     39  O3  IDY d 143     -26.413 -11.840  54.676  0.00  0.00    -0.390 OA
ATOM     40  C2  IDY d 143     -27.109 -13.619  56.050  0.00  0.00     0.134 C 
ATOM     41  OS3 IDY d 143     -28.171 -16.371  56.456  0.00  0.00    -0.572 OA
ATOM     42  O4  IDY d 143     -26.321 -11.255  57.934  0.00  0.00    -0.348 OA
ATOM     43  C1  IDY d 143     -28.638 -13.525  56.129  0.00  0.00     0.160 C 
ATOM     44  C6  IDY d 143     -29.228 -10.478  58.055  0.00  0.00     0.206 C 
ATOM     45  OS1 IDY d 143     -26.672 -16.561  58.411  0.00  0.00    -0.572 OA
ATOM     46  O5  IDY d 143     -29.137 -12.565  57.068  0.00  0.00    -0.340 OA
ATOM     47  OS2 IDY d 143     -25.774 -16.579  56.173  0.00  0.00    -0.572 OA
ATOM     48  H   IDY d 143     -28.982 -10.823  55.936  0.00  0.00     0.104 H 
ATOM     49  H   IDY d 143     -27.202 -10.118  56.524  0.00  0.00     0.092 H 
ATOM     50  H   IDY d 143     -25.481 -12.355  56.525  0.00  0.00     0.091 H 
ATOM     51  H   IDY d 143     -29.581 -12.084  53.491  0.00  0.00     0.066 H 
ATOM     52  H   IDY d 143     -28.082 -11.859  54.360  0.00  0.00     0.066 H 
ATOM     53  H   IDY d 143     -29.603 -11.460  55.122  0.00  0.00     0.066 H 
ATOM     54  H   IDY d 143     -27.323 -11.769  54.346  0.00  0.00     0.210 HD
ATOM     55  H   IDY d 143     -26.865 -14.057  55.105  0.00  0.00     0.097 H 
ATOM     56  H   IDY d 143     -28.940 -14.495  56.464  0.00  0.00     0.133 H 
ENDROOT
TORSDOF 17
ENDMDL
MODEL 24
REMARK VINA RESULT:      -5.8      2.725      5.839
REMARK  0 active torsions:
REMARK  status: ('A' for Active; 'I' for Inactive)
REMARK       I    between atoms: C1_1  and  O4_26 
REMARK       I    between atoms: C2_2  and  N_3 
REMARK       I    between atoms: N_3  and  S1_23 
REMARK       I    between atoms: O2S_4  and  S1_23 
REMARK       I    between atoms: S_5  and  O2_15 
REMARK       I    between atoms: O1_6  and  C1_27 
REMARK       I    between atoms: O1_6  and  C7_20 
REMARK       I    between atoms: C5_7  and  C6_28 
REMARK       I    between atoms: O3_8  and  C3_9 
REMARK       I    between atoms: C4_10  and  O4_26 
REMARK       I    between atoms: C4_11  and  O4_14 
REMARK       I    between atoms: O2_15  and  C2_22 
REMARK       I    between atoms: O6_17  and  C6_18 
REMARK       I    between atoms: C6_18  and  C5_29 
REMARK       I    between atoms: C3_19  and  O3_21 
REMARK       I    between atoms: S1_23  and  O1S_30 
REMARK       I    between atoms: S1_23  and  O3S_25 
ROOT
ATOM      1  C1  GNS d 142     -23.785 -13.264  59.779  0.00  0.00     0.150 C 
ATOM      2  C2  GNS d 142     -24.494 -11.919  59.878  0.00  0.00     0.081 C 
ATOM      3  N   GNS d 142     -25.775 -12.082  60.540  0.00  0.00    -0.210 NA
ATOM      4  O2S GNS d 142     -25.742  -9.749  61.313  0.00  0.00    -0.296 OA
ATOM      5  O3  GNS d 142     -25.120  -9.968  58.637  0.00  0.00    -0.391 OA
ATOM      6  C3  GNS d 142     -24.695 -11.305  58.499  0.00  0.00     0.083 C 
ATOM      7  C4  GNS d 142     -23.404 -11.346  57.690  0.00  0.00     0.089 C 
ATOM      8  O5  GNS d 142     -22.565 -13.101  59.089  0.00  0.00    -0.349 OA
ATOM      9  O4  GNS d 142     -23.679 -11.008  56.349  0.00  0.00    -0.390 OA
ATOM     10  O6  GNS d 142     -20.381 -12.696  57.938  0.00  0.00    -0.398 OA
ATOM     11  C6  GNS d 142     -21.437 -12.750  57.005  0.00  0.00     0.043 C 
ATOM     12  S1  GNS d 142     -26.204 -11.076  61.708  0.00  0.00     0.156 S 
ATOM     13  O3S GNS d 142     -27.659 -11.149  61.812  0.00  0.00    -0.296 OA
ATOM     14  C5  GNS d 142     -22.770 -12.730  57.744  0.00  0.00     0.089 C 
ATOM     15  O1S GNS d 142     -25.548 -11.540  62.927  0.00  0.00    -0.296 OA
ATOM     16  H   GNS d 142     -23.593 -13.639  60.762  0.00  0.00     0.131 H 
ATOM     17  H   GNS d 142     -23.880 -11.258  60.454  0.00  0.00     0.076 H 
ATOM     18  H   GNS d 142     -25.782 -13.020  60.941  0.00  0.00     0.140 HD
ATOM     19  H   GNS d 142     -24.774  -9.748  61.256  0.00  0.00     0.231 HD
ATOM     20  H   GNS d 142     -25.942  -9.941  59.152  0.00  0.00     0.210 HD
ATOM     21  H   GNS d 142     -25.438 -11.874  57.980  0.00  0.00     0.089 H 
ATOM     22  H   GNS d 142     -22.717 -10.642  58.111  0.00  0.00     0.091 H 
ATOM     23  H   GNS d 142     -24.302 -11.651  55.975  0.00  0.00     0.210 HD
ATOM     24  H   GNS d 142     -19.533 -12.709  57.467  0.00  0.00     0.209 HD
ATOM     25  H   GNS d 142     -21.361 -13.650  56.431  0.00  0.00     0.078 H 
ATOM     26  H   GNS d 142     -21.380 -11.905  56.351  0.00  0.00     0.078 H 
ATOM     27  H   GNS d 142     -28.058 -10.833  60.986  0.00  0.00     0.231 HD
ATOM     28  H   GNS d 142     -23.432 -13.424  57.270  0.00  0.00     0.090 H 
ATOM     29  H   GNS d 142     -24.586 -11.477  62.820  0.00  0.00     0.231 HD
ATOM     30  S   IDY d 143     -29.261 -12.767  58.856  0.00  0.00     0.252 S 
ATOM     31  O1  IDY d 143     -28.192 -16.707  57.605  0.00  0.00    -0.363 OA
ATOM     32  C5  IDY d 143     -25.456 -15.868  57.336  0.00  0.00     0.152 C 
ATOM     33  C4  IDY d 143     -25.125 -15.384  58.757  0.00  0.00     0.103 C 
ATOM     34  O62 IDY d 143     -24.309 -14.301  55.889  0.00  0.00    -0.646 OA
ATOM     35  O2  IDY d 143     -27.871 -13.396  59.095  0.00  0.00    -0.244 OA
ATOM     36  O61 IDY d 143     -23.561 -16.415  56.038  0.00  0.00    -0.646 OA
ATOM     37  C3  IDY d 143     -26.341 -15.242  59.691  0.00  0.00     0.094 C 
ATOM     38  C7  IDY d 143     -27.433 -17.522  57.861  0.00  0.00     0.007 C 
ATOM     39  O3  IDY d 143     -26.611 -16.528  60.261  0.00  0.00    -0.390 OA
ATOM     40  C2  IDY d 143     -27.660 -14.813  59.039  0.00  0.00     0.134 C 
ATOM     41  OS3 IDY d 143     -30.062 -13.529  57.837  0.00  0.00    -0.572 OA
ATOM     42  O4  IDY d 143     -24.601 -14.176  59.079  0.00  0.00    -0.348 OA
ATOM     43  C1  IDY d 143     -27.804 -15.337  57.604  0.00  0.00     0.160 C 
ATOM     44  C6  IDY d 143     -24.366 -15.488  56.378  0.00  0.00     0.206 C 
ATOM     45  OS1 IDY d 143     -29.081 -11.342  58.441  0.00  0.00    -0.572 OA
ATOM     46  O5  IDY d 143     -26.624 -15.230  56.800  0.00  0.00    -0.340 OA
ATOM     47  OS2 IDY d 143     -29.961 -12.804  60.146  0.00  0.00    -0.572 OA
ATOM     48  H   IDY d 143     -25.590 -16.926  57.429  0.00  0.00     0.104 H 
ATOM     49  H   IDY d 143     -24.401 -16.167  58.851  0.00  0.00     0.092 H 
ATOM     50  H   IDY d 143     -26.060 -14.471  60.379  0.00  0.00     0.091 H 
ATOM     51  H   IDY d 143     -27.907 -18.480  57.809  0.00  0.00     0.066 H 
ATOM     52  H   IDY d 143     -27.058 -17.363  58.850  0.00  0.00     0.066 H 
ATOM     53  H   IDY d 143     -26.623 -17.487  57.163  0.00  0.00     0.066 H 
ATOM     54  H   IDY d 143     -26.855 -17.149  59.556  0.00  0.00     0.210 HD
ATOM     55  H   IDY d 143     -28.430 -15.270  59.624  0.00  0.00     0.097 H 
ATOM     56  H   IDY d 143     -28.551 -14.706  57.171  0.00  0.00     0.133 H 
ENDROOT
TORSDOF 17
ENDMDL
MODEL 25
REMARK VINA RESULT:      -5.8      3.018      6.589
REMARK  0 active torsions:
REMARK  status: ('A' for Active; 'I' for Inactive)
REMARK       I    between atoms: C1_1  and  O4_26 
REMARK       I    between atoms: C2_2  and  N_3 
REMARK       I    between atoms: N_3  and  S1_23 
REMARK       I    between atoms: O2S_4  and  S1_23 
REMARK       I    between atoms: S_5  and  O2_15 
REMARK       I    between atoms: O1_6  and  C1_27 
REMARK       I    between atoms: O1_6  and  C7_20 
REMARK       I    between atoms: C5_7  and  C6_28 
REMARK       I    between atoms: O3_8  and  C3_9 
REMARK       I    between atoms: C4_10  and  O4_26 
REMARK       I    between atoms: C4_11  and  O4_14 
REMARK       I    between atoms: O2_15  and  C2_22 
REMARK       I    between atoms: O6_17  and  C6_18 
REMARK       I    between atoms: C6_18  and  C5_29 
REMARK       I    between atoms: C3_19  and  O3_21 
REMARK       I    between atoms: S1_23  and  O1S_30 
REMARK       I    between atoms: S1_23  and  O3S_25 
ROOT
ATOM      1  C1  GNS d 142     -24.061 -13.921  57.651  0.00  0.00     0.150 C 
ATOM      2  C2  GNS d 142     -24.032 -12.411  57.452  0.00  0.00     0.081 C 
ATOM      3  N   GNS d 142     -24.983 -11.775  58.343  0.00  0.00    -0.210 NA
ATOM      4  O2S GNS d 142     -23.688  -9.687  58.338  0.00  0.00    -0.296 OA
ATOM      5  O3  GNS d 142     -24.072 -10.679  55.796  0.00  0.00    -0.391 OA
ATOM      6  C3  GNS d 142     -24.348 -12.045  56.007  0.00  0.00     0.083 C 
ATOM      7  C4  GNS d 142     -23.522 -12.885  55.038  0.00  0.00     0.089 C 
ATOM      8  O5  GNS d 142     -23.169 -14.531  56.744  0.00  0.00    -0.349 OA
ATOM      9  O4  GNS d 142     -24.011 -12.707  53.728  0.00  0.00    -0.390 OA
ATOM     10  O6  GNS d 142     -21.496 -15.512  55.162  0.00  0.00    -0.398 OA
ATOM     11  C6  GNS d 142     -22.694 -15.192  54.490  0.00  0.00     0.043 C 
ATOM     12  S1  GNS d 142     -24.546 -10.496  59.199  0.00  0.00     0.156 S 
ATOM     13  O3S GNS d 142     -25.773  -9.798  59.571  0.00  0.00    -0.296 OA
ATOM     14  C5  GNS d 142     -23.585 -14.362  55.407  0.00  0.00     0.089 C 
ATOM     15  O1S GNS d 142     -23.828 -10.996  60.368  0.00  0.00    -0.296 OA
ATOM     16  H   GNS d 142     -23.766 -14.153  58.653  0.00  0.00     0.131 H 
ATOM     17  H   GNS d 142     -23.047 -12.061  57.679  0.00  0.00     0.076 H 
ATOM     18  H   GNS d 142     -25.284 -12.487  59.009  0.00  0.00     0.140 HD
ATOM     19  H   GNS d 142     -22.888 -10.188  58.117  0.00  0.00     0.231 HD
ATOM     20  H   GNS d 142     -24.597 -10.144  56.412  0.00  0.00     0.210 HD
ATOM     21  H   GNS d 142     -25.384 -12.242  55.827  0.00  0.00     0.089 H 
ATOM     22  H   GNS d 142     -22.503 -12.564  55.095  0.00  0.00     0.091 H 
ATOM     23  H   GNS d 142     -24.935 -13.000  53.686  0.00  0.00     0.210 HD
ATOM     24  H   GNS d 142     -20.930 -16.040  54.579  0.00  0.00     0.209 HD
ATOM     25  H   GNS d 142     -23.203 -16.093  54.219  0.00  0.00     0.078 H 
ATOM     26  H   GNS d 142     -22.469 -14.630  53.608  0.00  0.00     0.078 H 
ATOM     27  H   GNS d 142     -26.221  -9.482  58.770  0.00  0.00     0.231 HD
ATOM     28  H   GNS d 142     -24.595 -14.696  55.294  0.00  0.00     0.090 H 
ATOM     29  H   GNS d 142     -23.021 -11.452  60.082  0.00  0.00     0.231 HD
ATOM     30  S   IDY d 143     -28.739 -10.888  57.587  0.00  0.00     0.252 S 
ATOM     31  O1  IDY d 143     -29.963 -14.977  57.449  0.00  0.00    -0.363 OA
ATOM     32  C5  IDY d 143     -27.365 -15.711  56.463  0.00  0.00     0.152 C 
ATOM     33  C4  IDY d 143     -26.441 -15.212  57.584  0.00  0.00     0.103 C 
ATOM     34  O62 IDY d 143     -26.142 -15.242  54.425  0.00  0.00    -0.646 OA
ATOM     35  O2  IDY d 143     -27.773 -12.080  57.763  0.00  0.00    -0.244 OA
ATOM     36  O61 IDY d 143     -26.404 -17.373  55.089  0.00  0.00    -0.646 OA
ATOM     37  C3  IDY d 143     -27.120 -14.302  58.625  0.00  0.00     0.094 C 
ATOM     38  C7  IDY d 143     -29.607 -16.002  57.808  0.00  0.00     0.007 C 
ATOM     39  O3  IDY d 143     -27.745 -15.142  59.602  0.00  0.00    -0.390 OA
ATOM     40  C2  IDY d 143     -28.240 -13.391  58.112  0.00  0.00     0.134 C 
ATOM     41  OS3 IDY d 143     -30.062 -11.309  57.008  0.00  0.00    -0.572 OA
ATOM     42  O4  IDY d 143     -25.366 -14.402  57.421  0.00  0.00    -0.348 OA
ATOM     43  C1  IDY d 143     -29.029 -14.022  56.957  0.00  0.00     0.160 C 
ATOM     44  C6  IDY d 143     -26.569 -16.121  55.260  0.00  0.00     0.206 C 
ATOM     45  OS1 IDY d 143     -28.082  -9.858  56.727  0.00  0.00    -0.572 OA
ATOM     46  O5  IDY d 143     -28.230 -14.680  55.968  0.00  0.00    -0.340 OA
ATOM     47  OS2 IDY d 143     -28.955 -10.327  58.925  0.00  0.00    -0.572 OA
ATOM     48  H   IDY d 143     -27.919 -16.516  56.899  0.00  0.00     0.104 H 
ATOM     49  H   IDY d 143     -26.148 -16.221  57.789  0.00  0.00     0.092 H 
ATOM     50  H   IDY d 143     -26.332 -13.670  58.980  0.00  0.00     0.091 H 
ATOM     51  H   IDY d 143     -30.447 -16.576  58.139  0.00  0.00     0.066 H 
ATOM     52  H   IDY d 143     -28.920 -15.876  58.619  0.00  0.00     0.066 H 
ATOM     53  H   IDY d 143     -29.120 -16.512  57.004  0.00  0.00     0.066 H 
ATOM     54  H   IDY d 143     -28.439 -15.670  59.178  0.00  0.00     0.210 HD
ATOM     55  H   IDY d 143     -28.915 -13.276  58.933  0.00  0.00     0.097 H 
ATOM     56  H   IDY d 143     -29.511 -13.191  56.487  0.00  0.00     0.133 H 
ENDROOT
TORSDOF 17
ENDMDL
MODEL 26
REMARK VINA RESULT:      -5.8      2.636      6.443
REMARK  0 active torsions:
REMARK  status: ('A' for Active; 'I' for Inactive)
REMARK       I    between atoms: C1_1  and  O4_26 
REMARK       I    between atoms: C2_2  and  N_3 
REMARK       I    between atoms: N_3  and  S1_23 
REMARK       I    between atoms: O2S_4  and  S1_23 
REMARK       I    between atoms: S_5  and  O2_15 
REMARK       I    between atoms: O1_6  and  C1_27 
REMARK       I    between atoms: O1_6  and  C7_20 
REMARK       I    between atoms: C5_7  and  C6_28 
REMARK       I    between atoms: O3_8  and  C3_9 
REMARK       I    between atoms: C4_10  and  O4_26 
REMARK       I    between atoms: C4_11  and  O4_14 
REMARK       I    between atoms: O2_15  and  C2_22 
REMARK       I    between atoms: O6_17  and  C6_18 
REMARK       I    between atoms: C6_18  and  C5_29 
REMARK       I    between atoms: C3_19  and  O3_21 
REMARK       I    between atoms: S1_23  and  O1S_30 
REMARK       I    between atoms: S1_23  and  O3S_25 
ROOT
ATOM      1  C1  GNS d 142     -25.976 -13.712  57.874  0.00  0.00     0.150 C 
ATOM      2  C2  GNS d 142     -25.857 -14.898  58.822  0.00  0.00     0.081 C 
ATOM      3  N   GNS d 142     -26.961 -14.893  59.763  0.00  0.00    -0.210 NA
ATOM      4  O2S GNS d 142     -26.797 -17.326  60.063  0.00  0.00    -0.296 OA
ATOM      5  O3  GNS d 142     -24.342 -16.088  60.248  0.00  0.00    -0.391 OA
ATOM      6  C3  GNS d 142     -24.532 -14.864  59.574  0.00  0.00     0.083 C 
ATOM      7  C4  GNS d 142     -23.368 -14.625  58.619  0.00  0.00     0.089 C 
ATOM      8  O5  GNS d 142     -24.870 -13.699  56.997  0.00  0.00    -0.349 OA
ATOM      9  O4  GNS d 142     -22.201 -14.350  59.360  0.00  0.00    -0.390 OA
ATOM     10  O6  GNS d 142     -22.922 -13.813  55.431  0.00  0.00    -0.398 OA
ATOM     11  C6  GNS d 142     -22.535 -13.272  56.674  0.00  0.00     0.043 C 
ATOM     12  S1  GNS d 142     -27.773 -16.241  60.049  0.00  0.00     0.156 S 
ATOM     13  O3S GNS d 142     -28.432 -16.070  61.340  0.00  0.00    -0.296 OA
ATOM     14  C5  GNS d 142     -23.662 -13.459  57.683  0.00  0.00     0.089 C 
ATOM     15  O1S GNS d 142     -28.737 -16.391  58.962  0.00  0.00    -0.296 OA
ATOM     16  H   GNS d 142     -26.879 -13.797  57.308  0.00  0.00     0.131 H 
ATOM     17  H   GNS d 142     -25.891 -15.796  58.242  0.00  0.00     0.076 H 
ATOM     18  H   GNS d 142     -27.635 -14.209  59.421  0.00  0.00     0.140 HD
ATOM     19  H   GNS d 142     -26.387 -17.403  59.189  0.00  0.00     0.231 HD
ATOM     20  H   GNS d 142     -25.083 -16.241  60.856  0.00  0.00     0.210 HD
ATOM     21  H   GNS d 142     -24.563 -14.059  60.278  0.00  0.00     0.089 H 
ATOM     22  H   GNS d 142     -23.227 -15.506  58.029  0.00  0.00     0.091 H 
ATOM     23  H   GNS d 142     -22.337 -13.550  59.892  0.00  0.00     0.210 HD
ATOM     24  H   GNS d 142     -22.205 -13.694  54.789  0.00  0.00     0.209 HD
ATOM     25  H   GNS d 142     -22.328 -12.229  56.560  0.00  0.00     0.078 H 
ATOM     26  H   GNS d 142     -21.656 -13.773  57.023  0.00  0.00     0.078 H 
ATOM     27  H   GNS d 142     -27.761 -15.974  62.035  0.00  0.00     0.231 HD
ATOM     28  H   GNS d 142     -23.744 -12.568  58.269  0.00  0.00     0.090 H 
ATOM     29  H   GNS d 142     -28.264 -16.502  58.123  0.00  0.00     0.231 HD
ATOM     30  S   IDY d 143     -27.057 -13.223  63.322  0.00  0.00     0.252 S 
ATOM     31  O1  IDY d 143     -26.959  -9.249  61.762  0.00  0.00    -0.363 OA
ATOM     32  C5  IDY d 143     -25.412 -10.177  59.524  0.00  0.00     0.152 C 
ATOM     33  C4  IDY d 143     -26.339 -11.234  58.905  0.00  0.00     0.103 C 
ATOM     34  O62 IDY d 143     -23.191 -11.115  59.284  0.00  0.00    -0.646 OA
ATOM     35  O2  IDY d 143     -26.962 -12.893  61.816  0.00  0.00    -0.244 OA
ATOM     36  O61 IDY d 143     -23.778  -9.339  58.038  0.00  0.00    -0.646 OA
ATOM     37  C3  IDY d 143     -27.547 -11.624  59.778  0.00  0.00     0.094 C 
ATOM     38  C7  IDY d 143     -27.179  -8.694  60.787  0.00  0.00     0.007 C 
ATOM     39  O3  IDY d 143     -28.587 -10.667  59.543  0.00  0.00    -0.390 OA
ATOM     40  C2  IDY d 143     -27.330 -11.609  61.295  0.00  0.00     0.134 C 
ATOM     41  OS3 IDY d 143     -26.747 -12.031  64.185  0.00  0.00    -0.572 OA
ATOM     42  O4  IDY d 143     -25.999 -12.514  58.617  0.00  0.00    -0.348 OA
ATOM     43  C1  IDY d 143     -26.334 -10.528  61.735  0.00  0.00     0.160 C 
ATOM     44  C6  IDY d 143     -24.048 -10.236  58.902  0.00  0.00     0.206 C 
ATOM     45  OS1 IDY d 143     -26.136 -14.359  63.626  0.00  0.00    -0.572 OA
ATOM     46  O5  IDY d 143     -25.165 -10.413  60.917  0.00  0.00    -0.340 OA
ATOM     47  OS2 IDY d 143     -28.440 -13.649  63.567  0.00  0.00    -0.572 OA
ATOM     48  H   IDY d 143     -25.910  -9.243  59.363  0.00  0.00     0.104 H 
ATOM     49  H   IDY d 143     -26.423 -10.638  58.020  0.00  0.00     0.092 H 
ATOM     50  H   IDY d 143     -27.763 -12.634  59.497  0.00  0.00     0.091 H 
ATOM     51  H   IDY d 143     -27.647  -7.757  61.008  0.00  0.00     0.066 H 
ATOM     52  H   IDY d 143     -27.834  -9.284  60.180  0.00  0.00     0.066 H 
ATOM     53  H   IDY d 143     -26.264  -8.520  60.261  0.00  0.00     0.066 H 
ATOM     54  H   IDY d 143     -28.289  -9.790  59.831  0.00  0.00     0.210 HD
ATOM     55  H   IDY d 143     -28.280 -11.358  61.718  0.00  0.00     0.097 H 
ATOM     56  H   IDY d 143     -26.021 -10.845  62.708  0.00  0.00     0.133 H 
ENDROOT
TORSDOF 17
ENDMDL
MODEL 27
REMARK VINA RESULT:      -5.8      2.609      5.255
REMARK  0 active torsions:
REMARK  status: ('A' for Active; 'I' for Inactive)
REMARK       I    between atoms: C1_1  and  O4_26 
REMARK       I    between atoms: C2_2  and  N_3 
REMARK       I    between atoms: N_3  and  S1_23 
REMARK       I    between atoms: O2S_4  and  S1_23 
REMARK       I    between atoms: S_5  and  O2_15 
REMARK       I    between atoms: O1_6  and  C1_27 
REMARK       I    between atoms: O1_6  and  C7_20 
REMARK       I    between atoms: C5_7  and  C6_28 
REMARK       I    between atoms: O3_8  and  C3_9 
REMARK       I    between atoms: C4_10  and  O4_26 
REMARK       I    between atoms: C4_11  and  O4_14 
REMARK       I    between atoms: O2_15  and  C2_22 
REMARK       I    between atoms: O6_17  and  C6_18 
REMARK       I    between atoms: C6_18  and  C5_29 
REMARK       I    between atoms: C3_19  and  O3_21 
REMARK       I    between atoms: S1_23  and  O1S_30 
REMARK       I    between atoms: S1_23  and  O3S_25 
ROOT
ATOM      1  C1  GNS d 142     -25.188 -12.036  61.612  0.00  0.00     0.150 C 
ATOM      2  C2  GNS d 142     -26.437 -12.796  62.038  0.00  0.00     0.081 C 
ATOM      3  N   GNS d 142     -26.144 -14.212  62.145  0.00  0.00    -0.210 NA
ATOM      4  O2S GNS d 142     -27.948 -14.526  63.783  0.00  0.00    -0.296 OA
ATOM      5  O3  GNS d 142     -28.775 -13.077  61.590  0.00  0.00    -0.391 OA
ATOM      6  C3  GNS d 142     -27.574 -12.573  61.048  0.00  0.00     0.083 C 
ATOM      7  C4  GNS d 142     -27.742 -11.091  60.733  0.00  0.00     0.089 C 
ATOM      8  O5  GNS d 142     -25.498 -10.668  61.462  0.00  0.00    -0.349 OA
ATOM      9  O4  GNS d 142     -28.619 -10.939  59.640  0.00  0.00    -0.390 OA
ATOM     10  O6  GNS d 142     -26.125  -8.250  61.312  0.00  0.00    -0.398 OA
ATOM     11  C6  GNS d 142     -26.555  -8.952  60.167  0.00  0.00     0.043 C 
ATOM     12  S1  GNS d 142     -26.625 -15.034  63.431  0.00  0.00     0.156 S 
ATOM     13  O3S GNS d 142     -26.656 -16.441  63.044  0.00  0.00    -0.296 OA
ATOM     14  C5  GNS d 142     -26.400 -10.449  60.401  0.00  0.00     0.089 C 
ATOM     15  O1S GNS d 142     -25.647 -14.780  64.484  0.00  0.00    -0.296 OA
ATOM     16  H   GNS d 142     -24.430 -12.151  62.358  0.00  0.00     0.131 H 
ATOM     17  H   GNS d 142     -26.746 -12.426  62.993  0.00  0.00     0.076 H 
ATOM     18  H   GNS d 142     -25.129 -14.307  62.098  0.00  0.00     0.140 HD
ATOM     19  H   GNS d 142     -27.879 -13.592  64.032  0.00  0.00     0.231 HD
ATOM     20  H   GNS d 142     -28.669 -14.020  61.791  0.00  0.00     0.210 HD
ATOM     21  H   GNS d 142     -27.338 -13.088  60.140  0.00  0.00     0.089 H 
ATOM     22  H   GNS d 142     -28.146 -10.605  61.597  0.00  0.00     0.091 H 
ATOM     23  H   GNS d 142     -28.245 -11.383  58.863  0.00  0.00     0.210 HD
ATOM     24  H   GNS d 142     -26.223  -7.297  61.163  0.00  0.00     0.209 HD
ATOM     25  H   GNS d 142     -25.962  -8.659  59.326  0.00  0.00     0.078 H 
ATOM     26  H   GNS d 142     -27.583  -8.725  59.975  0.00  0.00     0.078 H 
ATOM     27  H   GNS d 142     -27.316 -16.569  62.344  0.00  0.00     0.231 HD
ATOM     28  H   GNS d 142     -26.026 -10.896  59.504  0.00  0.00     0.090 H 
ATOM     29  H   GNS d 142     -25.655 -13.838  64.714  0.00  0.00     0.231 HD
ATOM     30  S   IDY d 143     -26.537 -16.950  59.350  0.00  0.00     0.252 S 
ATOM     31  O1  IDY d 143     -23.360 -15.372  56.972  0.00  0.00    -0.363 OA
ATOM     32  C5  IDY d 143     -23.970 -12.731  57.928  0.00  0.00     0.152 C 
ATOM     33  C4  IDY d 143     -23.802 -12.890  59.447  0.00  0.00     0.103 C 
ATOM     34  O62 IDY d 143     -25.872 -11.250  57.688  0.00  0.00    -0.646 OA
ATOM     35  O2  IDY d 143     -25.735 -15.683  59.719  0.00  0.00    -0.244 OA
ATOM     36  O61 IDY d 143     -23.818 -10.500  57.169  0.00  0.00    -0.646 OA
ATOM     37  C3  IDY d 143     -23.669 -14.345  59.934  0.00  0.00     0.094 C 
ATOM     38  C7  IDY d 143     -22.442 -14.700  57.086  0.00  0.00     0.007 C 
ATOM     39  O3  IDY d 143     -22.295 -14.727  59.806  0.00  0.00    -0.390 OA
ATOM     40  C2  IDY d 143     -24.449 -15.404  59.149  0.00  0.00     0.134 C 
ATOM     41  OS3 IDY d 143     -26.334 -17.352  57.915  0.00  0.00    -0.572 OA
ATOM     42  O4  IDY d 143     -24.719 -12.548  60.384  0.00  0.00    -0.348 OA
ATOM     43  C1  IDY d 143     -24.568 -15.062  57.658  0.00  0.00     0.160 C 
ATOM     44  C6  IDY d 143     -24.600 -11.410  57.598  0.00  0.00     0.206 C 
ATOM     45  OS1 IDY d 143     -27.983 -16.708  59.639  0.00  0.00    -0.572 OA
ATOM     46  O5  IDY d 143     -24.879 -13.693  57.375  0.00  0.00    -0.340 OA
ATOM     47  OS2 IDY d 143     -26.047 -18.021  60.225  0.00  0.00    -0.572 OA
ATOM     48  H   IDY d 143     -22.984 -12.842  57.528  0.00  0.00     0.104 H 
ATOM     49  H   IDY d 143     -22.983 -12.201  59.426  0.00  0.00     0.092 H 
ATOM     50  H   IDY d 143     -24.064 -14.330  60.929  0.00  0.00     0.091 H 
ATOM     51  H   IDY d 143     -21.638 -15.092  56.500  0.00  0.00     0.066 H 
ATOM     52  H   IDY d 143     -22.150 -14.666  58.115  0.00  0.00     0.066 H 
ATOM     53  H   IDY d 143     -22.680 -13.713  56.750  0.00  0.00     0.066 H 
ATOM     54  H   IDY d 143     -22.039 -14.708  58.871  0.00  0.00     0.210 HD
ATOM     55  H   IDY d 143     -23.871 -16.301  59.224  0.00  0.00     0.097 H 
ATOM     56  H   IDY d 143     -25.389 -15.659  57.320  0.00  0.00     0.133 H 
ENDROOT
TORSDOF 17
ENDMDL
MODEL 28
REMARK VINA RESULT:      -5.8      2.836      5.711
REMARK  0 active torsions:
REMARK  status: ('A' for Active; 'I' for Inactive)
REMARK       I    between atoms: C1_1  and  O4_26 
REMARK       I    between atoms: C2_2  and  N_3 
REMARK       I    between atoms: N_3  and  S1_23 
REMARK       I    between atoms: O2S_4  and  S1_23 
REMARK       I    between atoms: S_5  and  O2_15 
REMARK       I    between atoms: O1_6  and  C1_27 
REMARK       I    between atoms: O1_6  and  C7_20 
REMARK       I    between atoms: C5_7  and  C6_28 
REMARK       I    between atoms: O3_8  and  C3_9 
REMARK       I    between atoms: C4_10  and  O4_26 
REMARK       I    between atoms: C4_11  and  O4_14 
REMARK       I    between atoms: O2_15  and  C2_22 
REMARK       I    between atoms: O6_17  and  C6_18 
REMARK       I    between atoms: C6_18  and  C5_29 
REMARK       I    between atoms: C3_19  and  O3_21 
REMARK       I    between atoms: S1_23  and  O1S_30 
REMARK       I    between atoms: S1_23  and  O3S_25 
ROOT
ATOM      1  C1  GNS d 142     -24.197 -11.195  57.840  0.00  0.00     0.150 C 
ATOM      2  C2  GNS d 142     -23.583 -12.369  58.592  0.00  0.00     0.081 C 
ATOM      3  N   GNS d 142     -23.213 -13.417  57.659  0.00  0.00    -0.210 NA
ATOM      4  O2S GNS d 142     -21.475 -14.248  59.184  0.00  0.00    -0.296 OA
ATOM      5  O3  GNS d 142     -23.873 -13.825  60.473  0.00  0.00    -0.391 OA
ATOM      6  C3  GNS d 142     -24.550 -12.917  59.633  0.00  0.00     0.083 C 
ATOM      7  C4  GNS d 142     -25.141 -11.791  60.475  0.00  0.00     0.089 C 
ATOM      8  O5  GNS d 142     -24.598 -10.205  58.762  0.00  0.00    -0.349 OA
ATOM      9  O4  GNS d 142     -26.207 -12.293  61.249  0.00  0.00    -0.390 OA
ATOM     10  O6  GNS d 142     -25.191  -8.472  60.466  0.00  0.00    -0.398 OA
ATOM     11  C6  GNS d 142     -26.160  -9.496  60.435  0.00  0.00     0.043 C 
ATOM     12  S1  GNS d 142     -21.774 -14.108  57.762  0.00  0.00     0.156 S 
ATOM     13  O3S GNS d 142     -21.878 -15.399  57.087  0.00  0.00    -0.296 OA
ATOM     14  C5  GNS d 142     -25.645 -10.657  59.592  0.00  0.00     0.089 C 
ATOM     15  O1S GNS d 142     -20.830 -13.218  57.092  0.00  0.00    -0.296 OA
ATOM     16  H   GNS d 142     -23.474 -10.785  57.167  0.00  0.00     0.131 H 
ATOM     17  H   GNS d 142     -22.706 -12.022  59.098  0.00  0.00     0.076 H 
ATOM     18  H   GNS d 142     -23.282 -13.015  56.724  0.00  0.00     0.140 HD
ATOM     19  H   GNS d 142     -21.415 -13.369  59.589  0.00  0.00     0.231 HD
ATOM     20  H   GNS d 142     -23.497 -14.542  59.938  0.00  0.00     0.210 HD
ATOM     21  H   GNS d 142     -25.349 -13.414  59.124  0.00  0.00     0.089 H 
ATOM     22  H   GNS d 142     -24.373 -11.408  61.114  0.00  0.00     0.091 H 
ATOM     23  H   GNS d 142     -26.897 -12.639  60.662  0.00  0.00     0.210 HD
ATOM     24  H   GNS d 142     -25.518  -7.733  61.002  0.00  0.00     0.209 HD
ATOM     25  H   GNS d 142     -27.065  -9.118  60.007  0.00  0.00     0.078 H 
ATOM     26  H   GNS d 142     -26.351  -9.836  61.431  0.00  0.00     0.078 H 
ATOM     27  H   GNS d 142     -22.512 -15.960  57.560  0.00  0.00     0.231 HD
ATOM     28  H   GNS d 142     -26.452 -11.027  58.995  0.00  0.00     0.090 H 
ATOM     29  H   GNS d 142     -20.788 -12.374  57.567  0.00  0.00     0.231 HD
ATOM     30  S   IDY d 143     -25.404 -16.475  56.515  0.00  0.00     0.252 S 
ATOM     31  O1  IDY d 143     -28.168 -14.040  54.355  0.00  0.00    -0.363 OA
ATOM     32  C5  IDY d 143     -27.721 -11.898  56.219  0.00  0.00     0.152 C 
ATOM     33  C4  IDY d 143     -26.208 -11.664  56.087  0.00  0.00     0.103 C 
ATOM     34  O62 IDY d 143     -28.169 -11.599  58.581  0.00  0.00    -0.646 OA
ATOM     35  O2  IDY d 143     -25.320 -14.934  56.447  0.00  0.00    -0.244 OA
ATOM     36  O61 IDY d 143     -28.905 -10.062  57.115  0.00  0.00    -0.646 OA
ATOM     37  C3  IDY d 143     -25.453 -12.751  55.299  0.00  0.00     0.094 C 
ATOM     38  C7  IDY d 143     -28.223 -12.999  53.884  0.00  0.00     0.007 C 
ATOM     39  O3  IDY d 143     -25.558 -12.436  53.905  0.00  0.00    -0.390 OA
ATOM     40  C2  IDY d 143     -25.985 -14.182  55.423  0.00  0.00     0.134 C 
ATOM     41  OS3 IDY d 143     -26.740 -16.992  56.057  0.00  0.00    -0.572 OA
ATOM     42  O4  IDY d 143     -25.319 -11.639  57.110  0.00  0.00    -0.348 OA
ATOM     43  C1  IDY d 143     -27.508 -14.230  55.602  0.00  0.00     0.160 C 
ATOM     44  C6  IDY d 143     -28.276 -11.137  57.386  0.00  0.00     0.206 C 
ATOM     45  OS1 IDY d 143     -25.110 -16.913  57.913  0.00  0.00    -0.572 OA
ATOM     46  O5  IDY d 143     -28.040 -13.264  56.516  0.00  0.00    -0.340 OA
ATOM     47  OS2 IDY d 143     -24.357 -16.988  55.623  0.00  0.00    -0.572 OA
ATOM     48  H   IDY d 143     -28.131 -11.591  55.279  0.00  0.00     0.104 H 
ATOM     49  H   IDY d 143     -26.396 -10.683  55.702  0.00  0.00     0.092 H 
ATOM     50  H   IDY d 143     -24.465 -12.741  55.712  0.00  0.00     0.091 H 
ATOM     51  H   IDY d 143     -28.754 -13.056  52.956  0.00  0.00     0.066 H 
ATOM     52  H   IDY d 143     -27.233 -12.635  53.706  0.00  0.00     0.066 H 
ATOM     53  H   IDY d 143     -28.735 -12.335  54.547  0.00  0.00     0.066 H 
ATOM     54  H   IDY d 143     -26.489 -12.473  53.635  0.00  0.00     0.210 HD
ATOM     55  H   IDY d 143     -25.759 -14.654  54.490  0.00  0.00     0.097 H 
ATOM     56  H   IDY d 143     -27.691 -15.201  56.012  0.00  0.00     0.133 H 
ENDROOT
TORSDOF 17
ENDMDL
MODEL 29
REMARK VINA RESULT:      -5.7      2.714      5.615
REMARK  0 active torsions:
REMARK  status: ('A' for Active; 'I' for Inactive)
REMARK       I    between atoms: C1_1  and  O4_26 
REMARK       I    between atoms: C2_2  and  N_3 
REMARK       I    between atoms: N_3  and  S1_23 
REMARK       I    between atoms: O2S_4  and  S1_23 
REMARK       I    between atoms: S_5  and  O2_15 
REMARK       I    between atoms: O1_6  and  C1_27 
REMARK       I    between atoms: O1_6  and  C7_20 
REMARK       I    between atoms: C5_7  and  C6_28 
REMARK       I    between atoms: O3_8  and  C3_9 
REMARK       I    between atoms: C4_10  and  O4_26 
REMARK       I    between atoms: C4_11  and  O4_14 
REMARK       I    between atoms: O2_15  and  C2_22 
REMARK       I    between atoms: O6_17  and  C6_18 
REMARK       I    between atoms: C6_18  and  C5_29 
REMARK       I    between atoms: C3_19  and  O3_21 
REMARK       I    between atoms: S1_23  and  O1S_30 
REMARK       I    between atoms: S1_23  and  O3S_25 
ROOT
ATOM      1  C1  GNS d 142     -24.024 -12.036  59.476  0.00  0.00     0.150 C 
ATOM      2  C2  GNS d 142     -23.197 -13.313  59.544  0.00  0.00     0.081 C 
ATOM      3  N   GNS d 142     -22.671 -13.635  58.231  0.00  0.00    -0.210 NA
ATOM      4  O2S GNS d 142     -20.780 -14.855  59.216  0.00  0.00    -0.296 OA
ATOM      5  O3  GNS d 142     -23.185 -15.568  60.356  0.00  0.00    -0.391 OA
ATOM      6  C3  GNS d 142     -24.030 -14.475  60.070  0.00  0.00     0.083 C 
ATOM      7  C4  GNS d 142     -24.788 -14.076  61.331  0.00  0.00     0.089 C 
ATOM      8  O5  GNS d 142     -24.570 -11.762  60.747  0.00  0.00    -0.349 OA
ATOM      9  O4  GNS d 142     -25.732 -15.075  61.647  0.00  0.00    -0.390 OA
ATOM     10  O6  GNS d 142     -25.418 -11.312  63.058  0.00  0.00    -0.398 OA
ATOM     11  C6  GNS d 142     -26.193 -12.305  62.424  0.00  0.00     0.043 C 
ATOM     12  S1  GNS d 142     -21.132 -14.034  58.061  0.00  0.00     0.156 S 
ATOM     13  O3S GNS d 142     -21.023 -14.771  56.805  0.00  0.00    -0.296 OA
ATOM     14  C5  GNS d 142     -25.503 -12.745  61.139  0.00  0.00     0.089 C 
ATOM     15  O1S GNS d 142     -20.373 -12.787  58.028  0.00  0.00    -0.296 OA
ATOM     16  H   GNS d 142     -23.399 -11.223  59.172  0.00  0.00     0.131 H 
ATOM     17  H   GNS d 142     -22.383 -13.150  60.219  0.00  0.00     0.076 H 
ATOM     18  H   GNS d 142     -22.830 -12.817  57.642  0.00  0.00     0.140 HD
ATOM     19  H   GNS d 142     -20.866 -14.327  60.025  0.00  0.00     0.231 HD
ATOM     20  H   GNS d 142     -22.702 -15.822  59.555  0.00  0.00     0.210 HD
ATOM     21  H   GNS d 142     -24.741 -14.749  59.319  0.00  0.00     0.089 H 
ATOM     22  H   GNS d 142     -24.085 -13.971  62.131  0.00  0.00     0.091 H 
ATOM     23  H   GNS d 142     -26.365 -15.163  60.917  0.00  0.00     0.210 HD
ATOM     24  H   GNS d 142     -25.857 -11.032  63.876  0.00  0.00     0.209 HD
ATOM     25  H   GNS d 142     -27.160 -11.909  62.193  0.00  0.00     0.078 H 
ATOM     26  H   GNS d 142     -26.299 -13.145  63.078  0.00  0.00     0.078 H 
ATOM     27  H   GNS d 142     -21.539 -15.590  56.866  0.00  0.00     0.231 HD
ATOM     28  H   GNS d 142     -26.246 -12.867  60.379  0.00  0.00     0.090 H 
ATOM     29  H   GNS d 142     -20.469 -12.328  58.876  0.00  0.00     0.231 HD
ATOM     30  S   IDY d 143     -24.320 -15.931  55.497  0.00  0.00     0.252 S 
ATOM     31  O1  IDY d 143     -27.515 -13.202  54.737  0.00  0.00    -0.363 OA
ATOM     32  C5  IDY d 143     -27.407 -12.330  57.474  0.00  0.00     0.152 C 
ATOM     33  C4  IDY d 143     -25.961 -11.823  57.595  0.00  0.00     0.103 C 
ATOM     34  O62 IDY d 143     -27.846 -13.400  59.602  0.00  0.00    -0.646 OA
ATOM     35  O2  IDY d 143     -24.508 -14.597  56.253  0.00  0.00    -0.244 OA
ATOM     36  O61 IDY d 143     -28.873 -11.463  59.110  0.00  0.00    -0.646 OA
ATOM     37  C3  IDY d 143     -25.046 -12.191  56.413  0.00  0.00     0.094 C 
ATOM     38  C7  IDY d 143     -27.762 -12.095  54.878  0.00  0.00     0.007 C 
ATOM     39  O3  IDY d 143     -25.237 -11.210  55.387  0.00  0.00    -0.390 OA
ATOM     40  C2  IDY d 143     -25.317 -13.535  55.729  0.00  0.00     0.134 C 
ATOM     41  OS3 IDY d 143     -25.555 -16.335  54.740  0.00  0.00    -0.572 OA
ATOM     42  O4  IDY d 143     -25.068 -12.200  58.542  0.00  0.00    -0.348 OA
ATOM     43  C1  IDY d 143     -26.804 -13.914  55.744  0.00  0.00     0.160 C 
ATOM     44  C6  IDY d 143     -28.060 -12.401  58.823  0.00  0.00     0.206 C 
ATOM     45  OS1 IDY d 143     -23.921 -16.988  56.476  0.00  0.00    -0.572 OA
ATOM     46  O5  IDY d 143     -27.475 -13.677  56.987  0.00  0.00    -0.340 OA
ATOM     47  OS2 IDY d 143     -23.220 -15.719  54.548  0.00  0.00    -0.572 OA
ATOM     48  H   IDY d 143     -27.886 -11.643  56.807  0.00  0.00     0.104 H 
ATOM     49  H   IDY d 143     -26.326 -10.832  57.768  0.00  0.00     0.092 H 
ATOM     50  H   IDY d 143     -24.066 -12.243  56.840  0.00  0.00     0.091 H 
ATOM     51  H   IDY d 143     -28.296 -11.737  54.023  0.00  0.00     0.066 H 
ATOM     52  H   IDY d 143     -26.856 -11.538  54.991  0.00  0.00     0.066 H 
ATOM     53  H   IDY d 143     -28.367 -11.974  55.752  0.00  0.00     0.066 H 
ATOM     54  H   IDY d 143     -26.152 -11.247  55.070  0.00  0.00     0.210 HD
ATOM     55  H   IDY d 143     -25.034 -13.399  54.706  0.00  0.00     0.097 H 
ATOM     56  H   IDY d 143     -26.805 -14.969  55.570  0.00  0.00     0.133 H 
ENDROOT
TORSDOF 17
ENDMDL
MODEL 30
REMARK VINA RESULT:      -5.7      2.543      5.742
REMARK  0 active torsions:
REMARK  status: ('A' for Active; 'I' for Inactive)
REMARK       I    between atoms: C1_1  and  O4_26 
REMARK       I    between atoms: C2_2  and  N_3 
REMARK       I    between atoms: N_3  and  S1_23 
REMARK       I    between atoms: O2S_4  and  S1_23 
REMARK       I    between atoms: S_5  and  O2_15 
REMARK       I    between atoms: O1_6  and  C1_27 
REMARK       I    between atoms: O1_6  and  C7_20 
REMARK       I    between atoms: C5_7  and  C6_28 
REMARK       I    between atoms: O3_8  and  C3_9 
REMARK       I    between atoms: C4_10  and  O4_26 
REMARK       I    between atoms: C4_11  and  O4_14 
REMARK       I    between atoms: O2_15  and  C2_22 
REMARK       I    between atoms: O6_17  and  C6_18 
REMARK       I    between atoms: C6_18  and  C5_29 
REMARK       I    between atoms: C3_19  and  O3_21 
REMARK       I    between atoms: S1_23  and  O1S_30 
REMARK       I    between atoms: S1_23  and  O3S_25 
ROOT
ATOM      1  C1  GNS d 142     -26.344 -12.479  58.834  0.00  0.00     0.150 C 
ATOM      2  C2  GNS d 142     -26.854 -11.045  58.772  0.00  0.00     0.081 C 
ATOM      3  N   GNS d 142     -26.626 -10.382  60.042  0.00  0.00    -0.210 NA
ATOM      4  O2S GNS d 142     -26.561  -8.180  58.952  0.00  0.00    -0.296 OA
ATOM      5  O3  GNS d 142     -28.720  -9.684  58.132  0.00  0.00    -0.391 OA
ATOM      6  C3  GNS d 142     -28.338 -11.009  58.425  0.00  0.00     0.083 C 
ATOM      7  C4  GNS d 142     -28.640 -11.902  57.227  0.00  0.00     0.089 C 
ATOM      8  O5  GNS d 142     -26.617 -13.128  57.612  0.00  0.00    -0.349 OA
ATOM      9  O4  GNS d 142     -30.035 -12.045  57.089  0.00  0.00    -0.390 OA
ATOM     10  O6  GNS d 142     -27.063 -14.163  55.378  0.00  0.00    -0.398 OA
ATOM     11  C6  GNS d 142     -28.235 -14.140  56.163  0.00  0.00     0.043 C 
ATOM     12  S1  GNS d 142     -25.986  -8.916  60.074  0.00  0.00     0.156 S 
ATOM     13  O3S GNS d 142     -26.343  -8.329  61.363  0.00  0.00    -0.296 OA
ATOM     14  C5  GNS d 142     -28.003 -13.275  57.396  0.00  0.00     0.089 C 
ATOM     15  O1S GNS d 142     -24.542  -9.082  59.934  0.00  0.00    -0.296 OA
ATOM     16  H   GNS d 142     -25.288 -12.474  59.008  0.00  0.00     0.131 H 
ATOM     17  H   GNS d 142     -26.317 -10.530  58.003  0.00  0.00     0.076 H 
ATOM     18  H   GNS d 142     -26.007 -10.986  60.582  0.00  0.00     0.140 HD
ATOM     19  H   GNS d 142     -26.298  -8.604  58.120  0.00  0.00     0.231 HD
ATOM     20  H   GNS d 142     -28.527  -9.115  58.894  0.00  0.00     0.210 HD
ATOM     21  H   GNS d 142     -28.891 -11.372  59.267  0.00  0.00     0.089 H 
ATOM     22  H   GNS d 142     -28.231 -11.443  56.351  0.00  0.00     0.091 H 
ATOM     23  H   GNS d 142     -30.398 -12.461  57.887  0.00  0.00     0.210 HD
ATOM     24  H   GNS d 142     -27.211 -14.714  54.593  0.00  0.00     0.209 HD
ATOM     25  H   GNS d 142     -28.481 -15.136  56.467  0.00  0.00     0.078 H 
ATOM     26  H   GNS d 142     -29.041 -13.733  55.589  0.00  0.00     0.078 H 
ATOM     27  H   GNS d 142     -27.307  -8.234  61.418  0.00  0.00     0.231 HD
ATOM     28  H   GNS d 142     -28.455 -13.756  58.238  0.00  0.00     0.090 H 
ATOM     29  H   GNS d 142     -24.344  -9.473  59.069  0.00  0.00     0.231 HD
ATOM     30  S   IDY d 143     -29.090 -10.163  63.098  0.00  0.00     0.252 S 
ATOM     31  O1  IDY d 143     -28.788 -14.327  63.992  0.00  0.00    -0.363 OA
ATOM     32  C5  IDY d 143     -28.376 -14.886  61.203  0.00  0.00     0.152 C 
ATOM     33  C4  IDY d 143     -27.117 -14.063  60.891  0.00  0.00     0.103 C 
ATOM     34  O62 IDY d 143     -29.747 -14.659  59.219  0.00  0.00    -0.646 OA
ATOM     35  O2  IDY d 143     -28.250 -11.160  62.271  0.00  0.00    -0.244 OA
ATOM     36  O61 IDY d 143     -28.786 -16.639  59.674  0.00  0.00    -0.646 OA
ATOM     37  C3  IDY d 143     -26.705 -13.068  61.992  0.00  0.00     0.094 C 
ATOM     38  C7  IDY d 143     -28.086 -15.208  63.797  0.00  0.00     0.007 C 
ATOM     39  O3  IDY d 143     -25.922 -13.781  62.957  0.00  0.00    -0.390 OA
ATOM     40  C2  IDY d 143     -27.841 -12.430  62.798  0.00  0.00     0.134 C 
ATOM     41  OS3 IDY d 143     -30.062 -10.859  64.011  0.00  0.00    -0.572 OA
ATOM     42  O4  IDY d 143     -26.989 -13.164  59.884  0.00  0.00    -0.348 OA
ATOM     43  C1  IDY d 143     -29.041 -13.369  62.970  0.00  0.00     0.160 C 
ATOM     44  C6  IDY d 143     -28.995 -15.410  59.941  0.00  0.00     0.206 C 
ATOM     45  OS1 IDY d 143     -29.801  -9.239  62.163  0.00  0.00    -0.572 OA
ATOM     46  O5  IDY d 143     -29.416 -14.093  61.793  0.00  0.00    -0.340 OA
ATOM     47  OS2 IDY d 143     -28.140  -9.389  63.905  0.00  0.00    -0.572 OA
ATOM     48  H   IDY d 143     -28.044 -15.659  61.865  0.00  0.00     0.104 H 
ATOM     49  H   IDY d 143     -26.581 -14.966  60.685  0.00  0.00     0.092 H 
ATOM     50  H   IDY d 143     -26.205 -12.281  61.467  0.00  0.00     0.091 H 
ATOM     51  H   IDY d 143     -28.022 -15.814  64.677  0.00  0.00     0.066 H 
ATOM     52  H   IDY d 143     -27.113 -14.839  63.547  0.00  0.00     0.066 H 
ATOM     53  H   IDY d 143     -28.465 -15.794  62.987  0.00  0.00     0.066 H 
ATOM     54  H   IDY d 143     -26.467 -14.467  63.372  0.00  0.00     0.210 HD
ATOM     55  H   IDY d 143     -27.436 -12.249  63.772  0.00  0.00     0.097 H 
ATOM     56  H   IDY d 143     -29.850 -12.715  63.221  0.00  0.00     0.133 H 
ENDROOT
TORSDOF 17
ENDMDL
MODEL 31
REMARK VINA RESULT:      -5.7      2.966      5.249
REMARK  0 active torsions:
REMARK  status: ('A' for Active; 'I' for Inactive)
REMARK       I    between atoms: C1_1  and  O4_26 
REMARK       I    between atoms: C2_2  and  N_3 
REMARK       I    between atoms: N_3  and  S1_23 
REMARK       I    between atoms: O2S_4  and  S1_23 
REMARK       I    between atoms: S_5  and  O2_15 
REMARK       I    between atoms: O1_6  and  C1_27 
REMARK       I    between atoms: O1_6  and  C7_20 
REMARK       I    between atoms: C5_7  and  C6_28 
REMARK       I    between atoms: O3_8  and  C3_9 
REMARK       I    between atoms: C4_10  and  O4_26 
REMARK       I    between atoms: C4_11  and  O4_14 
REMARK       I    between atoms: O2_15  and  C2_22 
REMARK       I    between atoms: O6_17  and  C6_18 
REMARK       I    between atoms: C6_18  and  C5_29 
REMARK       I    between atoms: C3_19  and  O3_21 
REMARK       I    between atoms: S1_23  and  O1S_30 
REMARK       I    between atoms: S1_23  and  O3S_25 
ROOT
ATOM      1  C1  GNS d 142     -28.079 -13.632  56.223  0.00  0.00     0.150 C 
ATOM      2  C2  GNS d 142     -28.471 -12.865  57.480  0.00  0.00     0.081 C 
ATOM      3  N   GNS d 142     -27.778 -11.592  57.520  0.00  0.00    -0.210 NA
ATOM      4  O2S GNS d 142     -29.552 -10.599  58.900  0.00  0.00    -0.296 OA
ATOM      5  O3  GNS d 142     -28.746 -13.056  59.852  0.00  0.00    -0.391 OA
ATOM      6  C3  GNS d 142     -28.152 -13.672  58.732  0.00  0.00     0.083 C 
ATOM      7  C4  GNS d 142     -28.666 -15.102  58.607  0.00  0.00     0.089 C 
ATOM      8  O5  GNS d 142     -28.720 -14.888  56.220  0.00  0.00    -0.349 OA
ATOM      9  O4  GNS d 142     -28.143 -15.883  59.657  0.00  0.00    -0.390 OA
ATOM     10  O6  GNS d 142     -29.972 -17.054  56.261  0.00  0.00    -0.398 OA
ATOM     11  C6  GNS d 142     -28.847 -17.109  57.109  0.00  0.00     0.043 C 
ATOM     12  S1  GNS d 142     -28.583 -10.253  57.864  0.00  0.00     0.156 S 
ATOM     13  O3S GNS d 142     -27.601  -9.277  58.326  0.00  0.00    -0.296 OA
ATOM     14  C5  GNS d 142     -28.263 -15.711  57.270  0.00  0.00     0.089 C 
ATOM     15  O1S GNS d 142     -29.237  -9.826  56.630  0.00  0.00    -0.296 OA
ATOM     16  H   GNS d 142     -28.378 -13.076  55.359  0.00  0.00     0.131 H 
ATOM     17  H   GNS d 142     -29.526 -12.692  57.452  0.00  0.00     0.076 H 
ATOM     18  H   GNS d 142     -27.358 -11.456  56.601  0.00  0.00     0.140 HD
ATOM     19  H   GNS d 142     -30.182 -11.247  58.550  0.00  0.00     0.231 HD
ATOM     20  H   GNS d 142     -28.419 -12.146  59.933  0.00  0.00     0.210 HD
ATOM     21  H   GNS d 142     -27.089 -13.704  58.852  0.00  0.00     0.089 H 
ATOM     22  H   GNS d 142     -29.735 -15.083  58.662  0.00  0.00     0.091 H 
ATOM     23  H   GNS d 142     -27.175 -15.894  59.599  0.00  0.00     0.210 HD
ATOM     24  H   GNS d 142     -30.343 -17.944  56.158  0.00  0.00     0.209 HD
ATOM     25  H   GNS d 142     -28.110 -17.757  56.683  0.00  0.00     0.078 H 
ATOM     26  H   GNS d 142     -29.140 -17.486  58.067  0.00  0.00     0.078 H 
ATOM     27  H   GNS d 142     -27.190  -9.595  59.145  0.00  0.00     0.231 HD
ATOM     28  H   GNS d 142     -27.196 -15.783  57.240  0.00  0.00     0.090 H 
ATOM     29  H   GNS d 142     -29.880 -10.497  56.355  0.00  0.00     0.231 HD
ATOM     30  S   IDY d 143     -24.320 -10.810  59.222  0.00  0.00     0.252 S 
ATOM     31  O1  IDY d 143     -22.101 -13.150  56.423  0.00  0.00    -0.363 OA
ATOM     32  C5  IDY d 143     -24.353 -14.914  56.129  0.00  0.00     0.152 C 
ATOM     33  C4  IDY d 143     -25.453 -13.956  55.645  0.00  0.00     0.103 C 
ATOM     34  O62 IDY d 143     -25.502 -16.442  57.617  0.00  0.00    -0.646 OA
ATOM     35  O2  IDY d 143     -24.966 -11.615  58.073  0.00  0.00    -0.244 OA
ATOM     36  O61 IDY d 143     -24.762 -17.185  55.629  0.00  0.00    -0.646 OA
ATOM     37  C3  IDY d 143     -25.102 -12.461  55.756  0.00  0.00     0.094 C 
ATOM     38  C7  IDY d 143     -22.215 -13.582  55.370  0.00  0.00     0.007 C 
ATOM     39  O3  IDY d 143     -24.359 -12.096  54.586  0.00  0.00    -0.390 OA
ATOM     40  C2  IDY d 143     -24.212 -12.050  56.933  0.00  0.00     0.134 C 
ATOM     41  OS3 IDY d 143     -22.895 -11.220  59.472  0.00  0.00    -0.572 OA
ATOM     42  O4  IDY d 143     -26.681 -13.818  56.201  0.00  0.00    -0.348 OA
ATOM     43  C1  IDY d 143     -23.207 -13.143  57.320  0.00  0.00     0.160 C 
ATOM     44  C6  IDY d 143     -24.930 -16.252  56.481  0.00  0.00     0.206 C 
ATOM     45  OS1 IDY d 143     -25.150 -10.976  60.453  0.00  0.00    -0.572 OA
ATOM     46  O5  IDY d 143     -23.740 -14.472  57.349  0.00  0.00    -0.340 OA
ATOM     47  OS2 IDY d 143     -24.351  -9.401  58.810  0.00  0.00    -0.572 OA
ATOM     48  H   IDY d 143     -23.648 -14.954  55.325  0.00  0.00     0.104 H 
ATOM     49  H   IDY d 143     -25.496 -14.481  54.714  0.00  0.00     0.092 H 
ATOM     50  H   IDY d 143     -26.047 -11.974  55.885  0.00  0.00     0.091 H 
ATOM     51  H   IDY d 143     -21.284 -13.500  54.849  0.00  0.00     0.066 H 
ATOM     52  H   IDY d 143     -22.969 -13.038  54.841  0.00  0.00     0.066 H 
ATOM     53  H   IDY d 143     -22.497 -14.611  55.436  0.00  0.00     0.066 H 
ATOM     54  H   IDY d 143     -23.525 -12.591  54.565  0.00  0.00     0.210 HD
ATOM     55  H   IDY d 143     -23.649 -11.208  56.588  0.00  0.00     0.097 H 
ATOM     56  H   IDY d 143     -22.916 -12.888  58.317  0.00  0.00     0.133 H 
ENDROOT
TORSDOF 17
ENDMDL
MODEL 32
REMARK VINA RESULT:      -5.7      2.416      5.371
REMARK  0 active torsions:
REMARK  status: ('A' for Active; 'I' for Inactive)
REMARK       I    between atoms: C1_1  and  O4_26 
REMARK       I    between atoms: C2_2  and  N_3 
REMARK       I    between atoms: N_3  and  S1_23 
REMARK       I    between atoms: O2S_4  and  S1_23 
REMARK       I    between atoms: S_5  and  O2_15 
REMARK       I    between atoms: O1_6  and  C1_27 
REMARK       I    between atoms: O1_6  and  C7_20 
REMARK       I    between atoms: C5_7  and  C6_28 
REMARK       I    between atoms: O3_8  and  C3_9 
REMARK       I    between atoms: C4_10  and  O4_26 
REMARK       I    between atoms: C4_11  and  O4_14 
REMARK       I    between atoms: O2_15  and  C2_22 
REMARK       I    between atoms: O6_17  and  C6_18 
REMARK       I    between atoms: C6_18  and  C5_29 
REMARK       I    between atoms: C3_19  and  O3_21 
REMARK       I    between atoms: S1_23  and  O1S_30 
REMARK       I    between atoms: S1_23  and  O3S_25 
ROOT
ATOM      1  C1  GNS d 142     -25.984 -12.138  57.336  0.00  0.00     0.150 C 
ATOM      2  C2  GNS d 142     -26.640 -10.901  57.935  0.00  0.00     0.081 C 
ATOM      3  N   GNS d 142     -26.096 -10.639  59.254  0.00  0.00    -0.210 NA
ATOM      4  O2S GNS d 142     -26.617  -8.246  59.064  0.00  0.00    -0.296 OA
ATOM      5  O3  GNS d 142     -28.749  -9.835  58.339  0.00  0.00    -0.391 OA
ATOM      6  C3  GNS d 142     -28.152 -11.073  58.021  0.00  0.00     0.083 C 
ATOM      7  C4  GNS d 142     -28.719 -11.585  56.701  0.00  0.00     0.089 C 
ATOM      8  O5  GNS d 142     -26.557 -12.411  56.077  0.00  0.00    -0.349 OA
ATOM      9  O4  GNS d 142     -30.062 -11.969  56.885  0.00  0.00    -0.390 OA
ATOM     10  O6  GNS d 142     -27.572 -12.759  53.816  0.00  0.00    -0.398 OA
ATOM     11  C6  GNS d 142     -28.430 -13.233  54.829  0.00  0.00     0.043 C 
ATOM     12  S1  GNS d 142     -25.641  -9.158  59.652  0.00  0.00     0.156 S 
ATOM     13  O3S GNS d 142     -25.635  -9.097  61.111  0.00  0.00    -0.296 OA
ATOM     14  C5  GNS d 142     -27.916 -12.773  56.188  0.00  0.00     0.089 C 
ATOM     15  O1S GNS d 142     -24.307  -8.961  59.093  0.00  0.00    -0.296 OA
ATOM     16  H   GNS d 142     -24.935 -11.964  57.221  0.00  0.00     0.131 H 
ATOM     17  H   GNS d 142     -26.433 -10.068  57.296  0.00  0.00     0.076 H 
ATOM     18  H   GNS d 142     -25.276 -11.237  59.357  0.00  0.00     0.140 HD
ATOM     19  H   GNS d 142     -26.587  -8.320  58.097  0.00  0.00     0.231 HD
ATOM     20  H   GNS d 142     -28.388  -9.509  59.179  0.00  0.00     0.210 HD
ATOM     21  H   GNS d 142     -28.368 -11.791  58.784  0.00  0.00     0.089 H 
ATOM     22  H   GNS d 142     -28.659 -10.798  55.979  0.00  0.00     0.091 H 
ATOM     23  H   GNS d 142     -30.107 -12.683  57.541  0.00  0.00     0.210 HD
ATOM     24  H   GNS d 142     -27.899 -13.052  52.951  0.00  0.00     0.209 HD
ATOM     25  H   GNS d 142     -28.458 -14.302  54.801  0.00  0.00     0.078 H 
ATOM     26  H   GNS d 142     -29.415 -12.847  54.671  0.00  0.00     0.078 H 
ATOM     27  H   GNS d 142     -26.536  -9.232  61.444  0.00  0.00     0.231 HD
ATOM     28  H   GNS d 142     -28.024 -13.579  56.882  0.00  0.00     0.090 H 
ATOM     29  H   GNS d 142     -24.351  -9.008  58.126  0.00  0.00     0.231 HD
ATOM     30  S   IDY d 143     -27.477 -11.924  62.704  0.00  0.00     0.252 S 
ATOM     31  O1  IDY d 143     -26.458 -15.994  61.909  0.00  0.00    -0.363 OA
ATOM     32  C5  IDY d 143     -26.890 -15.543  59.103  0.00  0.00     0.152 C 
ATOM     33  C4  IDY d 143     -25.891 -14.416  58.799  0.00  0.00     0.103 C 
ATOM     34  O62 IDY d 143     -28.834 -14.998  57.764  0.00  0.00    -0.646 OA
ATOM     35  O2  IDY d 143     -26.838 -12.407  61.384  0.00  0.00    -0.244 OA
ATOM     36  O61 IDY d 143     -27.570 -16.769  57.203  0.00  0.00    -0.646 OA
ATOM     37  C3  IDY d 143     -25.263 -13.756  60.041  0.00  0.00     0.094 C 
ATOM     38  C7  IDY d 143     -25.762 -16.598  61.232  0.00  0.00     0.007 C 
ATOM     39  O3  IDY d 143     -24.143 -14.554  60.442  0.00  0.00    -0.390 OA
ATOM     40  C2  IDY d 143     -26.148 -13.661  61.288  0.00  0.00     0.134 C 
ATOM     41  OS3 IDY d 143     -28.029 -13.062  63.518  0.00  0.00    -0.572 OA
ATOM     42  O4  IDY d 143     -26.186 -13.240  58.192  0.00  0.00    -0.348 OA
ATOM     43  C1  IDY d 143     -27.123 -14.839  61.409  0.00  0.00     0.160 C 
ATOM     44  C6  IDY d 143     -27.815 -15.761  57.943  0.00  0.00     0.206 C 
ATOM     45  OS1 IDY d 143     -28.542 -10.925  62.388  0.00  0.00    -0.572 OA
ATOM     46  O5  IDY d 143     -27.770 -15.216  60.188  0.00  0.00    -0.340 OA
ATOM     47  OS2 IDY d 143     -26.410 -11.261  63.463  0.00  0.00    -0.572 OA
ATOM     48  H   IDY d 143     -26.284 -16.396  59.328  0.00  0.00     0.104 H 
ATOM     49  H   IDY d 143     -25.353 -15.073  58.148  0.00  0.00     0.092 H 
ATOM     50  H   IDY d 143     -25.043 -12.756  59.728  0.00  0.00     0.091 H 
ATOM     51  H   IDY d 143     -25.358 -17.422  61.781  0.00  0.00     0.066 H 
ATOM     52  H   IDY d 143     -24.964 -15.971  60.892  0.00  0.00     0.066 H 
ATOM     53  H   IDY d 143     -26.312 -16.964  60.392  0.00  0.00     0.066 H 
ATOM     54  H   IDY d 143     -24.451 -15.435  60.704  0.00  0.00     0.210 HD
ATOM     55  H   IDY d 143     -25.478 -13.715  62.120  0.00  0.00     0.097 H 
ATOM     56  H   IDY d 143     -27.877 -14.484  62.080  0.00  0.00     0.133 H 
ENDROOT
TORSDOF 17
ENDMDL
MODEL 33
REMARK VINA RESULT:      -5.7      2.452      5.059
REMARK  0 active torsions:
REMARK  status: ('A' for Active; 'I' for Inactive)
REMARK       I    between atoms: C1_1  and  O4_26 
REMARK       I    between atoms: C2_2  and  N_3 
REMARK       I    between atoms: N_3  and  S1_23 
REMARK       I    between atoms: O2S_4  and  S1_23 
REMARK       I    between atoms: S_5  and  O2_15 
REMARK       I    between atoms: O1_6  and  C1_27 
REMARK       I    between atoms: O1_6  and  C7_20 
REMARK       I    between atoms: C5_7  and  C6_28 
REMARK       I    between atoms: O3_8  and  C3_9 
REMARK       I    between atoms: C4_10  and  O4_26 
REMARK       I    between atoms: C4_11  and  O4_14 
REMARK       I    between atoms: O2_15  and  C2_22 
REMARK       I    between atoms: O6_17  and  C6_18 
REMARK       I    between atoms: C6_18  and  C5_29 
REMARK       I    between atoms: C3_19  and  O3_21 
REMARK       I    between atoms: S1_23  and  O1S_30 
REMARK       I    between atoms: S1_23  and  O3S_25 
ROOT
ATOM      1  C1  GNS d 142     -26.117 -11.862  62.380  0.00  0.00     0.150 C 
ATOM      2  C2  GNS d 142     -26.832 -13.204  62.466  0.00  0.00     0.081 C 
ATOM      3  N   GNS d 142     -25.992 -14.250  61.915  0.00  0.00    -0.210 NA
ATOM      4  O2S GNS d 142     -27.091 -15.953  63.306  0.00  0.00    -0.296 OA
ATOM      5  O3  GNS d 142     -28.908 -14.320  62.030  0.00  0.00    -0.391 OA
ATOM      6  C3  GNS d 142     -28.163 -13.162  61.726  0.00  0.00     0.083 C 
ATOM      7  C4  GNS d 142     -28.966 -11.926  62.117  0.00  0.00     0.089 C 
ATOM      8  O5  GNS d 142     -26.964 -10.847  62.872  0.00  0.00    -0.349 OA
ATOM      9  O4  GNS d 142     -30.062 -11.782  61.243  0.00  0.00    -0.390 OA
ATOM     10  O6  GNS d 142     -28.502  -9.131  63.847  0.00  0.00    -0.398 OA
ATOM     11  C6  GNS d 142     -28.879  -9.450  62.526  0.00  0.00     0.043 C 
ATOM     12  S1  GNS d 142     -25.798 -15.624  62.713  0.00  0.00     0.156 S 
ATOM     13  O3S GNS d 142     -25.366 -16.620  61.737  0.00  0.00    -0.296 OA
ATOM     14  C5  GNS d 142     -28.101 -10.673  62.057  0.00  0.00     0.089 C 
ATOM     15  O1S GNS d 142     -24.779 -15.380  63.730  0.00  0.00    -0.296 OA
ATOM     16  H   GNS d 142     -25.223 -11.897  62.965  0.00  0.00     0.131 H 
ATOM     17  H   GNS d 142     -27.028 -13.415  63.497  0.00  0.00     0.076 H 
ATOM     18  H   GNS d 142     -25.063 -13.847  61.792  0.00  0.00     0.140 HD
ATOM     19  H   GNS d 142     -27.337 -15.266  63.945  0.00  0.00     0.231 HD
ATOM     20  H   GNS d 142     -28.398 -15.107  61.782  0.00  0.00     0.210 HD
ATOM     21  H   GNS d 142     -27.965 -13.119  60.675  0.00  0.00     0.089 H 
ATOM     22  H   GNS d 142     -29.313 -12.051  63.121  0.00  0.00     0.091 H 
ATOM     23  H   GNS d 142     -29.739 -11.670  60.335  0.00  0.00     0.210 HD
ATOM     24  H   GNS d 142     -28.997  -8.352  64.146  0.00  0.00     0.209 HD
ATOM     25  H   GNS d 142     -28.664  -8.622  61.884  0.00  0.00     0.078 H 
ATOM     26  H   GNS d 142     -29.928  -9.661  62.496  0.00  0.00     0.078 H 
ATOM     27  H   GNS d 142     -26.067 -16.754  61.080  0.00  0.00     0.231 HD
ATOM     28  H   GNS d 142     -27.803 -10.517  61.041  0.00  0.00     0.090 H 
ATOM     29  H   GNS d 142     -25.101 -14.715  64.358  0.00  0.00     0.231 HD
ATOM     30  S   IDY d 143     -25.927 -15.554  58.206  0.00  0.00     0.252 S 
ATOM     31  O1  IDY d 143     -24.274 -11.928  56.670  0.00  0.00    -0.363 OA
ATOM     32  C5  IDY d 143     -25.626 -10.451  58.732  0.00  0.00     0.152 C 
ATOM     33  C4  IDY d 143     -25.058 -11.086  60.011  0.00  0.00     0.103 C 
ATOM     34  O62 IDY d 143     -27.954 -10.033  59.256  0.00  0.00    -0.646 OA
ATOM     35  O2  IDY d 143     -25.622 -14.313  59.074  0.00  0.00    -0.244 OA
ATOM     36  O61 IDY d 143     -26.541  -8.297  59.050  0.00  0.00    -0.646 OA
ATOM     37  C3  IDY d 143     -24.257 -12.382  59.788  0.00  0.00     0.094 C 
ATOM     38  C7  IDY d 143     -23.694 -11.015  57.039  0.00  0.00     0.007 C 
ATOM     39  O3  IDY d 143     -22.914 -12.016  59.449  0.00  0.00    -0.390 OA
ATOM     40  C2  IDY d 143     -24.721 -13.286  58.640  0.00  0.00     0.134 C 
ATOM     41  OS3 IDY d 143     -25.926 -15.233  56.736  0.00  0.00    -0.572 OA
ATOM     42  O4  IDY d 143     -25.788 -11.589  61.036  0.00  0.00    -0.348 OA
ATOM     43  C1  IDY d 143     -25.310 -12.492  57.468  0.00  0.00     0.160 C 
ATOM     44  C6  IDY d 143     -26.781  -9.549  59.055  0.00  0.00     0.206 C 
ATOM     45  OS1 IDY d 143     -27.241 -16.128  58.628  0.00  0.00    -0.572 OA
ATOM     46  O5  IDY d 143     -26.188 -11.424  57.841  0.00  0.00    -0.340 OA
ATOM     47  OS2 IDY d 143     -24.867 -16.529  58.487  0.00  0.00    -0.572 OA
ATOM     48  H   IDY d 143     -24.799  -9.938  58.287  0.00  0.00     0.104 H 
ATOM     49  H   IDY d 143     -24.604 -10.152  60.270  0.00  0.00     0.092 H 
ATOM     50  H   IDY d 143     -24.381 -12.932  60.697  0.00  0.00     0.091 H 
ATOM     51  H   IDY d 143     -22.962 -10.739  56.309  0.00  0.00     0.066 H 
ATOM     52  H   IDY d 143     -23.206 -11.251  57.961  0.00  0.00     0.066 H 
ATOM     53  H   IDY d 143     -24.371 -10.200  57.191  0.00  0.00     0.066 H 
ATOM     54  H   IDY d 143     -22.914 -11.524  58.613  0.00  0.00     0.210 HD
ATOM     55  H   IDY d 143     -23.838 -13.773  58.284  0.00  0.00     0.097 H 
ATOM     56  H   IDY d 143     -25.887 -13.214  56.929  0.00  0.00     0.133 H 
ENDROOT
TORSDOF 17
ENDMDL
MODEL 34
REMARK VINA RESULT:      -5.6      2.555      5.412
REMARK  0 active torsions:
REMARK  status: ('A' for Active; 'I' for Inactive)
REMARK       I    between atoms: C1_1  and  O4_26 
REMARK       I    between atoms: C2_2  and  N_3 
REMARK       I    between atoms: N_3  and  S1_23 
REMARK       I    between atoms: O2S_4  and  S1_23 
REMARK       I    between atoms: S_5  and  O2_15 
REMARK       I    between atoms: O1_6  and  C1_27 
REMARK       I    between atoms: O1_6  and  C7_20 
REMARK       I    between atoms: C5_7  and  C6_28 
REMARK       I    between atoms: O3_8  and  C3_9 
REMARK       I    between atoms: C4_10  and  O4_26 
REMARK       I    between atoms: C4_11  and  O4_14 
REMARK       I    between atoms: O2_15  and  C2_22 
REMARK       I    between atoms: O6_17  and  C6_18 
REMARK       I    between atoms: C6_18  and  C5_29 
REMARK       I    between atoms: C3_19  and  O3_21 
REMARK       I    between atoms: S1_23  and  O1S_30 
REMARK       I    between atoms: S1_23  and  O3S_25 
ROOT
ATOM      1  C1  GNS d 142     -26.205 -11.559  56.723  0.00  0.00     0.150 C 
ATOM      2  C2  GNS d 142     -27.296 -11.186  57.719  0.00  0.00     0.081 C 
ATOM      3  N   GNS d 142     -26.699 -10.742  58.965  0.00  0.00    -0.210 NA
ATOM      4  O2S GNS d 142     -28.673  -9.377  59.495  0.00  0.00    -0.296 OA
ATOM      5  O3  GNS d 142     -29.354 -11.925  58.698  0.00  0.00    -0.391 OA
ATOM      6  C3  GNS d 142     -28.224 -12.366  57.978  0.00  0.00     0.083 C 
ATOM      7  C4  GNS d 142     -28.674 -13.004  56.669  0.00  0.00     0.089 C 
ATOM      8  O5  GNS d 142     -26.797 -12.037  55.535  0.00  0.00    -0.349 OA
ATOM      9  O4  GNS d 142     -29.318 -14.228  56.940  0.00  0.00    -0.390 OA
ATOM     10  O6  GNS d 142     -27.940 -12.782  53.438  0.00  0.00    -0.398 OA
ATOM     11  C6  GNS d 142     -27.945 -13.810  54.405  0.00  0.00     0.043 C 
ATOM     12  S1  GNS d 142     -27.223  -9.405  59.670  0.00  0.00     0.156 S 
ATOM     13  O3S GNS d 142     -26.836  -9.490  61.075  0.00  0.00    -0.296 OA
ATOM     14  C5  GNS d 142     -27.487 -13.248  55.745  0.00  0.00     0.089 C 
ATOM     15  O1S GNS d 142     -26.573  -8.287  58.993  0.00  0.00    -0.296 OA
ATOM     16  H   GNS d 142     -25.611 -10.696  56.505  0.00  0.00     0.131 H 
ATOM     17  H   GNS d 142     -27.874 -10.389  57.300  0.00  0.00     0.076 H 
ATOM     18  H   GNS d 142     -25.704 -10.609  58.784  0.00  0.00     0.140 HD
ATOM     19  H   GNS d 142     -28.883  -9.320  58.551  0.00  0.00     0.231 HD
ATOM     20  H   GNS d 142     -29.069 -11.519  59.531  0.00  0.00     0.210 HD
ATOM     21  H   GNS d 142     -27.690 -13.098  58.546  0.00  0.00     0.089 H 
ATOM     22  H   GNS d 142     -29.351 -12.335  56.180  0.00  0.00     0.091 H 
ATOM     23  H   GNS d 142     -28.697 -14.828  57.383  0.00  0.00     0.210 HD
ATOM     24  H   GNS d 142     -28.231 -13.140  52.585  0.00  0.00     0.209 HD
ATOM     25  H   GNS d 142     -27.280 -14.590  54.099  0.00  0.00     0.078 H 
ATOM     26  H   GNS d 142     -28.935 -14.203  54.502  0.00  0.00     0.078 H 
ATOM     27  H   GNS d 142     -27.287 -10.242  61.489  0.00  0.00     0.231 HD
ATOM     28  H   GNS d 142     -26.840 -13.962  56.210  0.00  0.00     0.090 H 
ATOM     29  H   GNS d 142     -26.853  -8.263  58.065  0.00  0.00     0.231 HD
ATOM     30  S   IDY d 143     -25.841 -12.933  62.115  0.00  0.00     0.252 S 
ATOM     31  O1  IDY d 143     -22.717 -15.059  60.127  0.00  0.00    -0.363 OA
ATOM     32  C5  IDY d 143     -24.126 -14.781  57.637  0.00  0.00     0.152 C 
ATOM     33  C4  IDY d 143     -24.240 -13.255  57.499  0.00  0.00     0.103 C 
ATOM     34  O62 IDY d 143     -26.236 -15.618  56.793  0.00  0.00    -0.646 OA
ATOM     35  O2  IDY d 143     -25.460 -12.714  60.634  0.00  0.00    -0.244 OA
ATOM     36  O61 IDY d 143     -24.360 -15.954  55.601  0.00  0.00    -0.646 OA
ATOM     37  C3  IDY d 143     -23.865 -12.461  58.764  0.00  0.00     0.094 C 
ATOM     38  C7  IDY d 143     -22.031 -14.945  59.220  0.00  0.00     0.007 C 
ATOM     39  O3  IDY d 143     -22.443 -12.290  58.771  0.00  0.00    -0.390 OA
ATOM     40  C2  IDY d 143     -24.190 -13.122  60.109  0.00  0.00     0.134 C 
ATOM     41  OS3 IDY d 143     -25.257 -14.203  62.670  0.00  0.00    -0.572 OA
ATOM     42  O4  IDY d 143     -25.385 -12.565  57.277  0.00  0.00    -0.348 OA
ATOM     43  C1  IDY d 143     -24.078 -14.651  60.055  0.00  0.00     0.160 C 
ATOM     44  C6  IDY d 143     -24.972 -15.473  56.610  0.00  0.00     0.206 C 
ATOM     45  OS1 IDY d 143     -27.331 -12.930  62.236  0.00  0.00    -0.572 OA
ATOM     46  O5  IDY d 143     -24.643 -15.257  58.888  0.00  0.00    -0.340 OA
ATOM     47  OS2 IDY d 143     -25.299 -11.788  62.857  0.00  0.00    -0.572 OA
ATOM     48  H   IDY d 143     -23.081 -14.990  57.536  0.00  0.00     0.104 H 
ATOM     49  H   IDY d 143     -23.624 -13.291  56.625  0.00  0.00     0.092 H 
ATOM     50  H   IDY d 143     -24.448 -11.566  58.700  0.00  0.00     0.091 H 
ATOM     51  H   IDY d 143     -21.053 -15.304  59.465  0.00  0.00     0.066 H 
ATOM     52  H   IDY d 143     -21.973 -13.913  58.943  0.00  0.00     0.066 H 
ATOM     53  H   IDY d 143     -22.424 -15.512  58.403  0.00  0.00     0.066 H 
ATOM     54  H   IDY d 143     -22.013 -13.157  58.831  0.00  0.00     0.210 HD
ATOM     55  H   IDY d 143     -23.442 -12.771  60.788  0.00  0.00     0.097 H 
ATOM     56  H   IDY d 143     -24.645 -14.982  60.900  0.00  0.00     0.133 H 
ENDROOT
TORSDOF 17
ENDMDL
MODEL 35
REMARK VINA RESULT:      -5.6      1.239      1.469
REMARK  0 active torsions:
REMARK  status: ('A' for Active; 'I' for Inactive)
REMARK       I    between atoms: C1_1  and  O4_26 
REMARK       I    between atoms: C2_2  and  N_3 
REMARK       I    between atoms: N_3  and  S1_23 
REMARK       I    between atoms: O2S_4  and  S1_23 
REMARK       I    between atoms: S_5  and  O2_15 
REMARK       I    between atoms: O1_6  and  C1_27 
REMARK       I    between atoms: O1_6  and  C7_20 
REMARK       I    between atoms: C5_7  and  C6_28 
REMARK       I    between atoms: O3_8  and  C3_9 
REMARK       I    between atoms: C4_10  and  O4_26 
REMARK       I    between atoms: C4_11  and  O4_14 
REMARK       I    between atoms: O2_15  and  C2_22 
REMARK       I    between atoms: O6_17  and  C6_18 
REMARK       I    between atoms: C6_18  and  C5_29 
REMARK       I    between atoms: C3_19  and  O3_21 
REMARK       I    between atoms: S1_23  and  O1S_30 
REMARK       I    between atoms: S1_23  and  O3S_25 
ROOT
ATOM      1  C1  GNS d 142     -28.546 -12.620  59.459  0.00  0.00     0.150 C 
ATOM      2  C2  GNS d 142     -28.584 -11.856  58.141  0.00  0.00     0.081 C 
ATOM      3  N   GNS d 142     -28.013 -12.666  57.082  0.00  0.00    -0.210 NA
ATOM      4  O2S GNS d 142     -29.338 -11.487  55.381  0.00  0.00    -0.296 OA
ATOM      5  O3  GNS d 142     -28.087  -9.749  57.115  0.00  0.00    -0.391 OA
ATOM      6  C3  GNS d 142     -27.827 -10.538  58.254  0.00  0.00     0.083 C 
ATOM      7  C4  GNS d 142     -28.243  -9.775  59.506  0.00  0.00     0.089 C 
ATOM      8  O5  GNS d 142     -29.057 -11.804  60.490  0.00  0.00    -0.349 OA
ATOM      9  O4  GNS d 142     -27.359  -8.698  59.715  0.00  0.00    -0.390 OA
ATOM     10  O6  GNS d 142     -30.061 -10.314  62.231  0.00  0.00    -0.398 OA
ATOM     11  C6  GNS d 142     -28.726  -9.945  61.965  0.00  0.00     0.043 C 
ATOM     12  S1  GNS d 142     -28.773 -12.800  55.680  0.00  0.00     0.156 S 
ATOM     13  O3S GNS d 142     -27.774 -13.210  54.697  0.00  0.00    -0.296 OA
ATOM     14  C5  GNS d 142     -28.232 -10.685  60.728  0.00  0.00     0.089 C 
ATOM     15  O1S GNS d 142     -29.810 -13.812  55.857  0.00  0.00    -0.296 OA
ATOM     16  H   GNS d 142     -29.143 -13.504  59.375  0.00  0.00     0.131 H 
ATOM     17  H   GNS d 142     -29.605 -11.638  57.908  0.00  0.00     0.076 H 
ATOM     18  H   GNS d 142     -27.914 -13.611  57.454  0.00  0.00     0.140 HD
ATOM     19  H   GNS d 142     -29.994 -11.257  56.057  0.00  0.00     0.231 HD
ATOM     20  H   GNS d 142     -27.822 -10.234  56.317  0.00  0.00     0.210 HD
ATOM     21  H   GNS d 142     -26.781 -10.754  58.320  0.00  0.00     0.089 H 
ATOM     22  H   GNS d 142     -29.239  -9.409  59.365  0.00  0.00     0.091 H 
ATOM     23  H   GNS d 142     -26.459  -9.038  59.841  0.00  0.00     0.210 HD
ATOM     24  H   GNS d 142     -30.376  -9.843  63.018  0.00  0.00     0.209 HD
ATOM     25  H   GNS d 142     -28.112 -10.199  62.802  0.00  0.00     0.078 H 
ATOM     26  H   GNS d 142     -28.676  -8.890  61.793  0.00  0.00     0.078 H 
ATOM     27  H   GNS d 142     -27.104 -12.514  54.608  0.00  0.00     0.231 HD
ATOM     28  H   GNS d 142     -27.226 -11.004  60.902  0.00  0.00     0.090 H 
ATOM     29  H   GNS d 142     -30.453 -13.505  56.515  0.00  0.00     0.231 HD
ATOM     30  S   IDY d 143     -24.268 -12.739  55.885  0.00  0.00     0.252 S 
ATOM     31  O1  IDY d 143     -22.863 -14.542  59.491  0.00  0.00    -0.363 OA
ATOM     32  C5  IDY d 143     -24.949 -13.215  60.956  0.00  0.00     0.152 C 
ATOM     33  C4  IDY d 143     -26.216 -13.741  60.264  0.00  0.00     0.103 C 
ATOM     34  O62 IDY d 143     -25.453 -10.896  61.443  0.00  0.00    -0.646 OA
ATOM     35  O2  IDY d 143     -25.177 -13.075  57.088  0.00  0.00    -0.244 OA
ATOM     36  O61 IDY d 143     -25.318 -12.373  63.131  0.00  0.00    -0.646 OA
ATOM     37  C3  IDY d 143     -25.965 -14.498  58.947  0.00  0.00     0.094 C 
ATOM     38  C7  IDY d 143     -23.266 -15.150  60.372  0.00  0.00     0.007 C 
ATOM     39  O3  IDY d 143     -25.656 -15.859  59.274  0.00  0.00    -0.390 OA
ATOM     40  C2  IDY d 143     -24.786 -14.019  58.094  0.00  0.00     0.134 C 
ATOM     41  OS3 IDY d 143     -22.809 -12.772  56.248  0.00  0.00    -0.572 OA
ATOM     42  O4  IDY d 143     -27.216 -12.978  59.759  0.00  0.00    -0.348 OA
ATOM     43  C1  IDY d 143     -23.629 -13.476  58.942  0.00  0.00     0.160 C 
ATOM     44  C6  IDY d 143     -25.282 -12.089  61.890  0.00  0.00     0.206 C 
ATOM     45  OS1 IDY d 143     -24.656 -11.399  55.347  0.00  0.00    -0.572 OA
ATOM     46  O5  IDY d 143     -24.022 -12.631  60.030  0.00  0.00    -0.340 OA
ATOM     47  OS2 IDY d 143     -24.536 -13.759  54.864  0.00  0.00    -0.572 OA
ATOM     48  H   IDY d 143     -24.530 -14.066  61.451  0.00  0.00     0.104 H 
ATOM     49  H   IDY d 143     -26.508 -14.225  61.173  0.00  0.00     0.092 H 
ATOM     50  H   IDY d 143     -26.857 -14.341  58.375  0.00  0.00     0.091 H 
ATOM     51  H   IDY d 143     -22.554 -15.901  60.642  0.00  0.00     0.066 H 
ATOM     52  H   IDY d 143     -24.187 -15.616  60.091  0.00  0.00     0.066 H 
ATOM     53  H   IDY d 143     -23.433 -14.501  61.205  0.00  0.00     0.066 H 
ATOM     54  H   IDY d 143     -24.835 -15.888  59.789  0.00  0.00     0.210 HD
ATOM     55  H   IDY d 143     -24.427 -14.889  57.586  0.00  0.00     0.097 H 
ATOM     56  H   IDY d 143     -23.062 -12.881  58.257  0.00  0.00     0.133 H 
ENDROOT
TORSDOF 17
ENDMDL
MODEL 36
REMARK VINA RESULT:      -5.5      2.690      6.899
REMARK  0 active torsions:
REMARK  status: ('A' for Active; 'I' for Inactive)
REMARK       I    between atoms: C1_1  and  O4_26 
REMARK       I    between atoms: C2_2  and  N_3 
REMARK       I    between atoms: N_3  and  S1_23 
REMARK       I    between atoms: O2S_4  and  S1_23 
REMARK       I    between atoms: S_5  and  O2_15 
REMARK       I    between atoms: O1_6  and  C1_27 
REMARK       I    between atoms: O1_6  and  C7_20 
REMARK       I    between atoms: C5_7  and  C6_28 
REMARK       I    between atoms: O3_8  and  C3_9 
REMARK       I    between atoms: C4_10  and  O4_26 
REMARK       I    between atoms: C4_11  and  O4_14 
REMARK       I    between atoms: O2_15  and  C2_22 
REMARK       I    between atoms: O6_17  and  C6_18 
REMARK       I    between atoms: C6_18  and  C5_29 
REMARK       I    between atoms: C3_19  and  O3_21 
REMARK       I    between atoms: S1_23  and  O1S_30 
REMARK       I    between atoms: S1_23  and  O3S_25 
ROOT
ATOM      1  C1  GNS d 142     -26.200 -14.924  57.554  0.00  0.00     0.150 C 
ATOM      2  C2  GNS d 142     -25.026 -14.477  58.416  0.00  0.00     0.081 C 
ATOM      3  N   GNS d 142     -25.509 -13.738  59.567  0.00  0.00    -0.210 NA
ATOM      4  O2S GNS d 142     -23.517 -14.346  60.872  0.00  0.00    -0.296 OA
ATOM      5  O3  GNS d 142     -22.871 -13.430  58.355  0.00  0.00    -0.391 OA
ATOM      6  C3  GNS d 142     -24.057 -13.617  57.614  0.00  0.00     0.083 C 
ATOM      7  C4  GNS d 142     -23.722 -14.272  56.279  0.00  0.00     0.089 C 
ATOM      8  O5  GNS d 142     -25.715 -15.597  56.413  0.00  0.00    -0.349 OA
ATOM      9  O4  GNS d 142     -23.035 -13.351  55.463  0.00  0.00    -0.390 OA
ATOM     10  O6  GNS d 142     -24.763 -16.855  54.471  0.00  0.00    -0.398 OA
ATOM     11  C6  GNS d 142     -24.649 -15.463  54.272  0.00  0.00     0.043 C 
ATOM     12  S1  GNS d 142     -24.943 -14.071  61.026  0.00  0.00     0.156 S 
ATOM     13  O3S GNS d 142     -25.194 -12.894  61.853  0.00  0.00    -0.296 OA
ATOM     14  C5  GNS d 142     -24.987 -14.735  55.567  0.00  0.00     0.089 C 
ATOM     15  O1S GNS d 142     -25.674 -15.240  61.506  0.00  0.00    -0.296 OA
ATOM     16  H   GNS d 142     -26.826 -15.582  58.119  0.00  0.00     0.131 H 
ATOM     17  H   GNS d 142     -24.504 -15.349  58.750  0.00  0.00     0.076 H 
ATOM     18  H   GNS d 142     -26.518 -13.877  59.604  0.00  0.00     0.140 HD
ATOM     19  H   GNS d 142     -23.399 -15.132  60.317  0.00  0.00     0.231 HD
ATOM     20  H   GNS d 142     -23.083 -13.013  59.205  0.00  0.00     0.210 HD
ATOM     21  H   GNS d 142     -24.522 -12.673  57.422  0.00  0.00     0.089 H 
ATOM     22  H   GNS d 142     -23.106 -15.127  56.465  0.00  0.00     0.091 H 
ATOM     23  H   GNS d 142     -23.600 -12.580  55.299  0.00  0.00     0.210 HD
ATOM     24  H   GNS d 142     -24.548 -17.318  53.646  0.00  0.00     0.209 HD
ATOM     25  H   GNS d 142     -25.327 -15.157  53.503  0.00  0.00     0.078 H 
ATOM     26  H   GNS d 142     -23.648 -15.225  53.980  0.00  0.00     0.078 H 
ATOM     27  H   GNS d 142     -24.692 -12.141  61.504  0.00  0.00     0.231 HD
ATOM     28  H   GNS d 142     -25.575 -13.874  55.329  0.00  0.00     0.090 H 
ATOM     29  H   GNS d 142     -25.483 -15.999  60.933  0.00  0.00     0.231 HD
ATOM     30  S   IDY d 143     -26.027  -9.851  59.862  0.00  0.00     0.252 S 
ATOM     31  O1  IDY d 143     -29.289  -9.800  57.107  0.00  0.00    -0.363 OA
ATOM     32  C5  IDY d 143     -28.127 -12.025  55.706  0.00  0.00     0.152 C 
ATOM     33  C4  IDY d 143     -28.053 -13.096  56.805  0.00  0.00     0.103 C 
ATOM     34  O62 IDY d 143     -26.093 -12.335  54.429  0.00  0.00    -0.646 OA
ATOM     35  O2  IDY d 143     -26.550 -11.105  59.127  0.00  0.00    -0.244 OA
ATOM     36  O61 IDY d 143     -28.067 -12.891  53.510  0.00  0.00    -0.646 OA
ATOM     37  C3  IDY d 143     -28.319 -12.578  58.231  0.00  0.00     0.094 C 
ATOM     38  C7  IDY d 143     -30.060 -10.517  56.661  0.00  0.00     0.007 C 
ATOM     39  O3  IDY d 143     -29.737 -12.561  58.434  0.00  0.00    -0.390 OA
ATOM     40  C2  IDY d 143     -27.857 -11.150  58.539  0.00  0.00     0.134 C 
ATOM     41  OS3 IDY d 143     -26.534  -8.577  59.243  0.00  0.00    -0.572 OA
ATOM     42  O4  IDY d 143     -26.946 -13.797  57.152  0.00  0.00    -0.348 OA
ATOM     43  C1  IDY d 143     -27.948 -10.226  57.318  0.00  0.00     0.160 C 
ATOM     44  C6  IDY d 143     -27.371 -12.461  54.486  0.00  0.00     0.206 C 
ATOM     45  OS1 IDY d 143     -24.533  -9.885  59.870  0.00  0.00    -0.572 OA
ATOM     46  O5  IDY d 143     -27.486 -10.801  56.090  0.00  0.00    -0.340 OA
ATOM     47  OS2 IDY d 143     -26.515  -9.945  61.242  0.00  0.00    -0.572 OA
ATOM     48  H   IDY d 143     -29.173 -11.884  55.528  0.00  0.00     0.104 H 
ATOM     49  H   IDY d 143     -28.748 -13.700  56.260  0.00  0.00     0.092 H 
ATOM     50  H   IDY d 143     -27.760 -13.238  58.863  0.00  0.00     0.091 H 
ATOM     51  H   IDY d 143     -31.004 -10.020  56.579  0.00  0.00     0.066 H 
ATOM     52  H   IDY d 143     -30.161 -11.372  57.297  0.00  0.00     0.066 H 
ATOM     53  H   IDY d 143     -29.736 -10.830  55.691  0.00  0.00     0.066 H 
ATOM     54  H   IDY d 143     -30.144 -11.935  57.815  0.00  0.00     0.210 HD
ATOM     55  H   IDY d 143     -28.544 -10.779  59.271  0.00  0.00     0.097 H 
ATOM     56  H   IDY d 143     -27.298  -9.412  57.560  0.00  0.00     0.133 H 
ENDROOT
TORSDOF 17
ENDMDL
MODEL 37
REMARK VINA RESULT:      -5.4      2.366      5.365
REMARK  0 active torsions:
REMARK  status: ('A' for Active; 'I' for Inactive)
REMARK       I    between atoms: C1_1  and  O4_26 
REMARK       I    between atoms: C2_2  and  N_3 
REMARK       I    between atoms: N_3  and  S1_23 
REMARK       I    between atoms: O2S_4  and  S1_23 
REMARK       I    between atoms: S_5  and  O2_15 
REMARK       I    between atoms: O1_6  and  C1_27 
REMARK       I    between atoms: O1_6  and  C7_20 
REMARK       I    between atoms: C5_7  and  C6_28 
REMARK       I    between atoms: O3_8  and  C3_9 
REMARK       I    between atoms: C4_10  and  O4_26 
REMARK       I    between atoms: C4_11  and  O4_14 
REMARK       I    between atoms: O2_15  and  C2_22 
REMARK       I    between atoms: O6_17  and  C6_18 
REMARK       I    between atoms: C6_18  and  C5_29 
REMARK       I    between atoms: C3_19  and  O3_21 
REMARK       I    between atoms: S1_23  and  O1S_30 
REMARK       I    between atoms: S1_23  and  O3S_25 
ROOT
ATOM      1  C1  GNS d 142     -24.164 -11.851  59.523  0.00  0.00     0.150 C 
ATOM      2  C2  GNS d 142     -25.232 -11.796  58.438  0.00  0.00     0.081 C 
ATOM      3  N   GNS d 142     -26.540 -11.614  59.038  0.00  0.00    -0.210 NA
ATOM      4  O2S GNS d 142     -27.399 -10.549  56.997  0.00  0.00    -0.296 OA
ATOM      5  O3  GNS d 142     -26.035 -12.882  56.459  0.00  0.00    -0.391 OA
ATOM      6  C3  GNS d 142     -25.219 -13.064  57.594  0.00  0.00     0.083 C 
ATOM      7  C4  GNS d 142     -23.802 -13.409  57.150  0.00  0.00     0.089 C 
ATOM      8  O5  GNS d 142     -22.904 -12.078  58.930  0.00  0.00    -0.349 OA
ATOM      9  O4  GNS d 142     -23.787 -14.704  56.594  0.00  0.00    -0.390 OA
ATOM     10  O6  GNS d 142     -20.705 -12.392  57.779  0.00  0.00    -0.398 OA
ATOM     11  C6  GNS d 142     -21.404 -13.614  57.867  0.00  0.00     0.043 C 
ATOM     12  S1  GNS d 142     -27.545 -10.517  58.449  0.00  0.00     0.156 S 
ATOM     13  O3S GNS d 142     -28.886 -10.900  58.880  0.00  0.00    -0.296 OA
ATOM     14  C5  GNS d 142     -22.833 -13.350  58.325  0.00  0.00     0.089 C 
ATOM     15  O1S GNS d 142     -27.141  -9.230  59.008  0.00  0.00    -0.296 OA
ATOM     16  H   GNS d 142     -24.147 -10.922  60.053  0.00  0.00     0.131 H 
ATOM     17  H   GNS d 142     -25.019 -10.965  57.799  0.00  0.00     0.076 H 
ATOM     18  H   GNS d 142     -26.384 -11.374  60.017  0.00  0.00     0.140 HD
ATOM     19  H   GNS d 142     -26.496 -10.288  56.757  0.00  0.00     0.231 HD
ATOM     20  H   GNS d 142     -26.937 -12.662  56.740  0.00  0.00     0.210 HD
ATOM     21  H   GNS d 142     -25.593 -13.870  58.189  0.00  0.00     0.089 H 
ATOM     22  H   GNS d 142     -23.492 -12.693  56.418  0.00  0.00     0.091 H 
ATOM     23  H   GNS d 142     -24.069 -15.347  57.263  0.00  0.00     0.210 HD
ATOM     24  H   GNS d 142     -19.795 -12.560  57.488  0.00  0.00     0.209 HD
ATOM     25  H   GNS d 142     -20.916 -14.254  58.572  0.00  0.00     0.078 H 
ATOM     26  H   GNS d 142     -21.418 -14.086  56.907  0.00  0.00     0.078 H 
ATOM     27  H   GNS d 142     -29.118 -11.757  58.489  0.00  0.00     0.231 HD
ATOM     28  H   GNS d 142     -23.110 -14.106  59.029  0.00  0.00     0.090 H 
ATOM     29  H   GNS d 142     -26.248  -9.010  58.701  0.00  0.00     0.231 HD
ATOM     30  S   IDY d 143     -29.080 -14.414  60.122  0.00  0.00     0.252 S 
ATOM     31  O1  IDY d 143     -26.613 -15.799  63.320  0.00  0.00    -0.363 OA
ATOM     32  C5  IDY d 143     -24.274 -15.046  61.828  0.00  0.00     0.152 C 
ATOM     33  C4  IDY d 143     -24.498 -13.541  61.612  0.00  0.00     0.103 C 
ATOM     34  O62 IDY d 143     -23.282 -15.807  59.753  0.00  0.00    -0.646 OA
ATOM     35  O2  IDY d 143     -27.687 -13.830  60.446  0.00  0.00    -0.244 OA
ATOM     36  O61 IDY d 143     -22.023 -15.726  61.613  0.00  0.00    -0.646 OA
ATOM     37  C3  IDY d 143     -25.910 -13.040  61.970  0.00  0.00     0.094 C 
ATOM     38  C7  IDY d 143     -25.749 -15.430  63.972  0.00  0.00     0.007 C 
ATOM     39  O3  IDY d 143     -25.939 -12.778  63.378  0.00  0.00    -0.390 OA
ATOM     40  C2  IDY d 143     -27.066 -14.016  61.726  0.00  0.00     0.134 C 
ATOM     41  OS3 IDY d 143     -29.315 -15.735  60.800  0.00  0.00    -0.572 OA
ATOM     42  O4  IDY d 143     -24.457 -12.899  60.419  0.00  0.00    -0.348 OA
ATOM     43  C1  IDY d 143     -26.654 -15.479  61.933  0.00  0.00     0.160 C 
ATOM     44  C6  IDY d 143     -23.123 -15.536  61.000  0.00  0.00     0.206 C 
ATOM     45  OS1 IDY d 143     -29.215 -14.541  58.638  0.00  0.00    -0.572 OA
ATOM     46  O5  IDY d 143     -25.384 -15.835  61.377  0.00  0.00    -0.340 OA
ATOM     47  OS2 IDY d 143     -30.062 -13.439  60.609  0.00  0.00    -0.572 OA
ATOM     48  H   IDY d 143     -24.114 -15.154  62.881  0.00  0.00     0.104 H 
ATOM     49  H   IDY d 143     -23.633 -13.330  62.205  0.00  0.00     0.092 H 
ATOM     50  H   IDY d 143     -26.063 -12.197  61.329  0.00  0.00     0.091 H 
ATOM     51  H   IDY d 143     -25.892 -15.767  64.977  0.00  0.00     0.066 H 
ATOM     52  H   IDY d 143     -25.722 -14.360  63.956  0.00  0.00     0.066 H 
ATOM     53  H   IDY d 143     -24.827 -15.816  63.593  0.00  0.00     0.066 H 
ATOM     54  H   IDY d 143     -25.790 -13.603  63.864  0.00  0.00     0.210 HD
ATOM     55  H   IDY d 143     -27.799 -13.783  62.468  0.00  0.00     0.097 H 
ATOM     56  H   IDY d 143     -27.405 -16.036  61.413  0.00  0.00     0.133 H 
ENDROOT
TORSDOF 17
ENDMDL
MODEL 38
REMARK VINA RESULT:      -5.4      2.573      4.892
REMARK  0 active torsions:
REMARK  status: ('A' for Active; 'I' for Inactive)
REMARK       I    between atoms: C1_1  and  O4_26 
REMARK       I    between atoms: C2_2  and  N_3 
REMARK       I    between atoms: N_3  and  S1_23 
REMARK       I    between atoms: O2S_4  and  S1_23 
REMARK       I    between atoms: S_5  and  O2_15 
REMARK       I    between atoms: O1_6  and  C1_27 
REMARK       I    between atoms: O1_6  and  C7_20 
REMARK       I    between atoms: C5_7  and  C6_28 
REMARK       I    between atoms: O3_8  and  C3_9 
REMARK       I    between atoms: C4_10  and  O4_26 
REMARK       I    between atoms: C4_11  and  O4_14 
REMARK       I    between atoms: O2_15  and  C2_22 
REMARK       I    between atoms: O6_17  and  C6_18 
REMARK       I    between atoms: C6_18  and  C5_29 
REMARK       I    between atoms: C3_19  and  O3_21 
REMARK       I    between atoms: S1_23  and  O1S_30 
REMARK       I    between atoms: S1_23  and  O3S_25 
ROOT
ATOM      1  C1  GNS d 142     -25.858 -12.907  62.647  0.00  0.00     0.150 C 
ATOM      2  C2  GNS d 142     -26.820 -14.047  62.336  0.00  0.00     0.081 C 
ATOM      3  N   GNS d 142     -26.249 -14.917  61.326  0.00  0.00    -0.210 NA
ATOM      4  O2S GNS d 142     -27.565 -16.827  62.137  0.00  0.00    -0.296 OA
ATOM      5  O3  GNS d 142     -29.104 -14.563  61.823  0.00  0.00    -0.391 OA
ATOM      6  C3  GNS d 142     -28.165 -13.511  61.862  0.00  0.00     0.083 C 
ATOM      7  C4  GNS d 142     -28.673 -12.412  62.789  0.00  0.00     0.089 C 
ATOM      8  O5  GNS d 142     -26.446 -12.041  63.593  0.00  0.00    -0.349 OA
ATOM      9  O4  GNS d 142     -29.778 -11.770  62.195  0.00  0.00    -0.390 OA
ATOM     10  O6  GNS d 142     -27.534 -10.617  65.339  0.00  0.00    -0.398 OA
ATOM     11  C6  GNS d 142     -28.061 -10.335  64.061  0.00  0.00     0.043 C 
ATOM     12  S1  GNS d 142     -26.278 -16.503  61.527  0.00  0.00     0.156 S 
ATOM     13  O3S GNS d 142     -26.126 -17.099  60.203  0.00  0.00    -0.296 OA
ATOM     14  C5  GNS d 142     -27.581 -11.388  63.070  0.00  0.00     0.089 C 
ATOM     15  O1S GNS d 142     -25.161 -16.838  62.406  0.00  0.00    -0.296 OA
ATOM     16  H   GNS d 142     -24.949 -13.307  63.044  0.00  0.00     0.131 H 
ATOM     17  H   GNS d 142     -26.980 -14.606  63.234  0.00  0.00     0.076 H 
ATOM     18  H   GNS d 142     -25.270 -14.650  61.227  0.00  0.00     0.140 HD
ATOM     19  H   GNS d 142     -27.621 -16.412  63.011  0.00  0.00     0.231 HD
ATOM     20  H   GNS d 142     -28.781 -15.262  61.233  0.00  0.00     0.210 HD
ATOM     21  H   GNS d 142     -28.038 -13.097  60.883  0.00  0.00     0.089 H 
ATOM     22  H   GNS d 142     -28.965 -12.860  63.716  0.00  0.00     0.091 H 
ATOM     23  H   GNS d 142     -29.505 -11.368  61.355  0.00  0.00     0.210 HD
ATOM     24  H   GNS d 142     -27.840  -9.947  65.969  0.00  0.00     0.209 HD
ATOM     25  H   GNS d 142     -27.730  -9.369  63.744  0.00  0.00     0.078 H 
ATOM     26  H   GNS d 142     -29.130 -10.349  64.106  0.00  0.00     0.078 H 
ATOM     27  H   GNS d 142     -26.885 -16.856  59.650  0.00  0.00     0.231 HD
ATOM     28  H   GNS d 142     -27.331 -10.900  62.151  0.00  0.00     0.090 H 
ATOM     29  H   GNS d 142     -25.296 -16.426  63.273  0.00  0.00     0.231 HD
ATOM     30  S   IDY d 143     -26.714 -14.675  57.428  0.00  0.00     0.252 S 
ATOM     31  O1  IDY d 143     -24.481 -11.049  57.110  0.00  0.00    -0.363 OA
ATOM     32  C5  IDY d 143     -25.357 -10.291  59.741  0.00  0.00     0.152 C 
ATOM     33  C4  IDY d 143     -24.838 -11.453  60.602  0.00  0.00     0.103 C 
ATOM     34  O62 IDY d 143     -27.510  -9.746  60.708  0.00  0.00    -0.646 OA
ATOM     35  O2  IDY d 143     -26.105 -13.933  58.638  0.00  0.00    -0.244 OA
ATOM     36  O61 IDY d 143     -25.795  -8.313  60.954  0.00  0.00    -0.646 OA
ATOM     37  C3  IDY d 143     -24.331 -12.671  59.807  0.00  0.00     0.094 C 
ATOM     38  C7  IDY d 143     -23.704 -10.454  57.701  0.00  0.00     0.007 C 
ATOM     39  O3  IDY d 143     -22.970 -12.420  59.438  0.00  0.00    -0.390 OA
ATOM     40  C2  IDY d 143     -25.049 -12.974  58.487  0.00  0.00     0.134 C 
ATOM     41  OS3 IDY d 143     -26.754 -13.815  56.195  0.00  0.00    -0.572 OA
ATOM     42  O4  IDY d 143     -25.579 -12.191  61.465  0.00  0.00    -0.348 OA
ATOM     43  C1  IDY d 143     -25.549 -11.706  57.785  0.00  0.00     0.160 C 
ATOM     44  C6  IDY d 143     -26.280  -9.414  60.533  0.00  0.00     0.206 C 
ATOM     45  OS1 IDY d 143     -28.083 -15.152  57.794  0.00  0.00    -0.572 OA
ATOM     46  O5  IDY d 143     -26.166 -10.742  58.645  0.00  0.00    -0.340 OA
ATOM     47  OS2 IDY d 143     -25.854 -15.838  57.178  0.00  0.00    -0.572 OA
ATOM     48  H   IDY d 143     -24.478  -9.784  59.402  0.00  0.00     0.104 H 
ATOM     49  H   IDY d 143     -24.187 -10.777  61.117  0.00  0.00     0.092 H 
ATOM     50  H   IDY d 143     -24.498 -13.503  60.459  0.00  0.00     0.091 H 
ATOM     51  H   IDY d 143     -22.987 -10.037  57.027  0.00  0.00     0.066 H 
ATOM     52  H   IDY d 143     -23.208 -11.103  58.393  0.00  0.00     0.066 H 
ATOM     53  H   IDY d 143     -24.191  -9.666  58.237  0.00  0.00     0.066 H 
ATOM     54  H   IDY d 143     -22.931 -11.650  58.850  0.00  0.00     0.210 HD
ATOM     55  H   IDY d 143     -24.309 -13.418  57.854  0.00  0.00     0.097 H 
ATOM     56  H   IDY d 143     -26.297 -12.062  57.107  0.00  0.00     0.133 H 
ENDROOT
TORSDOF 17
ENDMDL
MODEL 39
REMARK VINA RESULT:      -5.4      3.001      5.950
REMARK  0 active torsions:
REMARK  status: ('A' for Active; 'I' for Inactive)
REMARK       I    between atoms: C1_1  and  O4_26 
REMARK       I    between atoms: C2_2  and  N_3 
REMARK       I    between atoms: N_3  and  S1_23 
REMARK       I    between atoms: O2S_4  and  S1_23 
REMARK       I    between atoms: S_5  and  O2_15 
REMARK       I    between atoms: O1_6  and  C1_27 
REMARK       I    between atoms: O1_6  and  C7_20 
REMARK       I    between atoms: C5_7  and  C6_28 
REMARK       I    between atoms: O3_8  and  C3_9 
REMARK       I    between atoms: C4_10  and  O4_26 
REMARK       I    between atoms: C4_11  and  O4_14 
REMARK       I    between atoms: O2_15  and  C2_22 
REMARK       I    between atoms: O6_17  and  C6_18 
REMARK       I    between atoms: C6_18  and  C5_29 
REMARK       I    between atoms: C3_19  and  O3_21 
REMARK       I    between atoms: S1_23  and  O1S_30 
REMARK       I    between atoms: S1_23  and  O3S_25 
ROOT
ATOM      1  C1  GNS d 142     -23.585 -11.569  58.263  0.00  0.00     0.150 C 
ATOM      2  C2  GNS d 142     -23.094 -12.763  59.073  0.00  0.00     0.081 C 
ATOM      3  N   GNS d 142     -22.484 -13.742  58.193  0.00  0.00    -0.210 NA
ATOM      4  O2S GNS d 142     -21.080 -14.599  60.019  0.00  0.00    -0.296 OA
ATOM      5  O3  GNS d 142     -23.718 -14.333  60.772  0.00  0.00    -0.391 OA
ATOM      6  C3  GNS d 142     -24.238 -13.402  59.850  0.00  0.00     0.083 C 
ATOM      7  C4  GNS d 142     -25.048 -12.348  60.596  0.00  0.00     0.089 C 
ATOM      8  O5  GNS d 142     -24.221 -10.648  59.122  0.00  0.00    -0.349 OA
ATOM      9  O4  GNS d 142     -26.232 -12.929  61.093  0.00  0.00    -0.390 OA
ATOM     10  O6  GNS d 142     -25.247  -9.037  60.737  0.00  0.00    -0.398 OA
ATOM     11  C6  GNS d 142     -26.138 -10.090  60.445  0.00  0.00     0.043 C 
ATOM     12  S1  GNS d 142     -21.071 -14.388  58.574  0.00  0.00     0.156 S 
ATOM     13  O3S GNS d 142     -20.967 -15.641  57.832  0.00  0.00    -0.296 OA
ATOM     14  C5  GNS d 142     -25.400 -11.182  59.680  0.00  0.00     0.089 C 
ATOM     15  O1S GNS d 142     -20.046 -13.429  58.171  0.00  0.00    -0.296 OA
ATOM     16  H   GNS d 142     -22.753 -11.097  57.785  0.00  0.00     0.131 H 
ATOM     17  H   GNS d 142     -22.365 -12.415  59.774  0.00  0.00     0.076 H 
ATOM     18  H   GNS d 142     -22.367 -13.290  57.286  0.00  0.00     0.140 HD
ATOM     19  H   GNS d 142     -21.151 -13.744  60.470  0.00  0.00     0.231 HD
ATOM     20  H   GNS d 142     -23.202 -15.005  60.297  0.00  0.00     0.210 HD
ATOM     21  H   GNS d 142     -24.885 -13.896  59.154  0.00  0.00     0.089 H 
ATOM     22  H   GNS d 142     -24.455 -11.976  61.405  0.00  0.00     0.091 H 
ATOM     23  H   GNS d 142     -26.762 -13.264  60.353  0.00  0.00     0.210 HD
ATOM     24  H   GNS d 142     -25.716  -8.342  61.224  0.00  0.00     0.209 HD
ATOM     25  H   GNS d 142     -26.945  -9.720  59.849  0.00  0.00     0.078 H 
ATOM     26  H   GNS d 142     -26.525 -10.493  61.358  0.00  0.00     0.078 H 
ATOM     27  H   GNS d 142     -21.662 -16.250  58.126  0.00  0.00     0.231 HD
ATOM     28  H   GNS d 142     -26.041 -11.545  58.904  0.00  0.00     0.090 H 
ATOM     29  H   GNS d 142     -20.147 -12.613  58.685  0.00  0.00     0.231 HD
ATOM     30  S   IDY d 143     -24.233 -16.802  56.450  0.00  0.00     0.252 S 
ATOM     31  O1  IDY d 143     -26.572 -14.343  53.860  0.00  0.00    -0.363 OA
ATOM     32  C5  IDY d 143     -26.638 -12.297  55.879  0.00  0.00     0.152 C 
ATOM     33  C4  IDY d 143     -25.145 -12.005  56.092  0.00  0.00     0.103 C 
ATOM     34  O62 IDY d 143     -27.599 -12.150  58.097  0.00  0.00    -0.646 OA
ATOM     35  O2  IDY d 143     -24.207 -15.258  56.478  0.00  0.00    -0.244 OA
ATOM     36  O61 IDY d 143     -28.071 -10.558  56.583  0.00  0.00    -0.646 OA
ATOM     37  C3  IDY d 143     -24.188 -13.018  55.436  0.00  0.00     0.094 C 
ATOM     38  C7  IDY d 143     -26.572 -13.280  53.439  0.00  0.00     0.007 C 
ATOM     39  O3  IDY d 143     -24.003 -12.628  54.070  0.00  0.00    -0.390 OA
ATOM     40  C2  IDY d 143     -24.668 -14.472  55.371  0.00  0.00     0.134 C 
ATOM     41  OS3 IDY d 143     -25.413 -17.338  55.687  0.00  0.00    -0.572 OA
ATOM     42  O4  IDY d 143     -24.501 -12.008  57.285  0.00  0.00    -0.348 OA
ATOM     43  C1  IDY d 143     -26.190 -14.582  55.210  0.00  0.00     0.160 C 
ATOM     44  C6  IDY d 143     -27.467 -11.624  56.932  0.00  0.00     0.206 C 
ATOM     45  OS1 IDY d 143     -24.228 -17.310  57.856  0.00  0.00    -0.572 OA
ATOM     46  O5  IDY d 143     -26.950 -13.689  56.032  0.00  0.00    -0.340 OA
ATOM     47  OS2 IDY d 143     -22.995 -17.227  55.785  0.00  0.00    -0.572 OA
ATOM     48  H   IDY d 143     -26.849 -11.951  54.888  0.00  0.00     0.104 H 
ATOM     49  H   IDY d 143     -25.289 -11.011  55.723  0.00  0.00     0.092 H 
ATOM     50  H   IDY d 143     -23.314 -12.998  56.055  0.00  0.00     0.091 H 
ATOM     51  H   IDY d 143     -26.886 -13.301  52.417  0.00  0.00     0.066 H 
ATOM     52  H   IDY d 143     -25.585 -12.872  53.501  0.00  0.00     0.066 H 
ATOM     53  H   IDY d 143     -27.245 -12.672  54.006  0.00  0.00     0.066 H 
ATOM     54  H   IDY d 143     -24.851 -12.681  53.602  0.00  0.00     0.210 HD
ATOM     55  H   IDY d 143     -24.224 -14.881  54.488  0.00  0.00     0.097 H 
ATOM     56  H   IDY d 143     -26.412 -15.580  55.522  0.00  0.00     0.133 H 
ENDROOT
TORSDOF 17
ENDMDL
MODEL 40
REMARK VINA RESULT:      -5.3      2.657      6.876
REMARK  0 active torsions:
REMARK  status: ('A' for Active; 'I' for Inactive)
REMARK       I    between atoms: C1_1  and  O4_26 
REMARK       I    between atoms: C2_2  and  N_3 
REMARK       I    between atoms: N_3  and  S1_23 
REMARK       I    between atoms: O2S_4  and  S1_23 
REMARK       I    between atoms: S_5  and  O2_15 
REMARK       I    between atoms: O1_6  and  C1_27 
REMARK       I    between atoms: O1_6  and  C7_20 
REMARK       I    between atoms: C5_7  and  C6_28 
REMARK       I    between atoms: O3_8  and  C3_9 
REMARK       I    between atoms: C4_10  and  O4_26 
REMARK       I    between atoms: C4_11  and  O4_14 
REMARK       I    between atoms: O2_15  and  C2_22 
REMARK       I    between atoms: O6_17  and  C6_18 
REMARK       I    between atoms: C6_18  and  C5_29 
REMARK       I    between atoms: C3_19  and  O3_21 
REMARK       I    between atoms: S1_23  and  O1S_30 
REMARK       I    between atoms: S1_23  and  O3S_25 
ROOT
ATOM      1  C1  GNS d 142     -26.516 -14.957  57.082  0.00  0.00     0.150 C 
ATOM      2  C2  GNS d 142     -25.215 -14.847  57.867  0.00  0.00     0.081 C 
ATOM      3  N   GNS d 142     -25.490 -14.418  59.225  0.00  0.00    -0.210 NA
ATOM      4  O2S GNS d 142     -23.443 -15.500  60.048  0.00  0.00    -0.296 OA
ATOM      5  O3  GNS d 142     -22.982 -13.979  57.797  0.00  0.00    -0.391 OA
ATOM      6  C3  GNS d 142     -24.254 -13.873  57.197  0.00  0.00     0.083 C 
ATOM      7  C4  GNS d 142     -24.137 -14.160  55.705  0.00  0.00     0.089 C 
ATOM      8  O5  GNS d 142     -26.231 -15.326  55.750  0.00  0.00    -0.349 OA
ATOM      9  O4  GNS d 142     -23.450 -13.103  55.075  0.00  0.00    -0.390 OA
ATOM     10  O6  GNS d 142     -25.632 -16.070  53.438  0.00  0.00    -0.398 OA
ATOM     11  C6  GNS d 142     -25.396 -14.689  53.597  0.00  0.00     0.043 C 
ATOM     12  S1  GNS d 142     -24.806 -15.176  60.457  0.00  0.00     0.156 S 
ATOM     13  O3S GNS d 142     -24.842 -14.255  61.590  0.00  0.00    -0.296 OA
ATOM     14  C5  GNS d 142     -25.513 -14.320  55.071  0.00  0.00     0.089 C 
ATOM     15  O1S GNS d 142     -25.599 -16.376  60.706  0.00  0.00    -0.296 OA
ATOM     16  H   GNS d 142     -27.142 -15.698  57.532  0.00  0.00     0.131 H 
ATOM     17  H   GNS d 142     -24.753 -15.812  57.888  0.00  0.00     0.076 H 
ATOM     18  H   GNS d 142     -26.498 -14.490  59.358  0.00  0.00     0.140 HD
ATOM     19  H   GNS d 142     -23.468 -16.111  59.296  0.00  0.00     0.231 HD
ATOM     20  H   GNS d 142     -23.056 -13.797  58.747  0.00  0.00     0.210 HD
ATOM     21  H   GNS d 142     -24.636 -12.881  57.322  0.00  0.00     0.089 H 
ATOM     22  H   GNS d 142     -23.597 -15.075  55.577  0.00  0.00     0.091 H 
ATOM     23  H   GNS d 142     -23.946 -12.278  55.196  0.00  0.00     0.210 HD
ATOM     24  H   GNS d 142     -25.558 -16.305  52.500  0.00  0.00     0.209 HD
ATOM     25  H   GNS d 142     -26.117 -14.136  53.032  0.00  0.00     0.078 H 
ATOM     26  H   GNS d 142     -24.413 -14.452  53.247  0.00  0.00     0.078 H 
ATOM     27  H   GNS d 142     -24.305 -13.473  61.387  0.00  0.00     0.231 HD
ATOM     28  H   GNS d 142     -26.031 -13.387  55.147  0.00  0.00     0.090 H 
ATOM     29  H   GNS d 142     -25.552 -16.962  59.935  0.00  0.00     0.231 HD
ATOM     30  S   IDY d 143     -25.564 -10.733  60.594  0.00  0.00     0.252 S 
ATOM     31  O1  IDY d 143     -29.083  -9.699  58.408  0.00  0.00    -0.363 OA
ATOM     32  C5  IDY d 143     -28.319 -11.534  56.331  0.00  0.00     0.152 C 
ATOM     33  C4  IDY d 143     -28.238 -12.867  57.091  0.00  0.00     0.103 C 
ATOM     34  O62 IDY d 143     -26.479 -11.628  54.759  0.00  0.00    -0.646 OA
ATOM     35  O2  IDY d 143     -26.292 -11.697  59.633  0.00  0.00    -0.244 OA
ATOM     36  O61 IDY d 143     -28.589 -11.769  53.997  0.00  0.00    -0.646 OA
ATOM     37  C3  IDY d 143     -28.292 -12.740  58.625  0.00  0.00     0.094 C 
ATOM     38  C7  IDY d 143     -29.968 -10.210  57.896  0.00  0.00     0.007 C 
ATOM     39  O3  IDY d 143     -29.670 -12.678  59.013  0.00  0.00    -0.390 OA
ATOM     40  C2  IDY d 143     -27.653 -11.487  59.233  0.00  0.00     0.134 C 
ATOM     41  OS3 IDY d 143     -25.999  -9.305  60.405  0.00  0.00    -0.572 OA
ATOM     42  O4  IDY d 143     -27.179 -13.713  57.092  0.00  0.00    -0.348 OA
ATOM     43  C1  IDY d 143     -27.778 -10.261  58.320  0.00  0.00     0.160 C 
ATOM     44  C6  IDY d 143     -27.749 -11.673  54.951  0.00  0.00     0.206 C 
ATOM     45  OS1 IDY d 143     -24.089 -10.875  60.395  0.00  0.00    -0.572 OA
ATOM     46  O5  IDY d 143     -27.515 -10.510  56.934  0.00  0.00    -0.340 OA
ATOM     47  OS2 IDY d 143     -25.906 -11.165  61.954  0.00  0.00    -0.572 OA
ATOM     48  H   IDY d 143     -29.358 -11.275  56.337  0.00  0.00     0.104 H 
ATOM     49  H   IDY d 143     -29.048 -13.247  56.505  0.00  0.00     0.092 H 
ATOM     50  H   IDY d 143     -27.740 -13.585  58.982  0.00  0.00     0.091 H 
ATOM     51  H   IDY d 143     -30.858  -9.644  58.074  0.00  0.00     0.066 H 
ATOM     52  H   IDY d 143     -30.088 -11.197  58.294  0.00  0.00     0.066 H 
ATOM     53  H   IDY d 143     -29.786 -10.269  56.844  0.00  0.00     0.066 H 
ATOM     54  H   IDY d 143     -30.074 -11.879  58.639  0.00  0.00     0.210 HD
ATOM     55  H   IDY d 143     -28.213 -11.282  60.121  0.00  0.00     0.097 H 
ATOM     56  H   IDY d 143     -27.025  -9.592  58.679  0.00  0.00     0.133 H 
ENDROOT
TORSDOF 17
ENDMDL
MODEL 41
REMARK VINA RESULT:      -5.3      2.530      4.665
REMARK  0 active torsions:
REMARK  status: ('A' for Active; 'I' for Inactive)
REMARK       I    between atoms: C1_1  and  O4_26 
REMARK       I    between atoms: C2_2  and  N_3 
REMARK       I    between atoms: N_3  and  S1_23 
REMARK       I    between atoms: O2S_4  and  S1_23 
REMARK       I    between atoms: S_5  and  O2_15 
REMARK       I    between atoms: O1_6  and  C1_27 
REMARK       I    between atoms: O1_6  and  C7_20 
REMARK       I    between atoms: C5_7  and  C6_28 
REMARK       I    between atoms: O3_8  and  C3_9 
REMARK       I    between atoms: C4_10  and  O4_26 
REMARK       I    between atoms: C4_11  and  O4_14 
REMARK       I    between atoms: O2_15  and  C2_22 
REMARK       I    between atoms: O6_17  and  C6_18 
REMARK       I    between atoms: C6_18  and  C5_29 
REMARK       I    between atoms: C3_19  and  O3_21 
REMARK       I    between atoms: S1_23  and  O1S_30 
REMARK       I    between atoms: S1_23  and  O3S_25 
ROOT
ATOM      1  C1  GNS d 142     -26.339 -12.153  61.738  0.00  0.00     0.150 C 
ATOM      2  C2  GNS d 142     -27.716 -12.748  61.471  0.00  0.00     0.081 C 
ATOM      3  N   GNS d 142     -27.646 -14.196  61.507  0.00  0.00    -0.210 NA
ATOM      4  O2S GNS d 142     -30.016 -14.358  62.137  0.00  0.00    -0.296 OA
ATOM      5  O3  GNS d 142     -29.618 -12.644  60.016  0.00  0.00    -0.391 OA
ATOM      6  C3  GNS d 142     -28.258 -12.286  60.124  0.00  0.00     0.083 C 
ATOM      7  C4  GNS d 142     -28.116 -10.776  59.967  0.00  0.00     0.089 C 
ATOM      8  O5  GNS d 142     -26.411 -10.747  61.651  0.00  0.00    -0.349 OA
ATOM      9  O4  GNS d 142     -28.388 -10.415  58.632  0.00  0.00    -0.390 OA
ATOM     10  O6  GNS d 142     -26.657  -8.258  61.564  0.00  0.00    -0.398 OA
ATOM     11  C6  GNS d 142     -26.594  -8.801  60.264  0.00  0.00     0.043 C 
ATOM     12  S1  GNS d 142     -28.734 -15.029  62.332  0.00  0.00     0.156 S 
ATOM     13  O3S GNS d 142     -28.729 -16.384  61.788  0.00  0.00    -0.296 OA
ATOM     14  C5  GNS d 142     -26.712 -10.319  60.341  0.00  0.00     0.089 C 
ATOM     15  O1S GNS d 142     -28.314 -15.003  63.731  0.00  0.00    -0.296 OA
ATOM     16  H   GNS d 142     -26.014 -12.434  62.717  0.00  0.00     0.131 H 
ATOM     17  H   GNS d 142     -28.383 -12.408  62.236  0.00  0.00     0.076 H 
ATOM     18  H   GNS d 142     -26.734 -14.437  61.895  0.00  0.00     0.140 HD
ATOM     19  H   GNS d 142     -29.973 -13.465  62.512  0.00  0.00     0.231 HD
ATOM     20  H   GNS d 142     -29.709 -13.604  60.116  0.00  0.00     0.210 HD
ATOM     21  H   GNS d 142     -27.692 -12.762  59.350  0.00  0.00     0.089 H 
ATOM     22  H   GNS d 142     -28.814 -10.300  60.624  0.00  0.00     0.091 H 
ATOM     23  H   GNS d 142     -27.751 -10.851  58.044  0.00  0.00     0.210 HD
ATOM     24  H   GNS d 142     -26.581  -7.293  61.515  0.00  0.00     0.209 HD
ATOM     25  H   GNS d 142     -25.660  -8.539  59.813  0.00  0.00     0.078 H 
ATOM     26  H   GNS d 142     -27.397  -8.410  59.675  0.00  0.00     0.078 H 
ATOM     27  H   GNS d 142     -29.013 -16.361  60.861  0.00  0.00     0.231 HD
ATOM     28  H   GNS d 142     -26.021 -10.749  59.647  0.00  0.00     0.090 H 
ATOM     29  H   GNS d 142     -28.330 -14.090  64.056  0.00  0.00     0.231 HD
ATOM     30  S   IDY d 143     -27.012 -16.631  58.485  0.00  0.00     0.252 S 
ATOM     31  O1  IDY d 143     -22.966 -15.372  57.963  0.00  0.00    -0.363 OA
ATOM     32  C5  IDY d 143     -23.672 -12.748  58.898  0.00  0.00     0.152 C 
ATOM     33  C4  IDY d 143     -24.222 -13.041  60.302  0.00  0.00     0.103 C 
ATOM     34  O62 IDY d 143     -25.104 -10.986  58.051  0.00  0.00    -0.646 OA
ATOM     35  O2  IDY d 143     -26.340 -15.528  59.331  0.00  0.00    -0.244 OA
ATOM     36  O61 IDY d 143     -22.972 -10.514  58.584  0.00  0.00    -0.646 OA
ATOM     37  C3  IDY d 143     -24.469 -14.532  60.600  0.00  0.00     0.094 C 
ATOM     38  C7  IDY d 143     -22.135 -14.854  58.554  0.00  0.00     0.007 C 
ATOM     39  O3  IDY d 143     -23.230 -15.104  61.036  0.00  0.00    -0.390 OA
ATOM     40  C2  IDY d 143     -24.914 -15.403  59.421  0.00  0.00     0.134 C 
ATOM     41  OS3 IDY d 143     -26.227 -16.951  57.242  0.00  0.00    -0.572 OA
ATOM     42  O4  IDY d 143     -25.423 -12.637  60.781  0.00  0.00    -0.348 OA
ATOM     43  C1  IDY d 143     -24.315 -14.938  58.087  0.00  0.00     0.160 C 
ATOM     44  C6  IDY d 143     -23.950 -11.327  58.504  0.00  0.00     0.206 C 
ATOM     45  OS1 IDY d 143     -28.402 -16.198  58.144  0.00  0.00    -0.572 OA
ATOM     46  O5  IDY d 143     -24.326 -13.521  57.881  0.00  0.00    -0.340 OA
ATOM     47  OS2 IDY d 143     -27.079 -17.825  59.335  0.00  0.00    -0.572 OA
ATOM     48  H   IDY d 143     -22.628 -12.975  58.956  0.00  0.00     0.104 H 
ATOM     49  H   IDY d 143     -23.416 -12.483  60.731  0.00  0.00     0.092 H 
ATOM     50  H   IDY d 143     -25.266 -14.532  61.316  0.00  0.00     0.091 H 
ATOM     51  H   IDY d 143     -21.197 -15.317  58.330  0.00  0.00     0.066 H 
ATOM     52  H   IDY d 143     -22.335 -14.941  59.601  0.00  0.00     0.066 H 
ATOM     53  H   IDY d 143     -22.096 -13.821  58.282  0.00  0.00     0.066 H 
ATOM     54  H   IDY d 143     -22.581 -15.054  60.317  0.00  0.00     0.210 HD
ATOM     55  H   IDY d 143     -24.525 -16.379  59.622  0.00  0.00     0.097 H 
ATOM     56  H   IDY d 143     -24.952 -15.378  57.349  0.00  0.00     0.133 H 
ENDROOT
TORSDOF 17
ENDMDL
MODEL 42
REMARK VINA RESULT:      -5.3      2.531      5.566
REMARK  0 active torsions:
REMARK  status: ('A' for Active; 'I' for Inactive)
REMARK       I    between atoms: C1_1  and  O4_26 
REMARK       I    between atoms: C2_2  and  N_3 
REMARK       I    between atoms: N_3  and  S1_23 
REMARK       I    between atoms: O2S_4  and  S1_23 
REMARK       I    between atoms: S_5  and  O2_15 
REMARK       I    between atoms: O1_6  and  C1_27 
REMARK       I    between atoms: O1_6  and  C7_20 
REMARK       I    between atoms: C5_7  and  C6_28 
REMARK       I    between atoms: O3_8  and  C3_9 
REMARK       I    between atoms: C4_10  and  O4_26 
REMARK       I    between atoms: C4_11  and  O4_14 
REMARK       I    between atoms: O2_15  and  C2_22 
REMARK       I    between atoms: O6_17  and  C6_18 
REMARK       I    between atoms: C6_18  and  C5_29 
REMARK       I    between atoms: C3_19  and  O3_21 
REMARK       I    between atoms: S1_23  and  O1S_30 
REMARK       I    between atoms: S1_23  and  O3S_25 
ROOT
ATOM      1  C1  GNS d 142     -25.165 -11.775  59.659  0.00  0.00     0.150 C 
ATOM      2  C2  GNS d 142     -25.351 -12.873  60.699  0.00  0.00     0.081 C 
ATOM      3  N   GNS d 142     -25.050 -14.165  60.114  0.00  0.00    -0.210 NA
ATOM      4  O2S GNS d 142     -24.456 -15.091  62.312  0.00  0.00    -0.296 OA
ATOM      5  O3  GNS d 142     -26.843 -13.716  62.373  0.00  0.00    -0.391 OA
ATOM      6  C3  GNS d 142     -26.772 -12.868  61.250  0.00  0.00     0.083 C 
ATOM      7  C4  GNS d 142     -27.198 -11.459  61.649  0.00  0.00     0.089 C 
ATOM      8  O5  GNS d 142     -25.509 -10.529  60.225  0.00  0.00    -0.349 OA
ATOM      9  O4  GNS d 142     -28.582 -11.445  61.914  0.00  0.00    -0.390 OA
ATOM     10  O6  GNS d 142     -26.053  -8.358  61.344  0.00  0.00    -0.398 OA
ATOM     11  C6  GNS d 142     -27.231  -9.041  60.975  0.00  0.00     0.043 C 
ATOM     12  S1  GNS d 142     -24.112 -15.198  60.897  0.00  0.00     0.156 S 
ATOM     13  O3S GNS d 142     -24.400 -16.523  60.355  0.00  0.00    -0.296 OA
ATOM     14  C5  GNS d 142     -26.881 -10.460  60.544  0.00  0.00     0.089 C 
ATOM     15  O1S GNS d 142     -22.733 -14.793  60.640  0.00  0.00    -0.296 OA
ATOM     16  H   GNS d 142     -24.144 -11.754  59.342  0.00  0.00     0.131 H 
ATOM     17  H   GNS d 142     -24.677 -12.686  61.508  0.00  0.00     0.076 H 
ATOM     18  H   GNS d 142     -24.604 -13.985  59.215  0.00  0.00     0.140 HD
ATOM     19  H   GNS d 142     -24.249 -14.198  62.628  0.00  0.00     0.231 HD
ATOM     20  H   GNS d 142     -26.572 -14.613  62.120  0.00  0.00     0.210 HD
ATOM     21  H   GNS d 142     -27.432 -13.217  60.484  0.00  0.00     0.089 H 
ATOM     22  H   GNS d 142     -26.655 -11.177  62.527  0.00  0.00     0.091 H 
ATOM     23  H   GNS d 142     -29.066 -11.702  61.113  0.00  0.00     0.210 HD
ATOM     24  H   GNS d 142     -26.275  -7.455  61.618  0.00  0.00     0.209 HD
ATOM     25  H   GNS d 142     -27.701  -8.527  60.163  0.00  0.00     0.078 H 
ATOM     26  H   GNS d 142     -27.899  -9.076  61.809  0.00  0.00     0.078 H 
ATOM     27  H   GNS d 142     -25.322 -16.756  60.545  0.00  0.00     0.231 HD
ATOM     28  H   GNS d 142     -27.469 -10.709  59.685  0.00  0.00     0.090 H 
ATOM     29  H   GNS d 142     -22.580 -13.911  61.013  0.00  0.00     0.231 HD
ATOM     30  S   IDY d 143     -27.563 -16.643  58.380  0.00  0.00     0.252 S 
ATOM     31  O1  IDY d 143     -28.213 -14.076  55.031  0.00  0.00    -0.363 OA
ATOM     32  C5  IDY d 143     -27.788 -11.786  56.717  0.00  0.00     0.152 C 
ATOM     33  C4  IDY d 143     -26.367 -12.033  57.246  0.00  0.00     0.103 C 
ATOM     34  O62 IDY d 143     -28.974 -10.843  58.607  0.00  0.00    -0.646 OA
ATOM     35  O2  IDY d 143     -26.916 -15.249  58.229  0.00  0.00    -0.244 OA
ATOM     36  O61 IDY d 143     -28.488  -9.534  56.845  0.00  0.00    -0.646 OA
ATOM     37  C3  IDY d 143     -25.807 -13.440  56.964  0.00  0.00     0.094 C 
ATOM     38  C7  IDY d 143     -27.708 -13.199  54.499  0.00  0.00     0.007 C 
ATOM     39  O3  IDY d 143     -25.247 -13.434  55.645  0.00  0.00    -0.390 OA
ATOM     40  C2  IDY d 143     -26.819 -14.591  56.958  0.00  0.00     0.134 C 
ATOM     41  OS3 IDY d 143     -28.708 -16.845  57.426  0.00  0.00    -0.572 OA
ATOM     42  O4  IDY d 143     -25.997 -12.031  58.549  0.00  0.00    -0.348 OA
ATOM     43  C1  IDY d 143     -28.200 -14.158  56.452  0.00  0.00     0.160 C 
ATOM     44  C6  IDY d 143     -28.440 -10.653  57.453  0.00  0.00     0.206 C 
ATOM     45  OS1 IDY d 143     -28.009 -16.818  59.796  0.00  0.00    -0.572 OA
ATOM     46  O5  IDY d 143     -28.661 -12.899  56.955  0.00  0.00    -0.340 OA
ATOM     47  OS2 IDY d 143     -26.511 -17.623  58.086  0.00  0.00    -0.572 OA
ATOM     48  H   IDY d 143     -27.665 -11.597  55.671  0.00  0.00     0.104 H 
ATOM     49  H   IDY d 143     -26.028 -11.154  56.737  0.00  0.00     0.092 H 
ATOM     50  H   IDY d 143     -25.123 -13.620  57.766  0.00  0.00     0.091 H 
ATOM     51  H   IDY d 143     -27.821 -13.310  53.441  0.00  0.00     0.066 H 
ATOM     52  H   IDY d 143     -26.666 -13.183  54.746  0.00  0.00     0.066 H 
ATOM     53  H   IDY d 143     -28.162 -12.283  54.812  0.00  0.00     0.066 H 
ATOM     54  H   IDY d 143     -25.948 -13.263  54.997  0.00  0.00     0.210 HD
ATOM     55  H   IDY d 143     -26.434 -15.307  56.263  0.00  0.00     0.097 H 
ATOM     56  H   IDY d 143     -28.860 -14.916  56.818  0.00  0.00     0.133 H 
ENDROOT
TORSDOF 17
ENDMDL
MODEL 43
REMARK VINA RESULT:      -5.3      2.418      5.703
REMARK  0 active torsions:
REMARK  status: ('A' for Active; 'I' for Inactive)
REMARK       I    between atoms: C1_1  and  O4_26 
REMARK       I    between atoms: C2_2  and  N_3 
REMARK       I    between atoms: N_3  and  S1_23 
REMARK       I    between atoms: O2S_4  and  S1_23 
REMARK       I    between atoms: S_5  and  O2_15 
REMARK       I    between atoms: O1_6  and  C1_27 
REMARK       I    between atoms: O1_6  and  C7_20 
REMARK       I    between atoms: C5_7  and  C6_28 
REMARK       I    between atoms: O3_8  and  C3_9 
REMARK       I    between atoms: C4_10  and  O4_26 
REMARK       I    between atoms: C4_11  and  O4_14 
REMARK       I    between atoms: O2_15  and  C2_22 
REMARK       I    between atoms: O6_17  and  C6_18 
REMARK       I    between atoms: C6_18  and  C5_29 
REMARK       I    between atoms: C3_19  and  O3_21 
REMARK       I    between atoms: S1_23  and  O1S_30 
REMARK       I    between atoms: S1_23  and  O3S_25 
ROOT
ATOM      1  C1  GNS d 142     -24.670 -12.067  57.553  0.00  0.00     0.150 C 
ATOM      2  C2  GNS d 142     -25.842 -11.134  57.830  0.00  0.00     0.081 C 
ATOM      3  N   GNS d 142     -26.048 -11.008  59.260  0.00  0.00    -0.210 NA
ATOM      4  O2S GNS d 142     -27.073  -8.792  58.979  0.00  0.00    -0.296 OA
ATOM      5  O3  GNS d 142     -28.109 -10.648  57.225  0.00  0.00    -0.391 OA
ATOM      6  C3  GNS d 142     -27.114 -11.645  57.164  0.00  0.00     0.083 C 
ATOM      7  C4  GNS d 142     -26.857 -12.016  55.708  0.00  0.00     0.089 C 
ATOM      8  O5  GNS d 142     -24.512 -12.222  56.159  0.00  0.00    -0.349 OA
ATOM      9  O4  GNS d 142     -27.972 -12.712  55.197  0.00  0.00    -0.390 OA
ATOM     10  O6  GNS d 142     -24.256 -12.361  53.674  0.00  0.00    -0.398 OA
ATOM     11  C6  GNS d 142     -25.308 -13.189  54.117  0.00  0.00     0.043 C 
ATOM     12  S1  GNS d 142     -26.256  -9.562  59.913  0.00  0.00     0.156 S 
ATOM     13  O3S GNS d 142     -26.925  -9.770  61.194  0.00  0.00    -0.296 OA
ATOM     14  C5  GNS d 142     -25.613 -12.886  55.579  0.00  0.00     0.089 C 
ATOM     15  O1S GNS d 142     -24.928  -8.979  60.081  0.00  0.00    -0.296 OA
ATOM     16  H   GNS d 142     -23.777 -11.651  57.969  0.00  0.00     0.131 H 
ATOM     17  H   GNS d 142     -25.611 -10.174  57.420  0.00  0.00     0.076 H 
ATOM     18  H   GNS d 142     -25.232 -11.421  59.712  0.00  0.00     0.140 HD
ATOM     19  H   GNS d 142     -26.591  -8.679  58.146  0.00  0.00     0.231 HD
ATOM     20  H   GNS d 142     -28.274 -10.410  58.151  0.00  0.00     0.210 HD
ATOM     21  H   GNS d 142     -27.441 -12.521  57.685  0.00  0.00     0.089 H 
ATOM     22  H   GNS d 142     -26.701 -11.116  55.151  0.00  0.00     0.091 H 
ATOM     23  H   GNS d 142     -28.106 -13.526  55.708  0.00  0.00     0.210 HD
ATOM     24  H   GNS d 142     -24.062 -12.554  52.744  0.00  0.00     0.209 HD
ATOM     25  H   GNS d 142     -25.021 -14.215  54.018  0.00  0.00     0.078 H 
ATOM     26  H   GNS d 142     -26.180 -13.005  53.525  0.00  0.00     0.078 H 
ATOM     27  H   GNS d 142     -27.801 -10.157  61.041  0.00  0.00     0.231 HD
ATOM     28  H   GNS d 142     -25.792 -13.810  56.087  0.00  0.00     0.090 H 
ATOM     29  H   GNS d 142     -24.516  -8.856  59.211  0.00  0.00     0.231 HD
ATOM     30  S   IDY d 143     -28.415 -13.174  61.533  0.00  0.00     0.252 S 
ATOM     31  O1  IDY d 143     -26.055 -16.706  61.096  0.00  0.00    -0.363 OA
ATOM     32  C5  IDY d 143     -25.283 -15.853  58.462  0.00  0.00     0.152 C 
ATOM     33  C4  IDY d 143     -24.614 -14.499  58.744  0.00  0.00     0.103 C 
ATOM     34  O62 IDY d 143     -26.480 -15.508  56.385  0.00  0.00    -0.646 OA
ATOM     35  O2  IDY d 143     -27.143 -13.255  60.660  0.00  0.00    -0.244 OA
ATOM     36  O61 IDY d 143     -24.660 -16.827  56.403  0.00  0.00    -0.646 OA
ATOM     37  C3  IDY d 143     -24.826 -13.958  60.170  0.00  0.00     0.094 C 
ATOM     38  C7  IDY d 143     -24.991 -17.009  60.807  0.00  0.00     0.007 C 
ATOM     39  O3  IDY d 143     -23.834 -14.552  61.017  0.00  0.00    -0.390 OA
ATOM     40  C2  IDY d 143     -26.165 -14.289  60.838  0.00  0.00     0.134 C 
ATOM     41  OS3 IDY d 143     -28.932 -14.535  61.911  0.00  0.00    -0.572 OA
ATOM     42  O4  IDY d 143     -24.920 -13.325  58.139  0.00  0.00    -0.348 OA
ATOM     43  C1  IDY d 143     -26.717 -15.653  60.404  0.00  0.00     0.160 C 
ATOM     44  C6  IDY d 143     -25.484 -16.051  56.989  0.00  0.00     0.206 C 
ATOM     45  OS1 IDY d 143     -29.455 -12.391  60.799  0.00  0.00    -0.572 OA
ATOM     46  O5  IDY d 143     -26.609 -15.931  59.004  0.00  0.00    -0.340 OA
ATOM     47  OS2 IDY d 143     -28.038 -12.446  62.750  0.00  0.00    -0.572 OA
ATOM     48  H   IDY d 143     -24.633 -16.580  58.903  0.00  0.00     0.104 H 
ATOM     49  H   IDY d 143     -23.681 -14.891  58.398  0.00  0.00     0.092 H 
ATOM     50  H   IDY d 143     -24.777 -12.894  60.062  0.00  0.00     0.091 H 
ATOM     51  H   IDY d 143     -24.666 -17.812  61.435  0.00  0.00     0.066 H 
ATOM     52  H   IDY d 143     -24.336 -16.172  60.931  0.00  0.00     0.066 H 
ATOM     53  H   IDY d 143     -24.976 -17.326  59.786  0.00  0.00     0.066 H 
ATOM     54  H   IDY d 143     -23.967 -15.512  61.046  0.00  0.00     0.210 HD
ATOM     55  H   IDY d 143     -25.956 -14.348  61.885  0.00  0.00     0.097 H 
ATOM     56  H   IDY d 143     -27.757 -15.601  60.647  0.00  0.00     0.133 H 
ENDROOT
TORSDOF 17
ENDMDL
MODEL 44
REMARK VINA RESULT:      -5.2      2.587      4.544
REMARK  0 active torsions:
REMARK  status: ('A' for Active; 'I' for Inactive)
REMARK       I    between atoms: C1_1  and  O4_26 
REMARK       I    between atoms: C2_2  and  N_3 
REMARK       I    between atoms: N_3  and  S1_23 
REMARK       I    between atoms: O2S_4  and  S1_23 
REMARK       I    between atoms: S_5  and  O2_15 
REMARK       I    between atoms: O1_6  and  C1_27 
REMARK       I    between atoms: O1_6  and  C7_20 
REMARK       I    between atoms: C5_7  and  C6_28 
REMARK       I    between atoms: O3_8  and  C3_9 
REMARK       I    between atoms: C4_10  and  O4_26 
REMARK       I    between atoms: C4_11  and  O4_14 
REMARK       I    between atoms: O2_15  and  C2_22 
REMARK       I    between atoms: O6_17  and  C6_18 
REMARK       I    between atoms: C6_18  and  C5_29 
REMARK       I    between atoms: C3_19  and  O3_21 
REMARK       I    between atoms: S1_23  and  O1S_30 
REMARK       I    between atoms: S1_23  and  O3S_25 
ROOT
ATOM      1  C1  GNS d 142     -26.102 -11.810  57.402  0.00  0.00     0.150 C 
ATOM      2  C2  GNS d 142     -24.630 -12.177  57.537  0.00  0.00     0.081 C 
ATOM      3  N   GNS d 142     -24.387 -13.481  56.950  0.00  0.00    -0.210 NA
ATOM      4  O2S GNS d 142     -22.038 -12.913  56.505  0.00  0.00    -0.296 OA
ATOM      5  O3  GNS d 142     -22.795 -12.271  59.076  0.00  0.00    -0.391 OA
ATOM      6  C3  GNS d 142     -24.200 -12.177  58.999  0.00  0.00     0.083 C 
ATOM      7  C4  GNS d 142     -24.662 -10.906  59.704  0.00  0.00     0.089 C 
ATOM      8  O5  GNS d 142     -26.335 -10.564  58.021  0.00  0.00    -0.349 OA
ATOM      9  O4  GNS d 142     -24.475 -11.046  61.094  0.00  0.00    -0.390 OA
ATOM     10  O6  GNS d 142     -26.628  -8.309  59.064  0.00  0.00    -0.398 OA
ATOM     11  C6  GNS d 142     -26.573  -9.315  60.051  0.00  0.00     0.043 C 
ATOM     12  S1  GNS d 142     -23.146 -13.695  55.964  0.00  0.00     0.156 S 
ATOM     13  O3S GNS d 142     -22.860 -15.127  55.952  0.00  0.00    -0.296 OA
ATOM     14  C5  GNS d 142     -26.132 -10.627  59.415  0.00  0.00     0.089 C 
ATOM     15  O1S GNS d 142     -23.562 -13.212  54.650  0.00  0.00    -0.296 OA
ATOM     16  H   GNS d 142     -26.360 -11.748  56.365  0.00  0.00     0.131 H 
ATOM     17  H   GNS d 142     -24.052 -11.442  57.017  0.00  0.00     0.076 H 
ATOM     18  H   GNS d 142     -25.227 -13.728  56.425  0.00  0.00     0.140 HD
ATOM     19  H   GNS d 142     -22.271 -11.973  56.494  0.00  0.00     0.231 HD
ATOM     20  H   GNS d 142     -22.500 -13.079  58.628  0.00  0.00     0.210 HD
ATOM     21  H   GNS d 142     -24.651 -13.017  59.484  0.00  0.00     0.089 H 
ATOM     22  H   GNS d 142     -24.083 -10.085  59.337  0.00  0.00     0.091 H 
ATOM     23  H   GNS d 142     -25.003 -11.792  61.418  0.00  0.00     0.210 HD
ATOM     24  H   GNS d 142     -26.910  -7.474  59.469  0.00  0.00     0.209 HD
ATOM     25  H   GNS d 142     -27.542  -9.438  60.489  0.00  0.00     0.078 H 
ATOM     26  H   GNS d 142     -25.873  -9.032  60.809  0.00  0.00     0.078 H 
ATOM     27  H   GNS d 142     -22.588 -15.410  56.839  0.00  0.00     0.231 HD
ATOM     28  H   GNS d 142     -26.715 -11.420  59.834  0.00  0.00     0.090 H 
ATOM     29  H   GNS d 142     -23.742 -12.261  54.697  0.00  0.00     0.231 HD
ATOM     30  S   IDY d 143     -24.484 -16.970  58.760  0.00  0.00     0.252 S 
ATOM     31  O1  IDY d 143     -28.707 -16.841  59.380  0.00  0.00    -0.363 OA
ATOM     32  C5  IDY d 143     -28.580 -13.975  59.572  0.00  0.00     0.152 C 
ATOM     33  C4  IDY d 143     -27.980 -13.586  58.212  0.00  0.00     0.103 C 
ATOM     34  O62 IDY d 143     -27.560 -12.435  61.139  0.00  0.00    -0.646 OA
ATOM     35  O2  IDY d 143     -25.377 -15.782  58.341  0.00  0.00    -0.244 OA
ATOM     36  O61 IDY d 143     -29.743 -12.225  60.649  0.00  0.00    -0.646 OA
ATOM     37  C3  IDY d 143     -27.418 -14.763  57.393  0.00  0.00     0.094 C 
ATOM     38  C7  IDY d 143     -29.629 -16.309  58.963  0.00  0.00     0.007 C 
ATOM     39  O3  IDY d 143     -28.506 -15.355  56.672  0.00  0.00    -0.390 OA
ATOM     40  C2  IDY d 143     -26.797 -15.917  58.187  0.00  0.00     0.134 C 
ATOM     41  OS3 IDY d 143     -25.182 -17.896  59.718  0.00  0.00    -0.572 OA
ATOM     42  O4  IDY d 143     -26.893 -12.798  58.024  0.00  0.00    -0.348 OA
ATOM     43  C1  IDY d 143     -27.482 -16.134  59.543  0.00  0.00     0.160 C 
ATOM     44  C6  IDY d 143     -28.614 -12.794  60.496  0.00  0.00     0.206 C 
ATOM     45  OS1 IDY d 143     -23.220 -16.438  59.354  0.00  0.00    -0.572 OA
ATOM     46  O5  IDY d 143     -27.775 -14.936  60.270  0.00  0.00    -0.340 OA
ATOM     47  OS2 IDY d 143     -24.163 -17.702  57.529  0.00  0.00    -0.572 OA
ATOM     48  H   IDY d 143     -29.551 -14.363  59.345  0.00  0.00     0.104 H 
ATOM     49  H   IDY d 143     -28.887 -13.076  57.961  0.00  0.00     0.092 H 
ATOM     50  H   IDY d 143     -26.640 -14.328  56.800  0.00  0.00     0.091 H 
ATOM     51  H   IDY d 143     -30.446 -16.998  58.915  0.00  0.00     0.066 H 
ATOM     52  H   IDY d 143     -29.415 -15.941  57.981  0.00  0.00     0.066 H 
ATOM     53  H   IDY d 143     -29.889 -15.492  59.602  0.00  0.00     0.066 H 
ATOM     54  H   IDY d 143     -29.150 -15.717  57.299  0.00  0.00     0.210 HD
ATOM     55  H   IDY d 143     -26.967 -16.794  57.600  0.00  0.00     0.097 H 
ATOM     56  H   IDY d 143     -26.766 -16.691  60.109  0.00  0.00     0.133 H 
ENDROOT
TORSDOF 17
ENDMDL
MODEL 45
REMARK VINA RESULT:      -5.2      3.527      6.851
REMARK  0 active torsions:
REMARK  status: ('A' for Active; 'I' for Inactive)
REMARK       I    between atoms: C1_1  and  O4_26 
REMARK       I    between atoms: C2_2  and  N_3 
REMARK       I    between atoms: N_3  and  S1_23 
REMARK       I    between atoms: O2S_4  and  S1_23 
REMARK       I    between atoms: S_5  and  O2_15 
REMARK       I    between atoms: O1_6  and  C1_27 
REMARK       I    between atoms: O1_6  and  C7_20 
REMARK       I    between atoms: C5_7  and  C6_28 
REMARK       I    between atoms: O3_8  and  C3_9 
REMARK       I    between atoms: C4_10  and  O4_26 
REMARK       I    between atoms: C4_11  and  O4_14 
REMARK       I    between atoms: O2_15  and  C2_22 
REMARK       I    between atoms: O6_17  and  C6_18 
REMARK       I    between atoms: C6_18  and  C5_29 
REMARK       I    between atoms: C3_19  and  O3_21 
REMARK       I    between atoms: S1_23  and  O1S_30 
REMARK       I    between atoms: S1_23  and  O3S_25 
ROOT
ATOM      1  C1  GNS d 142     -26.007 -15.916  57.296  0.00  0.00     0.150 C 
ATOM      2  C2  GNS d 142     -24.830 -16.684  56.708  0.00  0.00     0.081 C 
ATOM      3  N   GNS d 142     -23.752 -16.757  57.676  0.00  0.00    -0.210 NA
ATOM      4  O2S GNS d 142     -22.897 -18.825  56.662  0.00  0.00    -0.296 OA
ATOM      5  O3  GNS d 142     -23.423 -16.883  54.779  0.00  0.00    -0.391 OA
ATOM      6  C3  GNS d 142     -24.335 -16.025  55.427  0.00  0.00     0.083 C 
ATOM      7  C4  GNS d 142     -25.496 -15.717  54.488  0.00  0.00     0.089 C 
ATOM      8  O5  GNS d 142     -27.028 -15.809  56.329  0.00  0.00    -0.349 OA
ATOM      9  O4  GNS d 142     -25.045 -14.892  53.438  0.00  0.00    -0.390 OA
ATOM     10  O6  GNS d 142     -28.815 -15.750  54.578  0.00  0.00    -0.398 OA
ATOM     11  C6  GNS d 142     -27.821 -14.784  54.313  0.00  0.00     0.043 C 
ATOM     12  S1  GNS d 142     -23.017 -18.151  57.951  0.00  0.00     0.156 S 
ATOM     13  O3S GNS d 142     -21.717 -17.834  58.535  0.00  0.00    -0.296 OA
ATOM     14  C5  GNS d 142     -26.628 -15.019  55.232  0.00  0.00     0.089 C 
ATOM     15  O1S GNS d 142     -23.863 -18.898  58.879  0.00  0.00    -0.296 OA
ATOM     16  H   GNS d 142     -26.380 -16.437  58.153  0.00  0.00     0.131 H 
ATOM     17  H   GNS d 142     -25.159 -17.674  56.472  0.00  0.00     0.076 H 
ATOM     18  H   GNS d 142     -24.136 -16.445  58.568  0.00  0.00     0.140 HD
ATOM     19  H   GNS d 142     -23.781 -19.016  56.314  0.00  0.00     0.231 HD
ATOM     20  H   GNS d 142     -22.684 -17.080  55.376  0.00  0.00     0.210 HD
ATOM     21  H   GNS d 142     -23.853 -15.105  55.683  0.00  0.00     0.089 H 
ATOM     22  H   GNS d 142     -25.868 -16.640  54.094  0.00  0.00     0.091 H 
ATOM     23  H   GNS d 142     -24.709 -14.058  53.804  0.00  0.00     0.210 HD
ATOM     24  H   GNS d 142     -29.574 -15.601  53.994  0.00  0.00     0.209 HD
ATOM     25  H   GNS d 142     -28.219 -13.807  54.488  0.00  0.00     0.078 H 
ATOM     26  H   GNS d 142     -27.508 -14.865  53.294  0.00  0.00     0.078 H 
ATOM     27  H   GNS d 142     -21.186 -17.339  57.891  0.00  0.00     0.231 HD
ATOM     28  H   GNS d 142     -26.272 -14.070  55.575  0.00  0.00     0.090 H 
ATOM     29  H   GNS d 142     -24.715 -19.089  58.458  0.00  0.00     0.231 HD
ATOM     30  S   IDY d 143     -20.743 -14.260  58.090  0.00  0.00     0.252 S 
ATOM     31  O1  IDY d 143     -23.221 -11.072  59.480  0.00  0.00    -0.363 OA
ATOM     32  C5  IDY d 143     -25.385 -12.067  57.871  0.00  0.00     0.152 C 
ATOM     33  C4  IDY d 143     -25.567 -13.491  58.419  0.00  0.00     0.103 C 
ATOM     34  O62 IDY d 143     -25.747 -12.292  55.487  0.00  0.00    -0.646 OA
ATOM     35  O2  IDY d 143     -22.278 -14.360  58.222  0.00  0.00    -0.244 OA
ATOM     36  O61 IDY d 143     -27.276 -11.220  56.738  0.00  0.00    -0.646 OA
ATOM     37  C3  IDY d 143     -24.441 -13.974  59.352  0.00  0.00     0.094 C 
ATOM     38  C7  IDY d 143     -24.252 -10.916  59.947  0.00  0.00     0.007 C 
ATOM     39  O3  IDY d 143     -24.730 -13.498  60.672  0.00  0.00    -0.390 OA
ATOM     40  C2  IDY d 143     -23.030 -13.459  59.046  0.00  0.00     0.134 C 
ATOM     41  OS3 IDY d 143     -20.259 -12.837  58.150  0.00  0.00    -0.572 OA
ATOM     42  O4  IDY d 143     -25.585 -14.626  57.679  0.00  0.00    -0.348 OA
ATOM     43  C1  IDY d 143     -23.035 -12.043  58.456  0.00  0.00     0.160 C 
ATOM     44  C6  IDY d 143     -26.187 -11.872  56.619  0.00  0.00     0.206 C 
ATOM     45  OS1 IDY d 143     -20.324 -14.915  56.814  0.00  0.00    -0.572 OA
ATOM     46  O5  IDY d 143     -24.036 -11.807  57.460  0.00  0.00    -0.340 OA
ATOM     47  OS2 IDY d 143     -20.179 -15.008  59.219  0.00  0.00    -0.572 OA
ATOM     48  H   IDY d 143     -25.685 -11.422  58.671  0.00  0.00     0.104 H 
ATOM     49  H   IDY d 143     -26.545 -13.229  58.766  0.00  0.00     0.092 H 
ATOM     50  H   IDY d 143     -24.428 -15.036  59.226  0.00  0.00     0.091 H 
ATOM     51  H   IDY d 143     -24.194 -10.150  60.693  0.00  0.00     0.066 H 
ATOM     52  H   IDY d 143     -24.581 -11.828  60.399  0.00  0.00     0.066 H 
ATOM     53  H   IDY d 143     -24.946 -10.622  59.189  0.00  0.00     0.066 H 
ATOM     54  H   IDY d 143     -24.717 -12.528  60.676  0.00  0.00     0.210 HD
ATOM     55  H   IDY d 143     -22.533 -13.409  59.992  0.00  0.00     0.097 H 
ATOM     56  H   IDY d 143     -22.079 -11.956  57.984  0.00  0.00     0.133 H 
ENDROOT
TORSDOF 17
ENDMDL
MODEL 46
REMARK VINA RESULT:      -5.2      2.877      5.726
REMARK  0 active torsions:
REMARK  status: ('A' for Active; 'I' for Inactive)
REMARK       I    between atoms: C1_1  and  O4_26 
REMARK       I    between atoms: C2_2  and  N_3 
REMARK       I    between atoms: N_3  and  S1_23 
REMARK       I    between atoms: O2S_4  and  S1_23 
REMARK       I    between atoms: S_5  and  O2_15 
REMARK       I    between atoms: O1_6  and  C1_27 
REMARK       I    between atoms: O1_6  and  C7_20 
REMARK       I    between atoms: C5_7  and  C6_28 
REMARK       I    between atoms: O3_8  and  C3_9 
REMARK       I    between atoms: C4_10  and  O4_26 
REMARK       I    between atoms: C4_11  and  O4_14 
REMARK       I    between atoms: O2_15  and  C2_22 
REMARK       I    between atoms: O6_17  and  C6_18 
REMARK       I    between atoms: C6_18  and  C5_29 
REMARK       I    between atoms: C3_19  and  O3_21 
REMARK       I    between atoms: S1_23  and  O1S_30 
REMARK       I    between atoms: S1_23  and  O3S_25 
ROOT
ATOM      1  C1  GNS d 142     -27.894 -12.817  60.118  0.00  0.00     0.150 C 
ATOM      2  C2  GNS d 142     -26.635 -13.639  59.876  0.00  0.00     0.081 C 
ATOM      3  N   GNS d 142     -26.743 -14.920  60.546  0.00  0.00    -0.210 NA
ATOM      4  O2S GNS d 142     -25.196 -15.960  58.945  0.00  0.00    -0.296 OA
ATOM      5  O3  GNS d 142     -24.240 -13.561  59.908  0.00  0.00    -0.391 OA
ATOM      6  C3  GNS d 142     -25.397 -12.898  60.365  0.00  0.00     0.083 C 
ATOM      7  C4  GNS d 142     -25.389 -11.458  59.863  0.00  0.00     0.089 C 
ATOM      8  O5  GNS d 142     -27.756 -11.554  59.504  0.00  0.00    -0.349 OA
ATOM      9  O4  GNS d 142     -24.379 -10.735  60.529  0.00  0.00    -0.390 OA
ATOM     10  O6  GNS d 142     -27.455  -9.379  58.305  0.00  0.00    -0.398 OA
ATOM     11  C6  GNS d 142     -26.755  -9.378  59.529  0.00  0.00     0.043 C 
ATOM     12  S1  GNS d 142     -26.362 -16.265  59.767  0.00  0.00     0.156 S 
ATOM     13  O3S GNS d 142     -26.076 -17.274  60.783  0.00  0.00    -0.296 OA
ATOM     14  C5  GNS d 142     -26.736 -10.789  60.105  0.00  0.00     0.089 C 
ATOM     15  O1S GNS d 142     -27.521 -16.624  58.955  0.00  0.00    -0.296 OA
ATOM     16  H   GNS d 142     -28.738 -13.326  59.702  0.00  0.00     0.131 H 
ATOM     17  H   GNS d 142     -26.536 -13.799  58.822  0.00  0.00     0.076 H 
ATOM     18  H   GNS d 142     -27.714 -15.016  60.843  0.00  0.00     0.140 HD
ATOM     19  H   GNS d 142     -25.432 -15.288  58.287  0.00  0.00     0.231 HD
ATOM     20  H   GNS d 142     -24.245 -14.477  60.227  0.00  0.00     0.210 HD
ATOM     21  H   GNS d 142     -25.412 -12.883  61.435  0.00  0.00     0.089 H 
ATOM     22  H   GNS d 142     -25.198 -11.467  58.811  0.00  0.00     0.091 H 
ATOM     23  H   GNS d 142     -24.559 -10.731  61.482  0.00  0.00     0.210 HD
ATOM     24  H   GNS d 142     -27.467  -8.481  57.939  0.00  0.00     0.209 HD
ATOM     25  H   GNS d 142     -27.241  -8.718  60.217  0.00  0.00     0.078 H 
ATOM     26  H   GNS d 142     -25.751  -9.045  59.366  0.00  0.00     0.078 H 
ATOM     27  H   GNS d 142     -25.302 -17.000  61.300  0.00  0.00     0.231 HD
ATOM     28  H   GNS d 142     -26.898 -10.728  61.160  0.00  0.00     0.090 H 
ATOM     29  H   GNS d 142     -27.680 -15.933  58.294  0.00  0.00     0.231 HD
ATOM     30  S   IDY d 143     -25.535 -15.823  64.178  0.00  0.00     0.252 S 
ATOM     31  O1  IDY d 143     -28.482 -13.374  66.063  0.00  0.00    -0.363 OA
ATOM     32  C5  IDY d 143     -28.403 -11.573  63.824  0.00  0.00     0.152 C 
ATOM     33  C4  IDY d 143     -28.787 -12.494  62.655  0.00  0.00     0.103 C 
ATOM     34  O62 IDY d 143     -26.710 -10.107  62.900  0.00  0.00    -0.646 OA
ATOM     35  O2  IDY d 143     -26.553 -14.956  63.405  0.00  0.00    -0.244 OA
ATOM     36  O61 IDY d 143     -28.740  -9.276  63.393  0.00  0.00    -0.646 OA
ATOM     37  C3  IDY d 143     -28.792 -13.997  62.991  0.00  0.00     0.094 C 
ATOM     38  C7  IDY d 143     -29.490 -12.891  65.825  0.00  0.00     0.007 C 
ATOM     39  O3  IDY d 143     -30.062 -14.313  63.572  0.00  0.00    -0.390 OA
ATOM     40  C2  IDY d 143     -27.758 -14.474  64.016  0.00  0.00     0.134 C 
ATOM     41  OS3 IDY d 143     -25.450 -15.441  65.630  0.00  0.00    -0.572 OA
ATOM     42  O4  IDY d 143     -28.086 -12.645  61.504  0.00  0.00    -0.348 OA
ATOM     43  C1  IDY d 143     -27.452 -13.413  65.081  0.00  0.00     0.160 C 
ATOM     44  C6  IDY d 143     -27.918 -10.247  63.319  0.00  0.00     0.206 C 
ATOM     45  OS1 IDY d 143     -24.201 -15.708  63.514  0.00  0.00    -0.572 OA
ATOM     46  O5  IDY d 143     -27.293 -12.081  64.578  0.00  0.00    -0.340 OA
ATOM     47  OS2 IDY d 143     -26.005 -17.210  64.071  0.00  0.00    -0.572 OA
ATOM     48  H   IDY d 143     -29.288 -11.502  64.421  0.00  0.00     0.104 H 
ATOM     49  H   IDY d 143     -29.679 -11.924  62.502  0.00  0.00     0.092 H 
ATOM     50  H   IDY d 143     -28.566 -14.478  62.062  0.00  0.00     0.091 H 
ATOM     51  H   IDY d 143     -30.129 -12.958  66.680  0.00  0.00     0.066 H 
ATOM     52  H   IDY d 143     -29.944 -13.400  65.000  0.00  0.00     0.066 H 
ATOM     53  H   IDY d 143     -29.341 -11.862  65.571  0.00  0.00     0.066 H 
ATOM     54  H   IDY d 143     -30.166 -13.827  64.405  0.00  0.00     0.210 HD
ATOM     55  H   IDY d 143     -28.211 -15.305  64.515  0.00  0.00     0.097 H 
ATOM     56  H   IDY d 143     -26.513 -13.720  65.491  0.00  0.00     0.133 H 
ENDROOT
TORSDOF 17
ENDMDL
MODEL 47
REMARK VINA RESULT:      -5.2      2.745      5.191
REMARK  0 active torsions:
REMARK  status: ('A' for Active; 'I' for Inactive)
REMARK       I    between atoms: C1_1  and  O4_26 
REMARK       I    between atoms: C2_2  and  N_3 
REMARK       I    between atoms: N_3  and  S1_23 
REMARK       I    between atoms: O2S_4  and  S1_23 
REMARK       I    between atoms: S_5  and  O2_15 
REMARK       I    between atoms: O1_6  and  C1_27 
REMARK       I    between atoms: O1_6  and  C7_20 
REMARK       I    between atoms: C5_7  and  C6_28 
REMARK       I    between atoms: O3_8  and  C3_9 
REMARK       I    between atoms: C4_10  and  O4_26 
REMARK       I    between atoms: C4_11  and  O4_14 
REMARK       I    between atoms: O2_15  and  C2_22 
REMARK       I    between atoms: O6_17  and  C6_18 
REMARK       I    between atoms: C6_18  and  C5_29 
REMARK       I    between atoms: C3_19  and  O3_21 
REMARK       I    between atoms: S1_23  and  O1S_30 
REMARK       I    between atoms: S1_23  and  O3S_25 
ROOT
ATOM      1  C1  GNS d 142     -28.371 -12.414  59.359  0.00  0.00     0.150 C 
ATOM      2  C2  GNS d 142     -26.956 -12.160  59.865  0.00  0.00     0.081 C 
ATOM      3  N   GNS d 142     -26.308 -11.158  59.041  0.00  0.00    -0.210 NA
ATOM      4  O2S GNS d 142     -24.832 -10.501  60.893  0.00  0.00    -0.296 OA
ATOM      5  O3  GNS d 142     -24.931 -13.235  60.561  0.00  0.00    -0.391 OA
ATOM      6  C3  GNS d 142     -26.138 -13.445  59.863  0.00  0.00     0.083 C 
ATOM      7  C4  GNS d 142     -26.910 -14.586  60.517  0.00  0.00     0.089 C 
ATOM      8  O5  GNS d 142     -28.973 -13.426  60.137  0.00  0.00    -0.349 OA
ATOM      9  O4  GNS d 142     -26.241 -15.803  60.278  0.00  0.00    -0.390 OA
ATOM     10  O6  GNS d 142     -29.985 -15.162  61.628  0.00  0.00    -0.398 OA
ATOM     11  C6  GNS d 142     -29.127 -15.755  60.679  0.00  0.00     0.043 C 
ATOM     12  S1  GNS d 142     -25.517  -9.949  59.727  0.00  0.00     0.156 S 
ATOM     13  O3S GNS d 142     -24.584  -9.435  58.729  0.00  0.00    -0.296 OA
ATOM     14  C5  GNS d 142     -28.328 -14.669  59.967  0.00  0.00     0.089 C 
ATOM     15  O1S GNS d 142     -26.514  -8.952  60.105  0.00  0.00    -0.296 OA
ATOM     16  H   GNS d 142     -28.944 -11.515  59.438  0.00  0.00     0.131 H 
ATOM     17  H   GNS d 142     -27.019 -11.804  60.872  0.00  0.00     0.076 H 
ATOM     18  H   GNS d 142     -27.034 -10.742  58.458  0.00  0.00     0.140 HD
ATOM     19  H   GNS d 142     -25.487 -10.829  61.527  0.00  0.00     0.231 HD
ATOM     20  H   GNS d 142     -24.439 -12.509  60.146  0.00  0.00     0.210 HD
ATOM     21  H   GNS d 142     -25.932 -13.714  58.848  0.00  0.00     0.089 H 
ATOM     22  H   GNS d 142     -26.964 -14.399  61.569  0.00  0.00     0.091 H 
ATOM     23  H   GNS d 142     -26.196 -15.965  59.322  0.00  0.00     0.210 HD
ATOM     24  H   GNS d 142     -30.493 -15.853  62.080  0.00  0.00     0.209 HD
ATOM     25  H   GNS d 142     -29.707 -16.298  59.963  0.00  0.00     0.078 H 
ATOM     26  H   GNS d 142     -28.455 -16.424  61.174  0.00  0.00     0.078 H 
ATOM     27  H   GNS d 142     -23.939 -10.123  58.504  0.00  0.00     0.231 HD
ATOM     28  H   GNS d 142     -28.274 -14.914  58.927  0.00  0.00     0.090 H 
ATOM     29  H   GNS d 142     -27.114  -9.329  60.768  0.00  0.00     0.231 HD
ATOM     30  S   IDY d 143     -24.083 -11.762  55.855  0.00  0.00     0.252 S 
ATOM     31  O1  IDY d 143     -27.360 -13.139  53.490  0.00  0.00    -0.363 OA
ATOM     32  C5  IDY d 143     -28.607 -14.199  55.853  0.00  0.00     0.152 C 
ATOM     33  C4  IDY d 143     -28.752 -12.947  56.731  0.00  0.00     0.103 C 
ATOM     34  O62 IDY d 143     -28.036 -15.962  57.414  0.00  0.00    -0.646 OA
ATOM     35  O2  IDY d 143     -25.525 -11.907  56.388  0.00  0.00    -0.244 OA
ATOM     36  O61 IDY d 143     -30.062 -15.964  56.441  0.00  0.00    -0.646 OA
ATOM     37  C3  IDY d 143     -27.983 -11.711  56.228  0.00  0.00     0.094 C 
ATOM     38  C7  IDY d 143     -28.502 -13.084  53.473  0.00  0.00     0.007 C 
ATOM     39  O3  IDY d 143     -28.803 -11.048  55.258  0.00  0.00    -0.390 OA
ATOM     40  C2  IDY d 143     -26.656 -11.976  55.509  0.00  0.00     0.134 C 
ATOM     41  OS3 IDY d 143     -23.882 -12.488  54.554  0.00  0.00    -0.572 OA
ATOM     42  O4  IDY d 143     -28.323 -12.825  58.011  0.00  0.00    -0.348 OA
ATOM     43  C1  IDY d 143     -26.666 -13.294  54.723  0.00  0.00     0.160 C 
ATOM     44  C6  IDY d 143     -28.918 -15.439  56.639  0.00  0.00     0.206 C 
ATOM     45  OS1 IDY d 143     -23.132 -12.256  56.897  0.00  0.00    -0.572 OA
ATOM     46  O5  IDY d 143     -27.258 -14.402  55.409  0.00  0.00    -0.340 OA
ATOM     47  OS2 IDY d 143     -23.860 -10.327  55.647  0.00  0.00    -0.572 OA
ATOM     48  H   IDY d 143     -29.275 -14.039  55.031  0.00  0.00     0.104 H 
ATOM     49  H   IDY d 143     -29.818 -13.037  56.678  0.00  0.00     0.092 H 
ATOM     50  H   IDY d 143     -27.760 -11.157  57.116  0.00  0.00     0.091 H 
ATOM     51  H   IDY d 143     -28.838 -12.969  52.464  0.00  0.00     0.066 H 
ATOM     52  H   IDY d 143     -28.827 -12.247  54.055  0.00  0.00     0.066 H 
ATOM     53  H   IDY d 143     -28.909 -13.984  53.884  0.00  0.00     0.066 H 
ATOM     54  H   IDY d 143     -28.944 -11.634  54.499  0.00  0.00     0.210 HD
ATOM     55  H   IDY d 143     -26.551 -11.183  54.799  0.00  0.00     0.097 H 
ATOM     56  H   IDY d 143     -25.630 -13.517  54.578  0.00  0.00     0.133 H 
ENDROOT
TORSDOF 17
ENDMDL
MODEL 48
REMARK VINA RESULT:      -5.2      2.170      3.257
REMARK  0 active torsions:
REMARK  status: ('A' for Active; 'I' for Inactive)
REMARK       I    between atoms: C1_1  and  O4_26 
REMARK       I    between atoms: C2_2  and  N_3 
REMARK       I    between atoms: N_3  and  S1_23 
REMARK       I    between atoms: O2S_4  and  S1_23 
REMARK       I    between atoms: S_5  and  O2_15 
REMARK       I    between atoms: O1_6  and  C1_27 
REMARK       I    between atoms: O1_6  and  C7_20 
REMARK       I    between atoms: C5_7  and  C6_28 
REMARK       I    between atoms: O3_8  and  C3_9 
REMARK       I    between atoms: C4_10  and  O4_26 
REMARK       I    between atoms: C4_11  and  O4_14 
REMARK       I    between atoms: O2_15  and  C2_22 
REMARK       I    between atoms: O6_17  and  C6_18 
REMARK       I    between atoms: C6_18  and  C5_29 
REMARK       I    between atoms: C3_19  and  O3_21 
REMARK       I    between atoms: S1_23  and  O1S_30 
REMARK       I    between atoms: S1_23  and  O3S_25 
ROOT
ATOM      1  C1  GNS d 142     -27.554 -11.641  58.871  0.00  0.00     0.150 C 
ATOM      2  C2  GNS d 142     -26.078 -11.266  58.843  0.00  0.00     0.081 C 
ATOM      3  N   GNS d 142     -25.348 -12.187  57.992  0.00  0.00    -0.210 NA
ATOM      4  O2S GNS d 142     -23.625 -10.496  57.533  0.00  0.00    -0.296 OA
ATOM      5  O3  GNS d 142     -24.204 -10.688  60.221  0.00  0.00    -0.391 OA
ATOM      6  C3  GNS d 142     -25.486 -11.274  60.247  0.00  0.00     0.083 C 
ATOM      7  C4  GNS d 142     -26.375 -10.505  61.218  0.00  0.00     0.089 C 
ATOM      8  O5  GNS d 142     -28.243 -10.769  59.740  0.00  0.00    -0.349 OA
ATOM      9  O4  GNS d 142     -25.941 -10.740  62.539  0.00  0.00    -0.390 OA
ATOM     10  O6  GNS d 142     -29.392  -9.119  61.230  0.00  0.00    -0.398 OA
ATOM     11  C6  GNS d 142     -28.731 -10.106  61.990  0.00  0.00     0.043 C 
ATOM     12  S1  GNS d 142     -24.310 -11.626  56.912  0.00  0.00     0.156 S 
ATOM     13  O3S GNS d 142     -23.398 -12.722  56.596  0.00  0.00    -0.296 OA
ATOM     14  C5  GNS d 142     -27.831 -10.932  61.079  0.00  0.00     0.089 C 
ATOM     15  O1S GNS d 142     -25.091 -11.216  55.749  0.00  0.00    -0.296 OA
ATOM     16  H   GNS d 142     -27.961 -11.558  57.885  0.00  0.00     0.131 H 
ATOM     17  H   GNS d 142     -25.990 -10.275  58.447  0.00  0.00     0.076 H 
ATOM     18  H   GNS d 142     -26.044 -12.728  57.479  0.00  0.00     0.140 HD
ATOM     19  H   GNS d 142     -24.267  -9.795  57.725  0.00  0.00     0.231 HD
ATOM     20  H   GNS d 142     -23.638 -11.177  59.603  0.00  0.00     0.210 HD
ATOM     21  H   GNS d 142     -25.419 -12.289  60.580  0.00  0.00     0.089 H 
ATOM     22  H   GNS d 142     -26.304  -9.462  60.990  0.00  0.00     0.091 H 
ATOM     23  H   GNS d 142     -26.009 -11.688  62.737  0.00  0.00     0.210 HD
ATOM     24  H   GNS d 142     -29.965  -8.594  61.810  0.00  0.00     0.209 HD
ATOM     25  H   GNS d 142     -29.455 -10.746  62.450  0.00  0.00     0.078 H 
ATOM     26  H   GNS d 142     -28.139  -9.637  62.747  0.00  0.00     0.078 H 
ATOM     27  H   GNS d 142     -22.898 -12.965  57.391  0.00  0.00     0.231 HD
ATOM     28  H   GNS d 142     -27.910 -11.960  61.364  0.00  0.00     0.090 H 
ATOM     29  H   GNS d 142     -25.683 -10.489  55.997  0.00  0.00     0.231 HD
ATOM     30  S   IDY d 143     -23.546 -15.512  59.068  0.00  0.00     0.252 S 
ATOM     31  O1  IDY d 143     -27.204 -17.532  59.950  0.00  0.00    -0.363 OA
ATOM     32  C5  IDY d 143     -28.394 -15.027  60.705  0.00  0.00     0.152 C 
ATOM     33  C4  IDY d 143     -28.251 -14.200  59.418  0.00  0.00     0.103 C 
ATOM     34  O62 IDY d 143     -27.985 -13.437  62.486  0.00  0.00    -0.646 OA
ATOM     35  O2  IDY d 143     -24.940 -14.857  58.950  0.00  0.00    -0.244 OA
ATOM     36  O61 IDY d 143     -30.062 -14.238  62.178  0.00  0.00    -0.646 OA
ATOM     37  C3  IDY d 143     -27.336 -14.823  58.347  0.00  0.00     0.094 C 
ATOM     38  C7  IDY d 143     -28.317 -17.458  59.703  0.00  0.00     0.007 C 
ATOM     39  O3  IDY d 143     -28.117 -15.753  57.587  0.00  0.00    -0.390 OA
ATOM     40  C2  IDY d 143     -26.140 -15.636  58.856  0.00  0.00     0.134 C 
ATOM     41  OS3 IDY d 143     -23.585 -16.790  59.861  0.00  0.00    -0.572 OA
ATOM     42  O4  IDY d 143     -27.695 -12.967  59.327  0.00  0.00    -0.348 OA
ATOM     43  C1  IDY d 143     -26.438 -16.355  60.178  0.00  0.00     0.160 C 
ATOM     44  C6  IDY d 143     -28.834 -14.161  61.847  0.00  0.00     0.206 C 
ATOM     45  OS1 IDY d 143     -22.601 -14.530  59.681  0.00  0.00    -0.572 OA
ATOM     46  O5  IDY d 143     -27.142 -15.571  61.148  0.00  0.00    -0.340 OA
ATOM     47  OS2 IDY d 143     -23.108 -15.807  57.699  0.00  0.00    -0.572 OA
ATOM     48  H   IDY d 143     -29.096 -15.798  60.462  0.00  0.00     0.104 H 
ATOM     49  H   IDY d 143     -29.316 -14.161  59.328  0.00  0.00     0.092 H 
ATOM     50  H   IDY d 143     -26.945 -13.984  57.809  0.00  0.00     0.091 H 
ATOM     51  H   IDY d 143     -28.719 -18.440  59.566  0.00  0.00     0.066 H 
ATOM     52  H   IDY d 143     -28.446 -16.892  58.804  0.00  0.00     0.066 H 
ATOM     53  H   IDY d 143     -28.829 -16.973  60.507  0.00  0.00     0.066 H 
ATOM     54  H   IDY d 143     -28.420 -16.469  58.166  0.00  0.00     0.210 HD
ATOM     55  H   IDY d 143     -25.969 -16.389  58.116  0.00  0.00     0.097 H 
ATOM     56  H   IDY d 143     -25.470 -16.573  60.578  0.00  0.00     0.133 H 
ENDROOT
TORSDOF 17
ENDMDL
MODEL 49
REMARK VINA RESULT:      -5.2      2.486      4.175
REMARK  0 active torsions:
REMARK  status: ('A' for Active; 'I' for Inactive)
REMARK       I    between atoms: C1_1  and  O4_26 
REMARK       I    between atoms: C2_2  and  N_3 
REMARK       I    between atoms: N_3  and  S1_23 
REMARK       I    between atoms: O2S_4  and  S1_23 
REMARK       I    between atoms: S_5  and  O2_15 
REMARK       I    between atoms: O1_6  and  C1_27 
REMARK       I    between atoms: O1_6  and  C7_20 
REMARK       I    between atoms: C5_7  and  C6_28 
REMARK       I    between atoms: O3_8  and  C3_9 
REMARK       I    between atoms: C4_10  and  O4_26 
REMARK       I    between atoms: C4_11  and  O4_14 
REMARK       I    between atoms: O2_15  and  C2_22 
REMARK       I    between atoms: O6_17  and  C6_18 
REMARK       I    between atoms: C6_18  and  C5_29 
REMARK       I    between atoms: C3_19  and  O3_21 
REMARK       I    between atoms: S1_23  and  O1S_30 
REMARK       I    between atoms: S1_23  and  O3S_25 
ROOT
ATOM      1  C1  GNS d 142     -26.066 -13.007  58.083  0.00  0.00     0.150 C 
ATOM      2  C2  GNS d 142     -24.751 -12.991  57.313  0.00  0.00     0.081 C 
ATOM      3  N   GNS d 142     -24.298 -14.349  57.080  0.00  0.00    -0.210 NA
ATOM      4  O2S GNS d 142     -23.051 -13.655  55.079  0.00  0.00    -0.296 OA
ATOM      5  O3  GNS d 142     -22.571 -12.000  57.229  0.00  0.00    -0.391 OA
ATOM      6  C3  GNS d 142     -23.685 -12.208  58.069  0.00  0.00     0.083 C 
ATOM      7  C4  GNS d 142     -24.226 -10.862  58.538  0.00  0.00     0.089 C 
ATOM      8  O5  GNS d 142     -26.470 -11.681  58.348  0.00  0.00    -0.349 OA
ATOM      9  O4  GNS d 142     -23.313 -10.277  59.437  0.00  0.00    -0.390 OA
ATOM     10  O6  GNS d 142     -27.150  -9.297  58.688  0.00  0.00    -0.398 OA
ATOM     11  C6  GNS d 142     -26.157  -9.673  59.616  0.00  0.00     0.043 C 
ATOM     12  S1  GNS d 142     -23.796 -14.786  55.624  0.00  0.00     0.156 S 
ATOM     13  O3S GNS d 142     -22.958 -15.968  55.805  0.00  0.00    -0.296 OA
ATOM     14  C5  GNS d 142     -25.578 -11.026  59.221  0.00  0.00     0.089 C 
ATOM     15  O1S GNS d 142     -24.991 -15.080  54.837  0.00  0.00    -0.296 OA
ATOM     16  H   GNS d 142     -26.815 -13.500  57.500  0.00  0.00     0.131 H 
ATOM     17  H   GNS d 142     -24.919 -12.509  56.373  0.00  0.00     0.076 H 
ATOM     18  H   GNS d 142     -25.074 -14.965  57.321  0.00  0.00     0.140 HD
ATOM     19  H   GNS d 142     -23.645 -12.896  54.977  0.00  0.00     0.231 HD
ATOM     20  H   GNS d 142     -22.227 -12.856  56.930  0.00  0.00     0.210 HD
ATOM     21  H   GNS d 142     -23.395 -12.775  58.929  0.00  0.00     0.089 H 
ATOM     22  H   GNS d 142     -24.352 -10.231  57.683  0.00  0.00     0.091 H 
ATOM     23  H   GNS d 142     -23.204 -10.855  60.209  0.00  0.00     0.210 HD
ATOM     24  H   GNS d 142     -27.519  -8.436  58.939  0.00  0.00     0.209 HD
ATOM     25  H   GNS d 142     -26.589  -9.741  60.592  0.00  0.00     0.078 H 
ATOM     26  H   GNS d 142     -25.378  -8.940  59.622  0.00  0.00     0.078 H 
ATOM     27  H   GNS d 142     -22.178 -15.733  56.330  0.00  0.00     0.231 HD
ATOM     28  H   GNS d 142     -25.440 -11.609  60.107  0.00  0.00     0.090 H 
ATOM     29  H   GNS d 142     -25.520 -14.274  54.739  0.00  0.00     0.231 HD
ATOM     30  S   IDY d 143     -21.893 -16.484  59.343  0.00  0.00     0.252 S 
ATOM     31  O1  IDY d 143     -24.735 -16.831  62.511  0.00  0.00    -0.363 OA
ATOM     32  C5  IDY d 143     -25.813 -14.260  61.812  0.00  0.00     0.152 C 
ATOM     33  C4  IDY d 143     -26.243 -14.475  60.352  0.00  0.00     0.103 C 
ATOM     34  O62 IDY d 143     -24.941 -12.000  61.852  0.00  0.00    -0.646 OA
ATOM     35  O2  IDY d 143     -23.291 -15.827  59.318  0.00  0.00    -0.244 OA
ATOM     36  O61 IDY d 143     -26.890 -12.449  62.877  0.00  0.00    -0.646 OA
ATOM     37  C3  IDY d 143     -25.729 -15.778  59.713  0.00  0.00     0.094 C 
ATOM     38  C7  IDY d 143     -25.862 -16.743  62.678  0.00  0.00     0.007 C 
ATOM     39  O3  IDY d 143     -26.636 -16.829  60.068  0.00  0.00    -0.390 OA
ATOM     40  C2  IDY d 143     -24.353 -16.272  60.173  0.00  0.00     0.134 C 
ATOM     41  OS3 IDY d 143     -21.504 -16.940  60.722  0.00  0.00    -0.572 OA
ATOM     42  O4  IDY d 143     -25.890 -13.695  59.301  0.00  0.00    -0.348 OA
ATOM     43  C1  IDY d 143     -24.065 -15.927  61.640  0.00  0.00     0.160 C 
ATOM     44  C6  IDY d 143     -25.886 -12.807  62.179  0.00  0.00     0.206 C 
ATOM     45  OS1 IDY d 143     -20.895 -15.514  58.798  0.00  0.00    -0.572 OA
ATOM     46  O5  IDY d 143     -24.437 -14.602  62.033  0.00  0.00    -0.340 OA
ATOM     47  OS2 IDY d 143     -21.965 -17.648  58.452  0.00  0.00    -0.572 OA
ATOM     48  H   IDY d 143     -26.472 -14.876  62.388  0.00  0.00     0.104 H 
ATOM     49  H   IDY d 143     -27.264 -14.322  60.633  0.00  0.00     0.092 H 
ATOM     50  H   IDY d 143     -25.655 -15.552  58.669  0.00  0.00     0.091 H 
ATOM     51  H   IDY d 143     -26.182 -17.503  63.360  0.00  0.00     0.066 H 
ATOM     52  H   IDY d 143     -26.372 -16.863  61.745  0.00  0.00     0.066 H 
ATOM     53  H   IDY d 143     -26.088 -15.781  63.087  0.00  0.00     0.066 H 
ATOM     54  H   IDY d 143     -26.628 -16.952  61.029  0.00  0.00     0.210 HD
ATOM     55  H   IDY d 143     -24.392 -17.338  60.098  0.00  0.00     0.097 H 
ATOM     56  H   IDY d 143     -23.001 -16.003  61.719  0.00  0.00     0.133 H 
ENDROOT
TORSDOF 17
ENDMDL
MODEL 50
REMARK VINA RESULT:      -5.1      1.817      5.226
REMARK  0 active torsions:
REMARK  status: ('A' for Active; 'I' for Inactive)
REMARK       I    between atoms: C1_1  and  O4_26 
REMARK       I    between atoms: C2_2  and  N_3 
REMARK       I    between atoms: N_3  and  S1_23 
REMARK       I    between atoms: O2S_4  and  S1_23 
REMARK       I    between atoms: S_5  and  O2_15 
REMARK       I    between atoms: O1_6  and  C1_27 
REMARK       I    between atoms: O1_6  and  C7_20 
REMARK       I    between atoms: C5_7  and  C6_28 
REMARK       I    between atoms: O3_8  and  C3_9 
REMARK       I    between atoms: C4_10  and  O4_26 
REMARK       I    between atoms: C4_11  and  O4_14 
REMARK       I    between atoms: O2_15  and  C2_22 
REMARK       I    between atoms: O6_17  and  C6_18 
REMARK       I    between atoms: C6_18  and  C5_29 
REMARK       I    between atoms: C3_19  and  O3_21 
REMARK       I    between atoms: S1_23  and  O1S_30 
REMARK       I    between atoms: S1_23  and  O3S_25 
ROOT
ATOM      1  C1  GNS d 142     -25.440 -11.847  61.376  0.00  0.00     0.150 C 
ATOM      2  C2  GNS d 142     -24.863 -13.044  60.631  0.00  0.00     0.081 C 
ATOM      3  N   GNS d 142     -24.713 -12.727  59.224  0.00  0.00    -0.210 NA
ATOM      4  O2S GNS d 142     -22.901 -14.369  58.983  0.00  0.00    -0.296 OA
ATOM      5  O3  GNS d 142     -25.078 -15.410  60.314  0.00  0.00    -0.391 OA
ATOM      6  C3  GNS d 142     -25.753 -14.270  60.796  0.00  0.00     0.083 C 
ATOM      7  C4  GNS d 142     -26.125 -14.481  62.260  0.00  0.00     0.089 C 
ATOM      8  O5  GNS d 142     -25.629 -12.184  62.732  0.00  0.00    -0.349 OA
ATOM      9  O4  GNS d 142     -27.138 -15.456  62.351  0.00  0.00    -0.390 OA
ATOM     10  O6  GNS d 142     -25.841 -12.847  65.136  0.00  0.00    -0.398 OA
ATOM     11  C6  GNS d 142     -26.905 -13.373  64.374  0.00  0.00     0.043 C 
ATOM     12  S1  GNS d 142     -23.349 -13.080  58.466  0.00  0.00     0.156 S 
ATOM     13  O3S GNS d 142     -23.660 -13.131  57.040  0.00  0.00    -0.296 OA
ATOM     14  C5  GNS d 142     -26.612 -13.182  62.891  0.00  0.00     0.089 C 
ATOM     15  O1S GNS d 142     -22.404 -12.011  58.778  0.00  0.00    -0.296 OA
ATOM     16  H   GNS d 142     -24.763 -11.022  61.303  0.00  0.00     0.131 H 
ATOM     17  H   GNS d 142     -23.903 -13.267  61.047  0.00  0.00     0.076 H 
ATOM     18  H   GNS d 142     -24.849 -11.720  59.132  0.00  0.00     0.140 HD
ATOM     19  H   GNS d 142     -22.707 -14.288  59.929  0.00  0.00     0.231 HD
ATOM     20  H   GNS d 142     -24.841 -15.276  59.383  0.00  0.00     0.210 HD
ATOM     21  H   GNS d 142     -26.652 -14.113  60.238  0.00  0.00     0.089 H 
ATOM     22  H   GNS d 142     -25.254 -14.808  62.787  0.00  0.00     0.091 H 
ATOM     23  H   GNS d 142     -27.924 -15.151  61.870  0.00  0.00     0.210 HD
ATOM     24  H   GNS d 142     -26.028 -12.968  66.080  0.00  0.00     0.209 HD
ATOM     25  H   GNS d 142     -27.811 -12.864  64.628  0.00  0.00     0.078 H 
ATOM     26  H   GNS d 142     -27.012 -14.417  64.585  0.00  0.00     0.078 H 
ATOM     27  H   GNS d 142     -24.288 -13.851  56.873  0.00  0.00     0.231 HD
ATOM     28  H   GNS d 142     -27.516 -12.887  62.402  0.00  0.00     0.090 H 
ATOM     29  H   GNS d 142     -22.222 -12.008  59.731  0.00  0.00     0.231 HD
ATOM     30  S   IDY d 143     -27.319 -13.347  56.345  0.00  0.00     0.252 S 
ATOM     31  O1  IDY d 143     -30.056 -10.419  57.818  0.00  0.00    -0.363 OA
ATOM     32  C5  IDY d 143     -29.181 -10.966  60.501  0.00  0.00     0.152 C 
ATOM     33  C4  IDY d 143     -27.678 -10.657  60.421  0.00  0.00     0.103 C 
ATOM     34  O62 IDY d 143     -29.318 -12.898  61.957  0.00  0.00    -0.646 OA
ATOM     35  O2  IDY d 143     -27.089 -12.528  57.634  0.00  0.00    -0.244 OA
ATOM     36  O61 IDY d 143     -30.062 -10.908  62.691  0.00  0.00    -0.646 OA
ATOM     37  C3  IDY d 143     -27.133 -10.465  58.993  0.00  0.00     0.094 C 
ATOM     38  C7  IDY d 143     -30.061  -9.502  58.501  0.00  0.00     0.007 C 
ATOM     39  O3  IDY d 143     -27.368  -9.104  58.613  0.00  0.00    -0.390 OA
ATOM     40  C2  IDY d 143     -27.789 -11.303  57.891  0.00  0.00     0.134 C 
ATOM     41  OS3 IDY d 143     -28.745 -13.273  55.872  0.00  0.00    -0.572 OA
ATOM     42  O4  IDY d 143     -26.679 -11.488  60.805  0.00  0.00    -0.348 OA
ATOM     43  C1  IDY d 143     -29.278 -11.562  58.156  0.00  0.00     0.160 C 
ATOM     44  C6  IDY d 143     -29.517 -11.638  61.800  0.00  0.00     0.206 C 
ATOM     45  OS1 IDY d 143     -26.910 -14.763  56.594  0.00  0.00    -0.572 OA
ATOM     46  O5  IDY d 143     -29.599 -11.912  59.507  0.00  0.00    -0.340 OA
ATOM     47  OS2 IDY d 143     -26.441 -12.768  55.322  0.00  0.00    -0.572 OA
ATOM     48  H   IDY d 143     -29.665 -10.020  60.375  0.00  0.00     0.104 H 
ATOM     49  H   IDY d 143     -27.810  -9.851  61.112  0.00  0.00     0.092 H 
ATOM     50  H   IDY d 143     -26.108 -10.767  59.056  0.00  0.00     0.091 H 
ATOM     51  H   IDY d 143     -30.699  -8.751  58.084  0.00  0.00     0.066 H 
ATOM     52  H   IDY d 143     -29.067  -9.117  58.588  0.00  0.00     0.066 H 
ATOM     53  H   IDY d 143     -30.423  -9.780  59.468  0.00  0.00     0.066 H 
ATOM     54  H   IDY d 143     -28.323  -8.936  58.586  0.00  0.00     0.210 HD
ATOM     55  H   IDY d 143     -27.723 -10.711  57.002  0.00  0.00     0.097 H 
ATOM     56  H   IDY d 143     -29.509 -12.405  57.538  0.00  0.00     0.133 H 
ENDROOT
TORSDOF 17
ENDMDL
MODEL 51
REMARK VINA RESULT:      -5.1      2.805      6.362
REMARK  0 active torsions:
REMARK  status: ('A' for Active; 'I' for Inactive)
REMARK       I    between atoms: C1_1  and  O4_26 
REMARK       I    between atoms: C2_2  and  N_3 
REMARK       I    between atoms: N_3  and  S1_23 
REMARK       I    between atoms: O2S_4  and  S1_23 
REMARK       I    between atoms: S_5  and  O2_15 
REMARK       I    between atoms: O1_6  and  C1_27 
REMARK       I    between atoms: O1_6  and  C7_20 
REMARK       I    between atoms: C5_7  and  C6_28 
REMARK       I    between atoms: O3_8  and  C3_9 
REMARK       I    between atoms: C4_10  and  O4_26 
REMARK       I    between atoms: C4_11  and  O4_14 
REMARK       I    between atoms: O2_15  and  C2_22 
REMARK       I    between atoms: O6_17  and  C6_18 
REMARK       I    between atoms: C6_18  and  C5_29 
REMARK       I    between atoms: C3_19  and  O3_21 
REMARK       I    between atoms: S1_23  and  O1S_30 
REMARK       I    between atoms: S1_23  and  O3S_25 
ROOT
ATOM      1  C1  GNS d 142     -22.619 -15.443  59.086  0.00  0.00     0.150 C 
ATOM      2  C2  GNS d 142     -22.743 -16.080  57.708  0.00  0.00     0.081 C 
ATOM      3  N   GNS d 142     -22.468 -15.094  56.680  0.00  0.00    -0.210 NA
ATOM      4  O2S GNS d 142     -21.751 -16.841  55.107  0.00  0.00    -0.296 OA
ATOM      5  O3  GNS d 142     -24.138 -17.463  56.336  0.00  0.00    -0.391 OA
ATOM      6  C3  GNS d 142     -24.132 -16.672  57.503  0.00  0.00     0.083 C 
ATOM      7  C4  GNS d 142     -24.542 -17.527  58.697  0.00  0.00     0.089 C 
ATOM      8  O5  GNS d 142     -22.938 -16.398  60.074  0.00  0.00    -0.349 OA
ATOM      9  O4  GNS d 142     -25.910 -17.850  58.595  0.00  0.00    -0.390 OA
ATOM     10  O6  GNS d 142     -23.430 -18.185  61.755  0.00  0.00    -0.398 OA
ATOM     11  C6  GNS d 142     -24.623 -17.674  61.203  0.00  0.00     0.043 C 
ATOM     12  S1  GNS d 142     -21.484 -15.452  55.471  0.00  0.00     0.156 S 
ATOM     13  O3S GNS d 142     -21.795 -14.526  54.386  0.00  0.00    -0.296 OA
ATOM     14  C5  GNS d 142     -24.291 -16.790  60.007  0.00  0.00     0.089 C 
ATOM     15  O1S GNS d 142     -20.123 -15.272  55.967  0.00  0.00    -0.296 OA
ATOM     16  H   GNS d 142     -21.617 -15.099  59.231  0.00  0.00     0.131 H 
ATOM     17  H   GNS d 142     -22.027 -16.871  57.638  0.00  0.00     0.076 H 
ATOM     18  H   GNS d 142     -22.073 -14.280  57.151  0.00  0.00     0.140 HD
ATOM     19  H   GNS d 142     -21.531 -17.418  55.855  0.00  0.00     0.231 HD
ATOM     20  H   GNS d 142     -23.877 -16.920  55.575  0.00  0.00     0.210 HD
ATOM     21  H   GNS d 142     -24.831 -15.868  57.405  0.00  0.00     0.089 H 
ATOM     22  H   GNS d 142     -23.953 -18.420  58.692  0.00  0.00     0.091 H 
ATOM     23  H   GNS d 142     -26.436 -17.035  58.600  0.00  0.00     0.210 HD
ATOM     24  H   GNS d 142     -23.642 -18.748  62.516  0.00  0.00     0.209 HD
ATOM     25  H   GNS d 142     -25.139 -17.096  61.941  0.00  0.00     0.078 H 
ATOM     26  H   GNS d 142     -25.245 -18.484  60.885  0.00  0.00     0.078 H 
ATOM     27  H   GNS d 142     -22.704 -14.676  54.084  0.00  0.00     0.231 HD
ATOM     28  H   GNS d 142     -24.923 -15.927  60.035  0.00  0.00     0.090 H 
ATOM     29  H   GNS d 142     -19.954 -15.902  56.684  0.00  0.00     0.231 HD
ATOM     30  S   IDY d 143     -25.060 -12.778  54.840  0.00  0.00     0.252 S 
ATOM     31  O1  IDY d 143     -25.903 -10.477  58.337  0.00  0.00    -0.363 OA
ATOM     32  C5  IDY d 143     -25.398 -12.790  59.968  0.00  0.00     0.152 C 
ATOM     33  C4  IDY d 143     -23.949 -13.139  59.595  0.00  0.00     0.103 C 
ATOM     34  O62 IDY d 143     -26.484 -14.940  60.224  0.00  0.00    -0.646 OA
ATOM     35  O2  IDY d 143     -24.429 -13.054  56.222  0.00  0.00    -0.244 OA
ATOM     36  O61 IDY d 143     -26.100 -13.675  62.041  0.00  0.00    -0.646 OA
ATOM     37  C3  IDY d 143     -23.399 -12.389  58.367  0.00  0.00     0.094 C 
ATOM     38  C7  IDY d 143     -25.431 -10.233  59.349  0.00  0.00     0.007 C 
ATOM     39  O3  IDY d 143     -22.911 -11.117  58.811  0.00  0.00    -0.390 OA
ATOM     40  C2  IDY d 143     -24.404 -12.062  57.257  0.00  0.00     0.134 C 
ATOM     41  OS3 IDY d 143     -26.254 -11.868  54.932  0.00  0.00    -0.572 OA
ATOM     42  O4  IDY d 143     -23.508 -14.353  59.183  0.00  0.00    -0.348 OA
ATOM     43  C1  IDY d 143     -25.813 -11.792  57.800  0.00  0.00     0.160 C 
ATOM     44  C6  IDY d 143     -26.014 -13.885  60.787  0.00  0.00     0.206 C 
ATOM     45  OS1 IDY d 143     -25.427 -14.082  54.208  0.00  0.00    -0.572 OA
ATOM     46  O5  IDY d 143     -26.252 -12.698  58.818  0.00  0.00    -0.340 OA
ATOM     47  OS2 IDY d 143     -24.021 -12.131  54.031  0.00  0.00    -0.572 OA
ATOM     48  H   IDY d 143     -25.333 -11.857  60.487  0.00  0.00     0.104 H 
ATOM     49  H   IDY d 143     -23.643 -12.926  60.598  0.00  0.00     0.092 H 
ATOM     50  H   IDY d 143     -22.671 -13.055  57.952  0.00  0.00     0.091 H 
ATOM     51  H   IDY d 143     -25.601  -9.203  59.583  0.00  0.00     0.066 H 
ATOM     52  H   IDY d 143     -24.378 -10.420  59.307  0.00  0.00     0.066 H 
ATOM     53  H   IDY d 143     -25.873 -10.848  60.105  0.00  0.00     0.066 H 
ATOM     54  H   IDY d 143     -23.647 -10.595  59.167  0.00  0.00     0.210 HD
ATOM     55  H   IDY d 143     -24.054 -11.154  56.813  0.00  0.00     0.097 H 
ATOM     56  H   IDY d 143     -26.448 -11.926  56.950  0.00  0.00     0.133 H 
ENDROOT
TORSDOF 17
ENDMDL
MODEL 52
REMARK VINA RESULT:      -5.1      2.478      4.413
REMARK  0 active torsions:
REMARK  status: ('A' for Active; 'I' for Inactive)
REMARK       I    between atoms: C1_1  and  O4_26 
REMARK       I    between atoms: C2_2  and  N_3 
REMARK       I    between atoms: N_3  and  S1_23 
REMARK       I    between atoms: O2S_4  and  S1_23 
REMARK       I    between atoms: S_5  and  O2_15 
REMARK       I    between atoms: O1_6  and  C1_27 
REMARK       I    between atoms: O1_6  and  C7_20 
REMARK       I    between atoms: C5_7  and  C6_28 
REMARK       I    between atoms: O3_8  and  C3_9 
REMARK       I    between atoms: C4_10  and  O4_26 
REMARK       I    between atoms: C4_11  and  O4_14 
REMARK       I    between atoms: O2_15  and  C2_22 
REMARK       I    between atoms: O6_17  and  C6_18 
REMARK       I    between atoms: C6_18  and  C5_29 
REMARK       I    between atoms: C3_19  and  O3_21 
REMARK       I    between atoms: S1_23  and  O1S_30 
REMARK       I    between atoms: S1_23  and  O3S_25 
ROOT
ATOM      1  C1  GNS d 142     -26.886 -12.528  61.623  0.00  0.00     0.150 C 
ATOM      2  C2  GNS d 142     -28.022 -13.415  61.129  0.00  0.00     0.081 C 
ATOM      3  N   GNS d 142     -27.485 -14.622  60.531  0.00  0.00    -0.210 NA
ATOM      4  O2S GNS d 142     -29.544 -15.864  61.037  0.00  0.00    -0.296 OA
ATOM      5  O3  GNS d 142     -30.062 -13.421  59.873  0.00  0.00    -0.391 OA
ATOM      6  C3  GNS d 142     -28.891 -12.675  60.120  0.00  0.00     0.083 C 
ATOM      7  C4  GNS d 142     -29.270 -11.292  60.635  0.00  0.00     0.089 C 
ATOM      8  O5  GNS d 142     -27.418 -11.336  62.157  0.00  0.00    -0.349 OA
ATOM      9  O4  GNS d 142     -29.853 -10.545  59.592  0.00  0.00    -0.390 OA
ATOM     10  O6  GNS d 142     -28.462  -9.297  63.164  0.00  0.00    -0.398 OA
ATOM     11  C6  GNS d 142     -28.437  -9.205  61.757  0.00  0.00     0.043 C 
ATOM     12  S1  GNS d 142     -28.100 -16.048  60.915  0.00  0.00     0.156 S 
ATOM     13  O3S GNS d 142     -27.747 -16.964  59.836  0.00  0.00    -0.296 OA
ATOM     14  C5  GNS d 142     -28.046 -10.554  61.166  0.00  0.00     0.089 C 
ATOM     15  O1S GNS d 142     -27.494 -16.441  62.184  0.00  0.00    -0.296 OA
ATOM     16  H   GNS d 142     -26.335 -13.045  62.381  0.00  0.00     0.131 H 
ATOM     17  H   GNS d 142     -28.631 -13.678  61.968  0.00  0.00     0.076 H 
ATOM     18  H   GNS d 142     -26.494 -14.654  60.771  0.00  0.00     0.140 HD
ATOM     19  H   GNS d 142     -29.731 -15.250  61.763  0.00  0.00     0.231 HD
ATOM     20  H   GNS d 142     -29.822 -14.302  59.545  0.00  0.00     0.210 HD
ATOM     21  H   GNS d 142     -28.333 -12.559  59.214  0.00  0.00     0.089 H 
ATOM     22  H   GNS d 142     -29.969 -11.408  61.437  0.00  0.00     0.091 H 
ATOM     23  H   GNS d 142     -29.212 -10.444  58.870  0.00  0.00     0.210 HD
ATOM     24  H   GNS d 142     -28.710  -8.438  63.540  0.00  0.00     0.209 HD
ATOM     25  H   GNS d 142     -27.722  -8.466  61.461  0.00  0.00     0.078 H 
ATOM     26  H   GNS d 142     -29.406  -8.926  61.400  0.00  0.00     0.078 H 
ATOM     27  H   GNS d 142     -28.167 -16.671  59.012  0.00  0.00     0.231 HD
ATOM     28  H   GNS d 142     -27.374 -10.387  60.351  0.00  0.00     0.090 H 
ATOM     29  H   GNS d 142     -27.750 -15.810  62.875  0.00  0.00     0.231 HD
ATOM     30  S   IDY d 143     -26.593 -15.217  56.747  0.00  0.00     0.252 S 
ATOM     31  O1  IDY d 143     -23.304 -12.495  56.810  0.00  0.00    -0.363 OA
ATOM     32  C5  IDY d 143     -24.658 -10.920  58.797  0.00  0.00     0.152 C 
ATOM     33  C4  IDY d 143     -24.853 -11.933  59.935  0.00  0.00     0.103 C 
ATOM     34  O62 IDY d 143     -26.696  -9.610  58.807  0.00  0.00    -0.646 OA
ATOM     35  O2  IDY d 143     -26.185 -14.391  57.987  0.00  0.00    -0.244 OA
ATOM     36  O61 IDY d 143     -24.773  -8.664  59.484  0.00  0.00    -0.646 OA
ATOM     37  C3  IDY d 143     -24.556 -13.396  59.556  0.00  0.00     0.094 C 
ATOM     38  C7  IDY d 143     -22.601 -12.000  57.563  0.00  0.00     0.007 C 
ATOM     39  O3  IDY d 143     -23.146 -13.609  59.694  0.00  0.00    -0.390 OA
ATOM     40  C2  IDY d 143     -24.880 -13.810  58.117  0.00  0.00     0.134 C 
ATOM     41  OS3 IDY d 143     -25.955 -14.702  55.486  0.00  0.00    -0.572 OA
ATOM     42  O4  IDY d 143     -26.028 -12.219  60.548  0.00  0.00    -0.348 OA
ATOM     43  C1  IDY d 143     -24.683 -12.664  57.116  0.00  0.00     0.160 C 
ATOM     44  C6  IDY d 143     -25.438  -9.666  59.062  0.00  0.00     0.206 C 
ATOM     45  OS1 IDY d 143     -28.083 -15.214  56.635  0.00  0.00    -0.572 OA
ATOM     46  O5  IDY d 143     -25.182 -11.393  57.548  0.00  0.00    -0.340 OA
ATOM     47  OS2 IDY d 143     -26.135 -16.590  56.993  0.00  0.00    -0.572 OA
ATOM     48  H   IDY d 143     -23.601 -10.760  58.747  0.00  0.00     0.104 H 
ATOM     49  H   IDY d 143     -24.212 -11.348  60.562  0.00  0.00     0.092 H 
ATOM     50  H   IDY d 143     -25.186 -13.972  60.203  0.00  0.00     0.091 H 
ATOM     51  H   IDY d 143     -21.612 -11.962  57.157  0.00  0.00     0.066 H 
ATOM     52  H   IDY d 143     -22.593 -12.569  58.470  0.00  0.00     0.066 H 
ATOM     53  H   IDY d 143     -22.941 -11.007  57.769  0.00  0.00     0.066 H 
ATOM     54  H   IDY d 143     -22.671 -13.042  59.066  0.00  0.00     0.210 HD
ATOM     55  H   IDY d 143     -24.171 -14.573  57.871  0.00  0.00     0.097 H 
ATOM     56  H   IDY d 143     -25.254 -12.964  56.262  0.00  0.00     0.133 H 
ENDROOT
TORSDOF 17
ENDMDL
MODEL 53
REMARK VINA RESULT:      -5.1      2.254      3.318
REMARK  0 active torsions:
REMARK  status: ('A' for Active; 'I' for Inactive)
REMARK       I    between atoms: C1_1  and  O4_26 
REMARK       I    between atoms: C2_2  and  N_3 
REMARK       I    between atoms: N_3  and  S1_23 
REMARK       I    between atoms: O2S_4  and  S1_23 
REMARK       I    between atoms: S_5  and  O2_15 
REMARK       I    between atoms: O1_6  and  C1_27 
REMARK       I    between atoms: O1_6  and  C7_20 
REMARK       I    between atoms: C5_7  and  C6_28 
REMARK       I    between atoms: O3_8  and  C3_9 
REMARK       I    between atoms: C4_10  and  O4_26 
REMARK       I    between atoms: C4_11  and  O4_14 
REMARK       I    between atoms: O2_15  and  C2_22 
REMARK       I    between atoms: O6_17  and  C6_18 
REMARK       I    between atoms: C6_18  and  C5_29 
REMARK       I    between atoms: C3_19  and  O3_21 
REMARK       I    between atoms: S1_23  and  O1S_30 
REMARK       I    between atoms: S1_23  and  O3S_25 
ROOT
ATOM      1  C1  GNS d 142     -27.721 -11.199  58.729  0.00  0.00     0.150 C 
ATOM      2  C2  GNS d 142     -26.502 -11.310  57.822  0.00  0.00     0.081 C 
ATOM      3  N   GNS d 142     -26.697 -12.376  56.857  0.00  0.00    -0.210 NA
ATOM      4  O2S GNS d 142     -25.167 -11.300  55.264  0.00  0.00    -0.296 OA
ATOM      5  O3  GNS d 142     -24.108 -11.418  57.806  0.00  0.00    -0.391 OA
ATOM      6  C3  GNS d 142     -25.239 -11.568  58.634  0.00  0.00     0.083 C 
ATOM      7  C4  GNS d 142     -25.139 -10.602  59.809  0.00  0.00     0.089 C 
ATOM      8  O5  GNS d 142     -27.498 -10.194  59.694  0.00  0.00    -0.349 OA
ATOM      9  O4  GNS d 142     -24.109 -11.021  60.675  0.00  0.00    -0.390 OA
ATOM     10  O6  GNS d 142     -27.046  -8.333  61.305  0.00  0.00    -0.398 OA
ATOM     11  C6  GNS d 142     -26.380  -9.512  61.700  0.00  0.00     0.043 C 
ATOM     12  S1  GNS d 142     -26.370 -12.125  55.312  0.00  0.00     0.156 S 
ATOM     13  O3S GNS d 142     -26.166 -13.438  54.706  0.00  0.00    -0.296 OA
ATOM     14  C5  GNS d 142     -26.453 -10.538  60.576  0.00  0.00     0.089 C 
ATOM     15  O1S GNS d 142     -27.525 -11.436  54.742  0.00  0.00    -0.296 OA
ATOM     16  H   GNS d 142     -28.579 -10.947  58.143  0.00  0.00     0.131 H 
ATOM     17  H   GNS d 142     -26.384 -10.382  57.303  0.00  0.00     0.076 H 
ATOM     18  H   GNS d 142     -27.680 -12.645  56.911  0.00  0.00     0.140 HD
ATOM     19  H   GNS d 142     -25.348 -10.441  55.676  0.00  0.00     0.231 HD
ATOM     20  H   GNS d 142     -24.171 -12.033  57.058  0.00  0.00     0.210 HD
ATOM     21  H   GNS d 142     -25.282 -12.566  59.019  0.00  0.00     0.089 H 
ATOM     22  H   GNS d 142     -24.921  -9.626  59.428  0.00  0.00     0.091 H 
ATOM     23  H   GNS d 142     -24.314 -11.906  61.016  0.00  0.00     0.210 HD
ATOM     24  H   GNS d 142     -27.000  -7.680  62.020  0.00  0.00     0.209 HD
ATOM     25  H   GNS d 142     -26.848  -9.909  62.577  0.00  0.00     0.078 H 
ATOM     26  H   GNS d 142     -25.356  -9.289  61.913  0.00  0.00     0.078 H 
ATOM     27  H   GNS d 142     -25.393 -13.863  55.109  0.00  0.00     0.231 HD
ATOM     28  H   GNS d 142     -26.640 -11.500  61.006  0.00  0.00     0.090 H 
ATOM     29  H   GNS d 142     -27.628 -10.571  55.168  0.00  0.00     0.231 HD
ATOM     30  S   IDY d 143     -25.639 -16.146  57.218  0.00  0.00     0.252 S 
ATOM     31  O1  IDY d 143     -28.496 -16.940  60.290  0.00  0.00    -0.363 OA
ATOM     32  C5  IDY d 143     -28.259 -14.223  61.199  0.00  0.00     0.152 C 
ATOM     33  C4  IDY d 143     -28.661 -13.427  59.947  0.00  0.00     0.103 C 
ATOM     34  O62 IDY d 143     -26.466 -12.926  62.182  0.00  0.00    -0.646 OA
ATOM     35  O2  IDY d 143     -26.587 -15.077  57.806  0.00  0.00    -0.244 OA
ATOM     36  O61 IDY d 143     -28.459 -13.013  63.217  0.00  0.00    -0.646 OA
ATOM     37  C3  IDY d 143     -28.758 -14.260  58.655  0.00  0.00     0.094 C 
ATOM     38  C7  IDY d 143     -29.470 -16.505  60.703  0.00  0.00     0.007 C 
ATOM     39  O3  IDY d 143     -30.059 -14.858  58.614  0.00  0.00    -0.390 OA
ATOM     40  C2  IDY d 143     -27.779 -15.431  58.520  0.00  0.00     0.134 C 
ATOM     41  OS3 IDY d 143     -25.571 -17.379  58.076  0.00  0.00    -0.572 OA
ATOM     42  O4  IDY d 143     -27.940 -12.431  59.378  0.00  0.00    -0.348 OA
ATOM     43  C1  IDY d 143     -27.445 -16.077  59.870  0.00  0.00     0.160 C 
ATOM     44  C6  IDY d 143     -27.689 -13.314  62.247  0.00  0.00     0.206 C 
ATOM     45  OS1 IDY d 143     -24.283 -15.542  57.041  0.00  0.00    -0.572 OA
ATOM     46  O5  IDY d 143     -27.200 -15.154  60.938  0.00  0.00    -0.340 OA
ATOM     47  OS2 IDY d 143     -26.180 -16.502  55.902  0.00  0.00    -0.572 OA
ATOM     48  H   IDY d 143     -29.155 -14.720  61.510  0.00  0.00     0.104 H 
ATOM     49  H   IDY d 143     -29.517 -13.048  60.467  0.00  0.00     0.092 H 
ATOM     50  H   IDY d 143     -28.534 -13.564  57.873  0.00  0.00     0.091 H 
ATOM     51  H   IDY d 143     -30.134 -17.303  60.963  0.00  0.00     0.066 H 
ATOM     52  H   IDY d 143     -29.928 -15.888  59.959  0.00  0.00     0.066 H 
ATOM     53  H   IDY d 143     -29.258 -15.919  61.572  0.00  0.00     0.066 H 
ATOM     54  H   IDY d 143     -30.158 -15.467  59.362  0.00  0.00     0.210 HD
ATOM     55  H   IDY d 143     -28.290 -16.165  57.933  0.00  0.00     0.097 H 
ATOM     56  H   IDY d 143     -26.535 -16.609  59.686  0.00  0.00     0.133 H 
ENDROOT
TORSDOF 17
ENDMDL
MODEL 54
REMARK VINA RESULT:      -5.1      2.578      4.957
REMARK  0 active torsions:
REMARK  status: ('A' for Active; 'I' for Inactive)
REMARK       I    between atoms: C1_1  and  O4_26 
REMARK       I    between atoms: C2_2  and  N_3 
REMARK       I    between atoms: N_3  and  S1_23 
REMARK       I    between atoms: O2S_4  and  S1_23 
REMARK       I    between atoms: S_5  and  O2_15 
REMARK       I    between atoms: O1_6  and  C1_27 
REMARK       I    between atoms: O1_6  and  C7_20 
REMARK       I    between atoms: C5_7  and  C6_28 
REMARK       I    between atoms: O3_8  and  C3_9 
REMARK       I    between atoms: C4_10  and  O4_26 
REMARK       I    between atoms: C4_11  and  O4_14 
REMARK       I    between atoms: O2_15  and  C2_22 
REMARK       I    between atoms: O6_17  and  C6_18 
REMARK       I    between atoms: C6_18  and  C5_29 
REMARK       I    between atoms: C3_19  and  O3_21 
REMARK       I    between atoms: S1_23  and  O1S_30 
REMARK       I    between atoms: S1_23  and  O3S_25 
ROOT
ATOM      1  C1  GNS d 142     -26.625 -15.435  59.796  0.00  0.00     0.150 C 
ATOM      2  C2  GNS d 142     -27.329 -14.449  60.719  0.00  0.00     0.081 C 
ATOM      3  N   GNS d 142     -27.716 -13.264  59.977  0.00  0.00    -0.210 NA
ATOM      4  O2S GNS d 142     -29.554 -12.807  61.542  0.00  0.00    -0.296 OA
ATOM      5  O3  GNS d 142     -27.190 -13.355  62.847  0.00  0.00    -0.391 OA
ATOM      6  C3  GNS d 142     -26.433 -14.062  61.889  0.00  0.00     0.083 C 
ATOM      7  C4  GNS d 142     -25.819 -15.297  62.538  0.00  0.00     0.089 C 
ATOM      8  O5  GNS d 142     -26.210 -16.560  60.539  0.00  0.00    -0.349 OA
ATOM      9  O4  GNS d 142     -24.812 -14.900  63.442  0.00  0.00    -0.390 OA
ATOM     10  O6  GNS d 142     -25.596 -18.551  61.924  0.00  0.00    -0.398 OA
ATOM     11  C6  GNS d 142     -24.681 -17.497  62.128  0.00  0.00     0.043 C 
ATOM     12  S1  GNS d 142     -29.192 -12.667  60.135  0.00  0.00     0.156 S 
ATOM     13  O3S GNS d 142     -29.129 -11.271  59.714  0.00  0.00    -0.296 OA
ATOM     14  C5  GNS d 142     -25.222 -16.224  61.488  0.00  0.00     0.089 C 
ATOM     15  O1S GNS d 142     -30.061 -13.459  59.269  0.00  0.00    -0.296 OA
ATOM     16  H   GNS d 142     -27.299 -15.744  59.025  0.00  0.00     0.131 H 
ATOM     17  H   GNS d 142     -28.206 -14.922  61.110  0.00  0.00     0.076 H 
ATOM     18  H   GNS d 142     -27.590 -13.481  58.989  0.00  0.00     0.140 HD
ATOM     19  H   GNS d 142     -29.584 -13.747  61.777  0.00  0.00     0.231 HD
ATOM     20  H   GNS d 142     -27.581 -12.569  62.435  0.00  0.00     0.210 HD
ATOM     21  H   GNS d 142     -25.642 -13.444  61.519  0.00  0.00     0.089 H 
ATOM     22  H   GNS d 142     -26.590 -15.825  63.059  0.00  0.00     0.091 H 
ATOM     23  H   GNS d 142     -24.118 -14.422  62.962  0.00  0.00     0.210 HD
ATOM     24  H   GNS d 142     -25.251 -19.362  62.331  0.00  0.00     0.209 HD
ATOM     25  H   GNS d 142     -23.742 -17.749  61.683  0.00  0.00     0.078 H 
ATOM     26  H   GNS d 142     -24.547 -17.340  63.178  0.00  0.00     0.078 H 
ATOM     27  H   GNS d 142     -28.544 -10.779  60.312  0.00  0.00     0.231 HD
ATOM     28  H   GNS d 142     -24.413 -15.715  61.008  0.00  0.00     0.090 H 
ATOM     29  H   GNS d 142     -30.078 -14.377  59.579  0.00  0.00     0.231 HD
ATOM     30  S   IDY d 143     -25.644  -9.953  59.520  0.00  0.00     0.252 S 
ATOM     31  O1  IDY d 143     -22.674 -11.822  57.088  0.00  0.00    -0.363 OA
ATOM     32  C5  IDY d 143     -23.082 -14.290  58.504  0.00  0.00     0.152 C 
ATOM     33  C4  IDY d 143     -24.574 -14.561  58.258  0.00  0.00     0.103 C 
ATOM     34  O62 IDY d 143     -22.713 -15.002  60.790  0.00  0.00    -0.646 OA
ATOM     35  O2  IDY d 143     -25.644 -11.457  59.168  0.00  0.00    -0.244 OA
ATOM     36  O61 IDY d 143     -21.839 -16.206  59.105  0.00  0.00    -0.646 OA
ATOM     37  C3  IDY d 143     -25.353 -13.382  57.647  0.00  0.00     0.094 C 
ATOM     38  C7  IDY d 143     -22.545 -12.754  56.437  0.00  0.00     0.007 C 
ATOM     39  O3  IDY d 143     -25.177 -13.428  56.226  0.00  0.00    -0.390 OA
ATOM     40  C2  IDY d 143     -24.901 -11.976  58.056  0.00  0.00     0.134 C 
ATOM     41  OS3 IDY d 143     -24.319  -9.302  59.231  0.00  0.00    -0.572 OA
ATOM     42  O4  IDY d 143     -25.500 -14.815  59.215  0.00  0.00    -0.348 OA
ATOM     43  C1  IDY d 143     -23.391 -11.896  58.315  0.00  0.00     0.160 C 
ATOM     44  C6  IDY d 143     -22.534 -15.229  59.537  0.00  0.00     0.206 C 
ATOM     45  OS1 IDY d 143     -26.015  -9.795  60.959  0.00  0.00    -0.572 OA
ATOM     46  O5  IDY d 143     -22.847 -12.989  59.061  0.00  0.00    -0.340 OA
ATOM     47  OS2 IDY d 143     -26.680  -9.331  58.688  0.00  0.00    -0.572 OA
ATOM     48  H   IDY d 143     -22.619 -14.399  57.545  0.00  0.00     0.104 H 
ATOM     49  H   IDY d 143     -24.320 -15.444  57.709  0.00  0.00     0.092 H 
ATOM     50  H   IDY d 143     -26.355 -13.511  58.002  0.00  0.00     0.091 H 
ATOM     51  H   IDY d 143     -21.982 -12.503  55.563  0.00  0.00     0.066 H 
ATOM     52  H   IDY d 143     -23.507 -13.123  56.148  0.00  0.00     0.066 H 
ATOM     53  H   IDY d 143     -22.026 -13.507  56.992  0.00  0.00     0.066 H 
ATOM     54  H   IDY d 143     -24.239 -13.301  56.013  0.00  0.00     0.210 HD
ATOM     55  H   IDY d 143     -25.114 -11.350  57.216  0.00  0.00     0.097 H 
ATOM     56  H   IDY d 143     -23.276 -11.010  58.904  0.00  0.00     0.133 H 
ENDROOT
TORSDOF 17
ENDMDL
MODEL 55
REMARK VINA RESULT:      -5.1      2.275      4.823
REMARK  0 active torsions:
REMARK  status: ('A' for Active; 'I' for Inactive)
REMARK       I    between atoms: C1_1  and  O4_26 
REMARK       I    between atoms: C2_2  and  N_3 
REMARK       I    between atoms: N_3  and  S1_23 
REMARK       I    between atoms: O2S_4  and  S1_23 
REMARK       I    between atoms: S_5  and  O2_15 
REMARK       I    between atoms: O1_6  and  C1_27 
REMARK       I    between atoms: O1_6  and  C7_20 
REMARK       I    between atoms: C5_7  and  C6_28 
REMARK       I    between atoms: O3_8  and  C3_9 
REMARK       I    between atoms: C4_10  and  O4_26 
REMARK       I    between atoms: C4_11  and  O4_14 
REMARK       I    between atoms: O2_15  and  C2_22 
REMARK       I    between atoms: O6_17  and  C6_18 
REMARK       I    between atoms: C6_18  and  C5_29 
REMARK       I    between atoms: C3_19  and  O3_21 
REMARK       I    between atoms: S1_23  and  O1S_30 
REMARK       I    between atoms: S1_23  and  O3S_25 
ROOT
ATOM      1  C1  GNS d 142     -26.579 -13.434  61.024  0.00  0.00     0.150 C 
ATOM      2  C2  GNS d 142     -25.737 -12.273  60.509  0.00  0.00     0.081 C 
ATOM      3  N   GNS d 142     -26.530 -11.438  59.628  0.00  0.00    -0.210 NA
ATOM      4  O2S GNS d 142     -25.138  -9.477  60.130  0.00  0.00    -0.296 OA
ATOM      5  O3  GNS d 142     -23.625 -11.702  59.533  0.00  0.00    -0.391 OA
ATOM      6  C3  GNS d 142     -24.501 -12.779  59.776  0.00  0.00     0.083 C 
ATOM      7  C4  GNS d 142     -23.781 -13.846  60.592  0.00  0.00     0.089 C 
ATOM      8  O5  GNS d 142     -25.784 -14.266  61.839  0.00  0.00    -0.349 OA
ATOM      9  O4  GNS d 142     -22.801 -14.467  59.791  0.00  0.00    -0.390 OA
ATOM     10  O6  GNS d 142     -24.317 -15.628  63.341  0.00  0.00    -0.398 OA
ATOM     11  C6  GNS d 142     -24.053 -15.917  61.986  0.00  0.00     0.043 C 
ATOM     12  S1  GNS d 142     -26.511  -9.848  59.801  0.00  0.00     0.156 S 
ATOM     13  O3S GNS d 142     -26.949  -9.280  58.529  0.00  0.00    -0.296 OA
ATOM     14  C5  GNS d 142     -24.760 -14.896  61.102  0.00  0.00     0.089 C 
ATOM     15  O1S GNS d 142     -27.435  -9.530  60.886  0.00  0.00    -0.296 OA
ATOM     16  H   GNS d 142     -27.400 -13.053  61.595  0.00  0.00     0.131 H 
ATOM     17  H   GNS d 142     -25.416 -11.694  61.350  0.00  0.00     0.076 H 
ATOM     18  H   GNS d 142     -27.500 -11.735  59.735  0.00  0.00     0.140 HD
ATOM     19  H   GNS d 142     -24.890  -9.875  60.979  0.00  0.00     0.231 HD
ATOM     20  H   GNS d 142     -24.083 -11.022  59.014  0.00  0.00     0.210 HD
ATOM     21  H   GNS d 142     -24.813 -13.214  58.849  0.00  0.00     0.089 H 
ATOM     22  H   GNS d 142     -23.319 -13.375  61.434  0.00  0.00     0.091 H 
ATOM     23  H   GNS d 142     -23.227 -14.892  59.030  0.00  0.00     0.210 HD
ATOM     24  H   GNS d 142     -23.868 -16.278  63.904  0.00  0.00     0.209 HD
ATOM     25  H   GNS d 142     -24.411 -16.898  61.755  0.00  0.00     0.078 H 
ATOM     26  H   GNS d 142     -22.999 -15.872  61.811  0.00  0.00     0.078 H 
ATOM     27  H   GNS d 142     -26.312  -9.512  57.835  0.00  0.00     0.231 HD
ATOM     28  H   GNS d 142     -25.176 -15.407  60.260  0.00  0.00     0.090 H 
ATOM     29  H   GNS d 142     -27.112  -9.923  61.712  0.00  0.00     0.231 HD
ATOM     30  S   IDY d 143     -26.865 -11.736  55.721  0.00  0.00     0.252 S 
ATOM     31  O1  IDY d 143     -29.000 -15.429  55.909  0.00  0.00    -0.363 OA
ATOM     32  C5  IDY d 143     -27.581 -16.115  58.313  0.00  0.00     0.152 C 
ATOM     33  C4  IDY d 143     -27.950 -14.953  59.249  0.00  0.00     0.103 C 
ATOM     34  O62 IDY d 143     -25.260 -16.581  58.825  0.00  0.00    -0.646 OA
ATOM     35  O2  IDY d 143     -27.190 -12.473  57.038  0.00  0.00    -0.244 OA
ATOM     36  O61 IDY d 143     -26.842 -18.058  59.433  0.00  0.00    -0.646 OA
ATOM     37  C3  IDY d 143     -28.646 -13.764  58.560  0.00  0.00     0.094 C 
ATOM     38  C7  IDY d 143     -29.620 -16.035  56.653  0.00  0.00     0.007 C 
ATOM     39  O3  IDY d 143     -30.046 -14.060  58.482  0.00  0.00    -0.390 OA
ATOM     40  C2  IDY d 143     -28.224 -13.464  57.118  0.00  0.00     0.134 C 
ATOM     41  OS3 IDY d 143     -27.051 -12.616  54.516  0.00  0.00    -0.572 OA
ATOM     42  O4  IDY d 143     -27.072 -14.179  59.933  0.00  0.00    -0.348 OA
ATOM     43  C1  IDY d 143     -27.838 -14.730  56.343  0.00  0.00     0.160 C 
ATOM     44  C6  IDY d 143     -26.488 -16.951  58.909  0.00  0.00     0.206 C 
ATOM     45  OS1 IDY d 143     -25.466 -11.214  55.793  0.00  0.00    -0.572 OA
ATOM     46  O5  IDY d 143     -27.029 -15.661  57.069  0.00  0.00    -0.340 OA
ATOM     47  OS2 IDY d 143     -27.794 -10.603  55.639  0.00  0.00    -0.572 OA
ATOM     48  H   IDY d 143     -28.495 -16.653  58.167  0.00  0.00     0.104 H 
ATOM     49  H   IDY d 143     -28.459 -15.638  59.894  0.00  0.00     0.092 H 
ATOM     50  H   IDY d 143     -28.376 -12.916  59.155  0.00  0.00     0.091 H 
ATOM     51  H   IDY d 143     -30.448 -16.485  56.145  0.00  0.00     0.066 H 
ATOM     52  H   IDY d 143     -29.985 -15.389  57.424  0.00  0.00     0.066 H 
ATOM     53  H   IDY d 143     -29.010 -16.799  57.087  0.00  0.00     0.066 H 
ATOM     54  H   IDY d 143     -30.180 -14.842  57.923  0.00  0.00     0.210 HD
ATOM     55  H   IDY d 143     -29.091 -13.053  56.645  0.00  0.00     0.097 H 
ATOM     56  H   IDY d 143     -27.256 -14.365  55.522  0.00  0.00     0.133 H 
ENDROOT
TORSDOF 17
ENDMDL
MODEL 56
REMARK VINA RESULT:      -5.1      2.297      6.023
REMARK  0 active torsions:
REMARK  status: ('A' for Active; 'I' for Inactive)
REMARK       I    between atoms: C1_1  and  O4_26 
REMARK       I    between atoms: C2_2  and  N_3 
REMARK       I    between atoms: N_3  and  S1_23 
REMARK       I    between atoms: O2S_4  and  S1_23 
REMARK       I    between atoms: S_5  and  O2_15 
REMARK       I    between atoms: O1_6  and  C1_27 
REMARK       I    between atoms: O1_6  and  C7_20 
REMARK       I    between atoms: C5_7  and  C6_28 
REMARK       I    between atoms: O3_8  and  C3_9 
REMARK       I    between atoms: C4_10  and  O4_26 
REMARK       I    between atoms: C4_11  and  O4_14 
REMARK       I    between atoms: O2_15  and  C2_22 
REMARK       I    between atoms: O6_17  and  C6_18 
REMARK       I    between atoms: C6_18  and  C5_29 
REMARK       I    between atoms: C3_19  and  O3_21 
REMARK       I    between atoms: S1_23  and  O1S_30 
REMARK       I    between atoms: S1_23  and  O3S_25 
ROOT
ATOM      1  C1  GNS d 142     -23.069 -14.725  57.630  0.00  0.00     0.150 C 
ATOM      2  C2  GNS d 142     -23.841 -15.065  56.361  0.00  0.00     0.081 C 
ATOM      3  N   GNS d 142     -24.180 -13.850  55.646  0.00  0.00    -0.210 NA
ATOM      4  O2S GNS d 142     -24.267 -15.058  53.508  0.00  0.00    -0.296 OA
ATOM      5  O3  GNS d 142     -25.663 -16.359  55.496  0.00  0.00    -0.391 OA
ATOM      6  C3  GNS d 142     -25.107 -15.848  56.687  0.00  0.00     0.083 C 
ATOM      7  C4  GNS d 142     -24.808 -16.998  57.642  0.00  0.00     0.089 C 
ATOM      8  O5  GNS d 142     -22.790 -15.910  58.342  0.00  0.00    -0.349 OA
ATOM      9  O4  GNS d 142     -26.019 -17.541  58.117  0.00  0.00    -0.390 OA
ATOM     10  O6  GNS d 142     -22.264 -18.074  59.484  0.00  0.00    -0.398 OA
ATOM     11  C6  GNS d 142     -23.598 -17.687  59.732  0.00  0.00     0.043 C 
ATOM     12  S1  GNS d 142     -23.928 -13.753  54.069  0.00  0.00     0.156 S 
ATOM     13  O3S GNS d 142     -24.796 -12.692  53.568  0.00  0.00    -0.296 OA
ATOM     14  C5  GNS d 142     -23.967 -16.523  58.820  0.00  0.00     0.089 C 
ATOM     15  O1S GNS d 142     -22.515 -13.433  53.886  0.00  0.00    -0.296 OA
ATOM     16  H   GNS d 142     -22.152 -14.239  57.370  0.00  0.00     0.131 H 
ATOM     17  H   GNS d 142     -23.218 -15.677  55.743  0.00  0.00     0.076 H 
ATOM     18  H   GNS d 142     -23.645 -13.096  56.077  0.00  0.00     0.140 HD
ATOM     19  H   GNS d 142     -23.668 -15.730  53.867  0.00  0.00     0.231 HD
ATOM     20  H   GNS d 142     -25.854 -15.628  54.888  0.00  0.00     0.210 HD
ATOM     21  H   GNS d 142     -25.802 -15.186  57.161  0.00  0.00     0.089 H 
ATOM     22  H   GNS d 142     -24.256 -17.745  57.111  0.00  0.00     0.091 H 
ATOM     23  H   GNS d 142     -26.512 -16.857  58.597  0.00  0.00     0.210 HD
ATOM     24  H   GNS d 142     -22.029 -18.814  60.064  0.00  0.00     0.209 HD
ATOM     25  H   GNS d 142     -23.698 -17.386  60.753  0.00  0.00     0.078 H 
ATOM     26  H   GNS d 142     -24.250 -18.513  59.538  0.00  0.00     0.078 H 
ATOM     27  H   GNS d 142     -25.723 -12.940  53.707  0.00  0.00     0.231 HD
ATOM     28  H   GNS d 142     -24.542 -15.819  59.384  0.00  0.00     0.090 H 
ATOM     29  H   GNS d 142     -21.972 -14.159  54.230  0.00  0.00     0.231 HD
ATOM     30  S   IDY d 143     -27.467 -11.718  55.984  0.00  0.00     0.252 S 
ATOM     31  O1  IDY d 143     -26.541 -10.411  59.942  0.00  0.00    -0.363 OA
ATOM     32  C5  IDY d 143     -25.154 -12.883  60.423  0.00  0.00     0.152 C 
ATOM     33  C4  IDY d 143     -24.079 -12.869  59.326  0.00  0.00     0.103 C 
ATOM     34  O62 IDY d 143     -25.842 -15.202  60.557  0.00  0.00    -0.646 OA
ATOM     35  O2  IDY d 143     -26.208 -12.160  56.762  0.00  0.00    -0.244 OA
ATOM     36  O61 IDY d 143     -24.658 -14.303  62.243  0.00  0.00    -0.646 OA
ATOM     37  C3  IDY d 143     -24.270 -11.787  58.247  0.00  0.00     0.094 C 
ATOM     38  C7  IDY d 143     -25.635 -10.305  60.631  0.00  0.00     0.007 C 
ATOM     39  O3  IDY d 143     -23.693 -10.571  58.738  0.00  0.00    -0.390 OA
ATOM     40  C2  IDY d 143     -25.714 -11.424  57.889  0.00  0.00     0.134 C 
ATOM     41  OS3 IDY d 143     -28.496 -11.087  56.881  0.00  0.00    -0.572 OA
ATOM     42  O4  IDY d 143     -23.843 -13.865  58.436  0.00  0.00    -0.348 OA
ATOM     43  C1  IDY d 143     -26.665 -11.542  59.087  0.00  0.00     0.160 C 
ATOM     44  C6  IDY d 143     -25.209 -14.222  61.097  0.00  0.00     0.206 C 
ATOM     45  OS1 IDY d 143     -28.033 -12.903  55.270  0.00  0.00    -0.572 OA
ATOM     46  O5  IDY d 143     -26.477 -12.709  59.894  0.00  0.00    -0.340 OA
ATOM     47  OS2 IDY d 143     -27.019 -10.732  54.994  0.00  0.00    -0.572 OA
ATOM     48  H   IDY d 143     -24.885 -12.086  61.084  0.00  0.00     0.104 H 
ATOM     49  H   IDY d 143     -23.318 -12.822  60.076  0.00  0.00     0.092 H 
ATOM     50  H   IDY d 143     -23.818 -12.202  57.370  0.00  0.00     0.091 H 
ATOM     51  H   IDY d 143     -25.718  -9.399  61.193  0.00  0.00     0.066 H 
ATOM     52  H   IDY d 143     -24.741 -10.280  60.043  0.00  0.00     0.066 H 
ATOM     53  H   IDY d 143     -25.597 -11.138  61.301  0.00  0.00     0.066 H 
ATOM     54  H   IDY d 143     -24.174 -10.282  59.529  0.00  0.00     0.210 HD
ATOM     55  H   IDY d 143     -25.689 -10.393  57.603  0.00  0.00     0.097 H 
ATOM     56  H   IDY d 143     -27.636 -11.608  58.642  0.00  0.00     0.133 H 
ENDROOT
TORSDOF 17
ENDMDL
MODEL 57
REMARK VINA RESULT:      -5.1      2.897      4.763
REMARK  0 active torsions:
REMARK  status: ('A' for Active; 'I' for Inactive)
REMARK       I    between atoms: C1_1  and  O4_26 
REMARK       I    between atoms: C2_2  and  N_3 
REMARK       I    between atoms: N_3  and  S1_23 
REMARK       I    between atoms: O2S_4  and  S1_23 
REMARK       I    between atoms: S_5  and  O2_15 
REMARK       I    between atoms: O1_6  and  C1_27 
REMARK       I    between atoms: O1_6  and  C7_20 
REMARK       I    between atoms: C5_7  and  C6_28 
REMARK       I    between atoms: O3_8  and  C3_9 
REMARK       I    between atoms: C4_10  and  O4_26 
REMARK       I    between atoms: C4_11  and  O4_14 
REMARK       I    between atoms: O2_15  and  C2_22 
REMARK       I    between atoms: O6_17  and  C6_18 
REMARK       I    between atoms: C6_18  and  C5_29 
REMARK       I    between atoms: C3_19  and  O3_21 
REMARK       I    between atoms: S1_23  and  O1S_30 
REMARK       I    between atoms: S1_23  and  O3S_25 
ROOT
ATOM      1  C1  GNS d 142     -26.599 -13.983  58.674  0.00  0.00     0.150 C 
ATOM      2  C2  GNS d 142     -27.245 -14.460  57.379  0.00  0.00     0.081 C 
ATOM      3  N   GNS d 142     -26.579 -15.658  56.904  0.00  0.00    -0.210 NA
ATOM      4  O2S GNS d 142     -28.603 -16.391  55.720  0.00  0.00    -0.296 OA
ATOM      5  O3  GNS d 142     -28.007 -13.747  55.222  0.00  0.00    -0.391 OA
ATOM      6  C3  GNS d 142     -27.192 -13.375  56.311  0.00  0.00     0.083 C 
ATOM      7  C4  GNS d 142     -27.666 -12.038  56.867  0.00  0.00     0.089 C 
ATOM      8  O5  GNS d 142     -27.223 -12.791  59.099  0.00  0.00    -0.349 OA
ATOM      9  O4  GNS d 142     -27.371 -11.014  55.944  0.00  0.00    -0.390 OA
ATOM     10  O6  GNS d 142     -28.451 -10.733  59.817  0.00  0.00    -0.398 OA
ATOM     11  C6  GNS d 142     -27.527 -10.434  58.795  0.00  0.00     0.043 C 
ATOM     12  S1  GNS d 142     -27.441 -16.918  56.430  0.00  0.00     0.156 S 
ATOM     13  O3S GNS d 142     -26.579 -17.717  55.564  0.00  0.00    -0.296 OA
ATOM     14  C5  GNS d 142     -26.992 -11.731  58.198  0.00  0.00     0.089 C 
ATOM     15  O1S GNS d 142     -27.825 -17.645  57.637  0.00  0.00    -0.296 OA
ATOM     16  H   GNS d 142     -26.713 -14.734  59.427  0.00  0.00     0.131 H 
ATOM     17  H   GNS d 142     -28.272 -14.684  57.580  0.00  0.00     0.076 H 
ATOM     18  H   GNS d 142     -25.977 -15.980  57.662  0.00  0.00     0.140 HD
ATOM     19  H   GNS d 142     -29.145 -15.869  56.332  0.00  0.00     0.231 HD
ATOM     20  H   GNS d 142     -27.706 -14.598  54.868  0.00  0.00     0.210 HD
ATOM     21  H   GNS d 142     -26.177 -13.268  55.989  0.00  0.00     0.089 H 
ATOM     22  H   GNS d 142     -28.723 -12.093  57.027  0.00  0.00     0.091 H 
ATOM     23  H   GNS d 142     -26.412 -10.971  55.805  0.00  0.00     0.210 HD
ATOM     24  H   GNS d 142     -28.791  -9.908  60.197  0.00  0.00     0.209 HD
ATOM     25  H   GNS d 142     -26.716  -9.868  59.202  0.00  0.00     0.078 H 
ATOM     26  H   GNS d 142     -28.012  -9.864  58.031  0.00  0.00     0.078 H 
ATOM     27  H   GNS d 142     -26.347 -17.202  54.776  0.00  0.00     0.231 HD
ATOM     28  H   GNS d 142     -25.942 -11.618  58.027  0.00  0.00     0.090 H 
ATOM     29  H   GNS d 142     -28.395 -17.085  58.185  0.00  0.00     0.231 HD
ATOM     30  S   IDY d 143     -23.552 -15.871  54.403  0.00  0.00     0.252 S 
ATOM     31  O1  IDY d 143     -20.795 -14.129  57.159  0.00  0.00    -0.363 OA
ATOM     32  C5  IDY d 143     -22.932 -12.585  58.305  0.00  0.00     0.152 C 
ATOM     33  C4  IDY d 143     -23.910 -13.678  58.766  0.00  0.00     0.103 C 
ATOM     34  O62 IDY d 143     -24.362 -10.813  57.478  0.00  0.00    -0.646 OA
ATOM     35  O2  IDY d 143     -23.943 -15.379  55.814  0.00  0.00    -0.244 OA
ATOM     36  O61 IDY d 143     -23.224 -10.510  59.393  0.00  0.00    -0.646 OA
ATOM     37  C3  IDY d 143     -23.593 -15.091  58.242  0.00  0.00     0.094 C 
ATOM     38  C7  IDY d 143     -20.686 -13.955  58.284  0.00  0.00     0.007 C 
ATOM     39  O3  IDY d 143     -22.624 -15.678  59.119  0.00  0.00    -0.390 OA
ATOM     40  C2  IDY d 143     -22.968 -15.180  56.846  0.00  0.00     0.134 C 
ATOM     41  OS3 IDY d 143     -22.209 -15.348  53.971  0.00  0.00    -0.572 OA
ATOM     42  O4  IDY d 143     -25.227 -13.743  58.455  0.00  0.00    -0.348 OA
ATOM     43  C1  IDY d 143     -22.063 -13.983  56.529  0.00  0.00     0.160 C 
ATOM     44  C6  IDY d 143     -23.567 -11.230  58.399  0.00  0.00     0.206 C 
ATOM     45  OS1 IDY d 143     -24.620 -15.467  53.438  0.00  0.00    -0.572 OA
ATOM     46  O5  IDY d 143     -22.587 -12.709  56.918  0.00  0.00    -0.340 OA
ATOM     47  OS2 IDY d 143     -23.500 -17.336  54.473  0.00  0.00    -0.572 OA
ATOM     48  H   IDY d 143     -22.075 -12.697  58.937  0.00  0.00     0.104 H 
ATOM     49  H   IDY d 143     -23.757 -13.381  59.783  0.00  0.00     0.092 H 
ATOM     50  H   IDY d 143     -24.545 -15.578  58.198  0.00  0.00     0.091 H 
ATOM     51  H   IDY d 143     -19.667 -14.110  58.572  0.00  0.00     0.066 H 
ATOM     52  H   IDY d 143     -21.315 -14.639  58.814  0.00  0.00     0.066 H 
ATOM     53  H   IDY d 143     -20.974 -12.951  58.518  0.00  0.00     0.066 H 
ATOM     54  H   IDY d 143     -21.803 -15.163  59.085  0.00  0.00     0.210 HD
ATOM     55  H   IDY d 143     -22.348 -16.052  56.865  0.00  0.00     0.097 H 
ATOM     56  H   IDY d 143     -21.987 -13.991  55.462  0.00  0.00     0.133 H 
ENDROOT
TORSDOF 17
ENDMDL
MODEL 58
REMARK VINA RESULT:      -5.0      2.411      3.425
REMARK  0 active torsions:
REMARK  status: ('A' for Active; 'I' for Inactive)
REMARK       I    between atoms: C1_1  and  O4_26 
REMARK       I    between atoms: C2_2  and  N_3 
REMARK       I    between atoms: N_3  and  S1_23 
REMARK       I    between atoms: O2S_4  and  S1_23 
REMARK       I    between atoms: S_5  and  O2_15 
REMARK       I    between atoms: O1_6  and  C1_27 
REMARK       I    between atoms: O1_6  and  C7_20 
REMARK       I    between atoms: C5_7  and  C6_28 
REMARK       I    between atoms: O3_8  and  C3_9 
REMARK       I    between atoms: C4_10  and  O4_26 
REMARK       I    between atoms: C4_11  and  O4_14 
REMARK       I    between atoms: O2_15  and  C2_22 
REMARK       I    between atoms: O6_17  and  C6_18 
REMARK       I    between atoms: C6_18  and  C5_29 
REMARK       I    between atoms: C3_19  and  O3_21 
REMARK       I    between atoms: S1_23  and  O1S_30 
REMARK       I    between atoms: S1_23  and  O3S_25 
ROOT
ATOM      1  C1  GNS d 142     -26.664 -13.344  58.713  0.00  0.00     0.150 C 
ATOM      2  C2  GNS d 142     -26.170 -12.413  57.612  0.00  0.00     0.081 C 
ATOM      3  N   GNS d 142     -26.203 -13.096  56.333  0.00  0.00    -0.210 NA
ATOM      4  O2S GNS d 142     -26.436 -10.965  55.131  0.00  0.00    -0.296 OA
ATOM      5  O3  GNS d 142     -24.425 -10.884  57.014  0.00  0.00    -0.391 OA
ATOM      6  C3  GNS d 142     -24.756 -11.925  57.905  0.00  0.00     0.083 C 
ATOM      7  C4  GNS d 142     -24.638 -11.421  59.339  0.00  0.00     0.089 C 
ATOM      8  O5  GNS d 142     -26.578 -12.686  59.958  0.00  0.00    -0.349 OA
ATOM      9  O4  GNS d 142     -23.280 -11.215  59.654  0.00  0.00    -0.390 OA
ATOM     10  O6  GNS d 142     -26.476 -11.404  62.104  0.00  0.00    -0.398 OA
ATOM     11  C6  GNS d 142     -25.198 -11.882  61.743  0.00  0.00     0.043 C 
ATOM     12  S1  GNS d 142     -26.832 -12.368  55.055  0.00  0.00     0.156 S 
ATOM     13  O3S GNS d 142     -26.284 -13.036  53.878  0.00  0.00    -0.296 OA
ATOM     14  C5  GNS d 142     -25.241 -12.421  60.319  0.00  0.00     0.089 C 
ATOM     15  O1S GNS d 142     -28.280 -12.530  55.147  0.00  0.00    -0.296 OA
ATOM     16  H   GNS d 142     -27.680 -13.615  58.520  0.00  0.00     0.131 H 
ATOM     17  H   GNS d 142     -26.818 -11.563  57.576  0.00  0.00     0.076 H 
ATOM     18  H   GNS d 142     -26.733 -13.956  56.473  0.00  0.00     0.140 HD
ATOM     19  H   GNS d 142     -26.821 -10.564  55.925  0.00  0.00     0.231 HD
ATOM     20  H   GNS d 142     -24.499 -11.203  56.101  0.00  0.00     0.210 HD
ATOM     21  H   GNS d 142     -24.082 -12.745  57.777  0.00  0.00     0.089 H 
ATOM     22  H   GNS d 142     -25.177 -10.500  59.420  0.00  0.00     0.091 H 
ATOM     23  H   GNS d 142     -22.800 -12.055  59.578  0.00  0.00     0.210 HD
ATOM     24  H   GNS d 142     -26.448 -11.062  63.011  0.00  0.00     0.209 HD
ATOM     25  H   GNS d 142     -24.908 -12.665  62.412  0.00  0.00     0.078 H 
ATOM     26  H   GNS d 142     -24.490 -11.083  61.802  0.00  0.00     0.078 H 
ATOM     27  H   GNS d 142     -25.323 -12.906  53.851  0.00  0.00     0.231 HD
ATOM     28  H   GNS d 142     -24.666 -13.322  60.279  0.00  0.00     0.090 H 
ATOM     29  H   GNS d 142     -28.607 -12.075  55.938  0.00  0.00     0.231 HD
ATOM     30  S   IDY d 143     -23.303 -15.145  54.644  0.00  0.00     0.252 S 
ATOM     31  O1  IDY d 143     -23.462 -18.281  57.539  0.00  0.00    -0.363 OA
ATOM     32  C5  IDY d 143     -24.292 -16.384  59.533  0.00  0.00     0.152 C 
ATOM     33  C4  IDY d 143     -25.585 -15.819  58.924  0.00  0.00     0.103 C 
ATOM     34  O62 IDY d 143     -23.239 -14.470  60.580  0.00  0.00    -0.646 OA
ATOM     35  O2  IDY d 143     -24.259 -15.146  55.858  0.00  0.00    -0.244 OA
ATOM     36  O61 IDY d 143     -24.117 -16.088  61.869  0.00  0.00    -0.646 OA
ATOM     37  C3  IDY d 143     -25.826 -16.200  57.451  0.00  0.00     0.094 C 
ATOM     38  C7  IDY d 143     -24.185 -18.712  58.312  0.00  0.00     0.007 C 
ATOM     39  O3  IDY d 143     -26.452 -17.488  57.426  0.00  0.00    -0.390 OA
ATOM     40  C2  IDY d 143     -24.581 -16.349  56.569  0.00  0.00     0.134 C 
ATOM     41  OS3 IDY d 143     -22.203 -16.161  54.786  0.00  0.00    -0.572 OA
ATOM     42  O4  IDY d 143     -25.865 -14.506  58.741  0.00  0.00    -0.348 OA
ATOM     43  C1  IDY d 143     -23.368 -16.873  57.348  0.00  0.00     0.160 C 
ATOM     44  C6  IDY d 143     -23.872 -15.579  60.727  0.00  0.00     0.206 C 
ATOM     45  OS1 IDY d 143     -22.744 -13.770  54.471  0.00  0.00    -0.572 OA
ATOM     46  O5  IDY d 143     -23.176 -16.281  58.638  0.00  0.00    -0.340 OA
ATOM     47  OS2 IDY d 143     -24.121 -15.480  53.472  0.00  0.00    -0.572 OA
ATOM     48  H   IDY d 143     -24.519 -17.403  59.767  0.00  0.00     0.104 H 
ATOM     49  H   IDY d 143     -26.145 -16.234  59.736  0.00  0.00     0.092 H 
ATOM     50  H   IDY d 143     -26.401 -15.388  57.056  0.00  0.00     0.091 H 
ATOM     51  H   IDY d 143     -24.114 -19.779  58.310  0.00  0.00     0.066 H 
ATOM     52  H   IDY d 143     -25.185 -18.420  58.067  0.00  0.00     0.066 H 
ATOM     53  H   IDY d 143     -23.933 -18.339  59.282  0.00  0.00     0.066 H 
ATOM     54  H   IDY d 143     -25.850 -18.147  57.804  0.00  0.00     0.210 HD
ATOM     55  H   IDY d 143     -24.834 -17.088  55.838  0.00  0.00     0.097 H 
ATOM     56  H   IDY d 143     -22.532 -16.603  56.738  0.00  0.00     0.133 H 
ENDROOT
TORSDOF 17
ENDMDL
MODEL 59
REMARK VINA RESULT:      -5.0      2.195      2.968
REMARK  0 active torsions:
REMARK  status: ('A' for Active; 'I' for Inactive)
REMARK       I    between atoms: C1_1  and  O4_26 
REMARK       I    between atoms: C2_2  and  N_3 
REMARK       I    between atoms: N_3  and  S1_23 
REMARK       I    between atoms: O2S_4  and  S1_23 
REMARK       I    between atoms: S_5  and  O2_15 
REMARK       I    between atoms: O1_6  and  C1_27 
REMARK       I    between atoms: O1_6  and  C7_20 
REMARK       I    between atoms: C5_7  and  C6_28 
REMARK       I    between atoms: O3_8  and  C3_9 
REMARK       I    between atoms: C4_10  and  O4_26 
REMARK       I    between atoms: C4_11  and  O4_14 
REMARK       I    between atoms: O2_15  and  C2_22 
REMARK       I    between atoms: O6_17  and  C6_18 
REMARK       I    between atoms: C6_18  and  C5_29 
REMARK       I    between atoms: C3_19  and  O3_21 
REMARK       I    between atoms: S1_23  and  O1S_30 
REMARK       I    between atoms: S1_23  and  O3S_25 
ROOT
ATOM      1  C1  GNS d 142     -29.156 -11.467  61.839  0.00  0.00     0.150 C 
ATOM      2  C2  GNS d 142     -28.075 -10.689  61.101  0.00  0.00     0.081 C 
ATOM      3  N   GNS d 142     -27.981 -11.149  59.729  0.00  0.00    -0.210 NA
ATOM      4  O2S GNS d 142     -27.095  -8.978  58.994  0.00  0.00    -0.296 OA
ATOM      5  O3  GNS d 142     -25.810  -9.919  61.242  0.00  0.00    -0.391 OA
ATOM      6  C3  GNS d 142     -26.726 -10.839  61.793  0.00  0.00     0.083 C 
ATOM      7  C4  GNS d 142     -26.852 -10.593  63.293  0.00  0.00     0.089 C 
ATOM      8  O5  GNS d 142     -29.203 -11.046  63.184  0.00  0.00    -0.349 OA
ATOM      9  O4  GNS d 142     -25.658 -10.981  63.934  0.00  0.00    -0.390 OA
ATOM     10  O6  GNS d 142     -29.271 -10.168  65.526  0.00  0.00    -0.398 OA
ATOM     11  C6  GNS d 142     -28.198 -11.067  65.359  0.00  0.00     0.043 C 
ATOM     12  S1  GNS d 142     -27.921 -10.089  58.532  0.00  0.00     0.156 S 
ATOM     13  O3S GNS d 142     -27.333 -10.779  57.387  0.00  0.00    -0.296 OA
ATOM     14  C5  GNS d 142     -28.020 -11.376  63.877  0.00  0.00     0.089 C 
ATOM     15  O1S GNS d 142     -29.296  -9.672  58.268  0.00  0.00    -0.296 OA
ATOM     16  H   GNS d 142     -30.103 -11.288  61.375  0.00  0.00     0.131 H 
ATOM     17  H   GNS d 142     -28.343  -9.653  61.108  0.00  0.00     0.076 H 
ATOM     18  H   GNS d 142     -28.796 -11.739  59.560  0.00  0.00     0.140 HD
ATOM     19  H   GNS d 142     -27.523  -8.551  59.752  0.00  0.00     0.231 HD
ATOM     20  H   GNS d 142     -25.729 -10.075  60.288  0.00  0.00     0.210 HD
ATOM     21  H   GNS d 142     -26.377 -11.839  61.642  0.00  0.00     0.089 H 
ATOM     22  H   GNS d 142     -27.030  -9.550  63.451  0.00  0.00     0.091 H 
ATOM     23  H   GNS d 142     -25.504 -11.927  63.785  0.00  0.00     0.210 HD
ATOM     24  H   GNS d 142     -29.384  -9.971  66.469  0.00  0.00     0.209 HD
ATOM     25  H   GNS d 142     -28.405 -11.973  65.890  0.00  0.00     0.078 H 
ATOM     26  H   GNS d 142     -27.300 -10.628  65.742  0.00  0.00     0.078 H 
ATOM     27  H   GNS d 142     -26.423 -11.039  57.600  0.00  0.00     0.231 HD
ATOM     28  H   GNS d 142     -27.813 -12.421  63.771  0.00  0.00     0.090 H 
ATOM     29  H   GNS d 142     -29.652  -9.220  59.048  0.00  0.00     0.231 HD
ATOM     30  S   IDY d 143     -25.637 -13.971  58.312  0.00  0.00     0.252 S 
ATOM     31  O1  IDY d 143     -27.708 -17.098  60.355  0.00  0.00    -0.363 OA
ATOM     32  C5  IDY d 143     -28.347 -15.271  62.481  0.00  0.00     0.152 C 
ATOM     33  C4  IDY d 143     -29.127 -14.174  61.741  0.00  0.00     0.103 C 
ATOM     34  O62 IDY d 143     -27.032 -14.067  64.121  0.00  0.00    -0.646 OA
ATOM     35  O2  IDY d 143     -26.835 -13.733  59.259  0.00  0.00    -0.244 OA
ATOM     36  O61 IDY d 143     -28.752 -15.341  64.806  0.00  0.00    -0.646 OA
ATOM     37  C3  IDY d 143     -29.057 -14.255  60.205  0.00  0.00     0.094 C 
ATOM     38  C7  IDY d 143     -28.724 -17.292  60.840  0.00  0.00     0.007 C 
ATOM     39  O3  IDY d 143     -30.062 -15.176  59.766  0.00  0.00    -0.390 OA
ATOM     40  C2  IDY d 143     -27.749 -14.783  59.605  0.00  0.00     0.134 C 
ATOM     41  OS3 IDY d 143     -25.055 -15.349  58.468  0.00  0.00    -0.572 OA
ATOM     42  O4  IDY d 143     -28.862 -12.846  61.789  0.00  0.00    -0.348 OA
ATOM     43  C1  IDY d 143     -27.074 -15.831  60.498  0.00  0.00     0.160 C 
ATOM     44  C6  IDY d 143     -28.028 -14.844  63.883  0.00  0.00     0.206 C 
ATOM     45  OS1 IDY d 143     -24.605 -12.921  58.567  0.00  0.00    -0.572 OA
ATOM     46  O5  IDY d 143     -27.061 -15.517  61.895  0.00  0.00    -0.340 OA
ATOM     47  OS2 IDY d 143     -26.150 -13.816  56.946  0.00  0.00    -0.572 OA
ATOM     48  H   IDY d 143     -28.975 -16.137  62.434  0.00  0.00     0.104 H 
ATOM     49  H   IDY d 143     -30.004 -14.423  62.302  0.00  0.00     0.092 H 
ATOM     50  H   IDY d 143     -29.171 -13.242  59.879  0.00  0.00     0.091 H 
ATOM     51  H   IDY d 143     -29.037 -18.292  60.624  0.00  0.00     0.066 H 
ATOM     52  H   IDY d 143     -29.443 -16.602  60.451  0.00  0.00     0.066 H 
ATOM     53  H   IDY d 143     -28.644 -17.165  61.899  0.00  0.00     0.066 H 
ATOM     54  H   IDY d 143     -29.865 -16.059  60.115  0.00  0.00     0.210 HD
ATOM     55  H   IDY d 143     -28.027 -15.271  58.695  0.00  0.00     0.097 H 
ATOM     56  H   IDY d 143     -26.059 -15.846  60.159  0.00  0.00     0.133 H 
ENDROOT
TORSDOF 17
ENDMDL
MODEL 60
REMARK VINA RESULT:      -5.0      2.793      7.009
REMARK  0 active torsions:
REMARK  status: ('A' for Active; 'I' for Inactive)
REMARK       I    between atoms: C1_1  and  O4_26 
REMARK       I    between atoms: C2_2  and  N_3 
REMARK       I    between atoms: N_3  and  S1_23 
REMARK       I    between atoms: O2S_4  and  S1_23 
REMARK       I    between atoms: S_5  and  O2_15 
REMARK       I    between atoms: O1_6  and  C1_27 
REMARK       I    between atoms: O1_6  and  C7_20 
REMARK       I    between atoms: C5_7  and  C6_28 
REMARK       I    between atoms: O3_8  and  C3_9 
REMARK       I    between atoms: C4_10  and  O4_26 
REMARK       I    between atoms: C4_11  and  O4_14 
REMARK       I    between atoms: O2_15  and  C2_22 
REMARK       I    between atoms: O6_17  and  C6_18 
REMARK       I    between atoms: C6_18  and  C5_29 
REMARK       I    between atoms: C3_19  and  O3_21 
REMARK       I    between atoms: S1_23  and  O1S_30 
REMARK       I    between atoms: S1_23  and  O3S_25 
ROOT
ATOM      1  C1  GNS d 142     -24.750 -15.679  57.700  0.00  0.00     0.150 C 
ATOM      2  C2  GNS d 142     -24.285 -15.748  59.149  0.00  0.00     0.081 C 
ATOM      3  N   GNS d 142     -25.394 -15.469  60.040  0.00  0.00    -0.210 NA
ATOM      4  O2S GNS d 142     -24.353 -16.771  61.845  0.00  0.00    -0.296 OA
ATOM      5  O3  GNS d 142     -22.578 -15.023  60.667  0.00  0.00    -0.391 OA
ATOM      6  C3  GNS d 142     -23.150 -14.764  59.404  0.00  0.00     0.083 C 
ATOM      7  C4  GNS d 142     -22.077 -14.876  58.328  0.00  0.00     0.089 C 
ATOM      8  O5  GNS d 142     -23.653 -15.903  56.842  0.00  0.00    -0.349 OA
ATOM      9  O4  GNS d 142     -21.178 -13.797  58.446  0.00  0.00    -0.390 OA
ATOM     10  O6  GNS d 142     -21.664 -16.400  55.407  0.00  0.00    -0.398 OA
ATOM     11  C6  GNS d 142     -21.633 -15.065  55.863  0.00  0.00     0.043 C 
ATOM     12  S1  GNS d 142     -25.661 -16.412  61.305  0.00  0.00     0.156 S 
ATOM     13  O3S GNS d 142     -26.457 -15.634  62.250  0.00  0.00    -0.296 OA
ATOM     14  C5  GNS d 142     -22.697 -14.870  56.936  0.00  0.00     0.089 C 
ATOM     15  O1S GNS d 142     -26.386 -17.580  60.814  0.00  0.00    -0.296 OA
ATOM     16  H   GNS d 142     -25.495 -16.427  57.529  0.00  0.00     0.131 H 
ATOM     17  H   GNS d 142     -23.920 -16.736  59.337  0.00  0.00     0.076 H 
ATOM     18  H   GNS d 142     -26.241 -15.491  59.472  0.00  0.00     0.140 HD
ATOM     19  H   GNS d 142     -23.861 -17.284  61.187  0.00  0.00     0.231 HD
ATOM     20  H   GNS d 142     -23.261 -14.951  61.352  0.00  0.00     0.210 HD
ATOM     21  H   GNS d 142     -23.552 -13.772  59.380  0.00  0.00     0.089 H 
ATOM     22  H   GNS d 142     -21.557 -15.801  58.463  0.00  0.00     0.091 H 
ATOM     23  H   GNS d 142     -21.657 -12.962  58.323  0.00  0.00     0.210 HD
ATOM     24  H   GNS d 142     -20.987 -16.524  54.724  0.00  0.00     0.209 HD
ATOM     25  H   GNS d 142     -21.825 -14.404  55.045  0.00  0.00     0.078 H 
ATOM     26  H   GNS d 142     -20.668 -14.852  56.275  0.00  0.00     0.078 H 
ATOM     27  H   GNS d 142     -25.943 -14.869  62.552  0.00  0.00     0.231 HD
ATOM     28  H   GNS d 142     -23.167 -13.922  56.780  0.00  0.00     0.090 H 
ATOM     29  H   GNS d 142     -25.827 -18.070  60.192  0.00  0.00     0.231 HD
ATOM     30  S   IDY d 143     -26.459 -11.978  61.504  0.00  0.00     0.252 S 
ATOM     31  O1  IDY d 143     -27.720 -10.465  57.715  0.00  0.00    -0.363 OA
ATOM     32  C5  IDY d 143     -25.727 -12.082  56.418  0.00  0.00     0.152 C 
ATOM     33  C4  IDY d 143     -26.122 -13.499  56.862  0.00  0.00     0.103 C 
ATOM     34  O62 IDY d 143     -23.305 -12.103  56.432  0.00  0.00    -0.646 OA
ATOM     35  O2  IDY d 143     -26.350 -12.771  60.183  0.00  0.00    -0.244 OA
ATOM     36  O61 IDY d 143     -24.397 -12.017  54.469  0.00  0.00    -0.646 OA
ATOM     37  C3  IDY d 143     -27.171 -13.555  57.988  0.00  0.00     0.094 C 
ATOM     38  C7  IDY d 143     -28.038 -10.854  56.688  0.00  0.00     0.007 C 
ATOM     39  O3  IDY d 143     -28.467 -13.452  57.388  0.00  0.00    -0.390 OA
ATOM     40  C2  IDY d 143     -27.124 -12.428  59.025  0.00  0.00     0.134 C 
ATOM     41  OS3 IDY d 143     -26.708 -10.514  61.268  0.00  0.00    -0.572 OA
ATOM     42  O4  IDY d 143     -25.297 -14.405  57.440  0.00  0.00    -0.348 OA
ATOM     43  C1  IDY d 143     -26.659 -11.095  58.425  0.00  0.00     0.160 C 
ATOM     44  C6  IDY d 143     -24.389 -12.090  55.741  0.00  0.00     0.206 C 
ATOM     45  OS1 IDY d 143     -25.211 -12.189  62.298  0.00  0.00    -0.572 OA
ATOM     46  O5  IDY d 143     -25.546 -11.192  57.529  0.00  0.00    -0.340 OA
ATOM     47  OS2 IDY d 143     -27.595 -12.548  62.238  0.00  0.00    -0.572 OA
ATOM     48  H   IDY d 143     -26.524 -11.760  55.780  0.00  0.00     0.104 H 
ATOM     49  H   IDY d 143     -26.339 -13.754  55.845  0.00  0.00     0.092 H 
ATOM     50  H   IDY d 143     -26.961 -14.470  58.502  0.00  0.00     0.091 H 
ATOM     51  H   IDY d 143     -28.844 -10.257  56.315  0.00  0.00     0.066 H 
ATOM     52  H   IDY d 143     -28.358 -11.871  56.775  0.00  0.00     0.066 H 
ATOM     53  H   IDY d 143     -27.210 -10.797  56.013  0.00  0.00     0.066 H 
ATOM     54  H   IDY d 143     -28.553 -12.590  56.951  0.00  0.00     0.210 HD
ATOM     55  H   IDY d 143     -28.134 -12.295  59.350  0.00  0.00     0.097 H 
ATOM     56  H   IDY d 143     -26.345 -10.524  59.273  0.00  0.00     0.133 H 
ENDROOT
TORSDOF 17
ENDMDL
MODEL 61
REMARK VINA RESULT:      -4.9      2.739      5.232
REMARK  0 active torsions:
REMARK  status: ('A' for Active; 'I' for Inactive)
REMARK       I    between atoms: C1_1  and  O4_26 
REMARK       I    between atoms: C2_2  and  N_3 
REMARK       I    between atoms: N_3  and  S1_23 
REMARK       I    between atoms: O2S_4  and  S1_23 
REMARK       I    between atoms: S_5  and  O2_15 
REMARK       I    between atoms: O1_6  and  C1_27 
REMARK       I    between atoms: O1_6  and  C7_20 
REMARK       I    between atoms: C5_7  and  C6_28 
REMARK       I    between atoms: O3_8  and  C3_9 
REMARK       I    between atoms: C4_10  and  O4_26 
REMARK       I    between atoms: C4_11  and  O4_14 
REMARK       I    between atoms: O2_15  and  C2_22 
REMARK       I    between atoms: O6_17  and  C6_18 
REMARK       I    between atoms: C6_18  and  C5_29 
REMARK       I    between atoms: C3_19  and  O3_21 
REMARK       I    between atoms: S1_23  and  O1S_30 
REMARK       I    between atoms: S1_23  and  O3S_25 
ROOT
ATOM      1  C1  GNS d 142     -25.590 -11.280  61.286  0.00  0.00     0.150 C 
ATOM      2  C2  GNS d 142     -27.077 -11.089  61.017  0.00  0.00     0.081 C 
ATOM      3  N   GNS d 142     -27.854 -11.902  61.934  0.00  0.00    -0.210 NA
ATOM      4  O2S GNS d 142     -29.773 -10.377  61.759  0.00  0.00    -0.296 OA
ATOM      5  O3  GNS d 142     -28.738 -11.034  59.291  0.00  0.00    -0.391 OA
ATOM      6  C3  GNS d 142     -27.422 -11.452  59.578  0.00  0.00     0.083 C 
ATOM      7  C4  GNS d 142     -26.455 -10.792  58.602  0.00  0.00     0.089 C 
ATOM      8  O5  GNS d 142     -24.844 -10.523  60.357  0.00  0.00    -0.349 OA
ATOM      9  O4  GNS d 142     -26.640 -11.339  57.316  0.00  0.00    -0.390 OA
ATOM     10  O6  GNS d 142     -23.614  -9.079  58.725  0.00  0.00    -0.398 OA
ATOM     11  C6  GNS d 142     -24.048 -10.273  58.111  0.00  0.00     0.043 C 
ATOM     12  S1  GNS d 142     -29.104 -11.267  62.704  0.00  0.00     0.156 S 
ATOM     13  O3S GNS d 142     -29.955 -12.379  63.116  0.00  0.00    -0.296 OA
ATOM     14  C5  GNS d 142     -25.011 -11.001  59.040  0.00  0.00     0.089 C 
ATOM     15  O1S GNS d 142     -28.567 -10.538  63.850  0.00  0.00    -0.296 OA
ATOM     16  H   GNS d 142     -25.362 -10.951  62.278  0.00  0.00     0.131 H 
ATOM     17  H   GNS d 142     -27.317 -10.058  61.171  0.00  0.00     0.076 H 
ATOM     18  H   GNS d 142     -27.209 -12.240  62.648  0.00  0.00     0.140 HD
ATOM     19  H   GNS d 142     -29.173  -9.656  61.514  0.00  0.00     0.231 HD
ATOM     20  H   GNS d 142     -29.354 -11.453  59.912  0.00  0.00     0.210 HD
ATOM     21  H   GNS d 142     -27.343 -12.514  59.469  0.00  0.00     0.089 H 
ATOM     22  H   GNS d 142     -26.655  -9.741  58.585  0.00  0.00     0.091 H 
ATOM     23  H   GNS d 142     -26.456 -12.292  57.341  0.00  0.00     0.210 HD
ATOM     24  H   GNS d 142     -23.000  -8.616  58.134  0.00  0.00     0.209 HD
ATOM     25  H   GNS d 142     -23.203 -10.898  57.911  0.00  0.00     0.078 H 
ATOM     26  H   GNS d 142     -24.545 -10.040  57.193  0.00  0.00     0.078 H 
ATOM     27  H   GNS d 142     -30.291 -12.837  62.329  0.00  0.00     0.231 HD
ATOM     28  H   GNS d 142     -24.794 -12.048  59.001  0.00  0.00     0.090 H 
ATOM     29  H   GNS d 142     -28.009  -9.810  63.538  0.00  0.00     0.231 HD
ATOM     30  S   IDY d 143     -29.149 -15.571  61.359  0.00  0.00     0.252 S 
ATOM     31  O1  IDY d 143     -25.231 -17.266  61.478  0.00  0.00    -0.363 OA
ATOM     32  C5  IDY d 143     -24.159 -14.838  60.375  0.00  0.00     0.152 C 
ATOM     33  C4  IDY d 143     -24.587 -13.792  61.417  0.00  0.00     0.103 C 
ATOM     34  O62 IDY d 143     -24.403 -13.700  58.251  0.00  0.00    -0.646 OA
ATOM     35  O2  IDY d 143     -27.858 -14.740  61.532  0.00  0.00    -0.244 OA
ATOM     36  O61 IDY d 143     -22.344 -14.164  59.023  0.00  0.00    -0.646 OA
ATOM     37  C3  IDY d 143     -25.610 -14.294  62.453  0.00  0.00     0.094 C 
ATOM     38  C7  IDY d 143     -24.186 -17.008  61.862  0.00  0.00     0.007 C 
ATOM     39  O3  IDY d 143     -24.887 -14.949  63.502  0.00  0.00    -0.390 OA
ATOM     40  C2  IDY d 143     -26.626 -15.332  61.966  0.00  0.00     0.134 C 
ATOM     41  OS3 IDY d 143     -28.865 -16.967  60.879  0.00  0.00    -0.572 OA
ATOM     42  O4  IDY d 143     -25.257 -12.644  61.155  0.00  0.00    -0.348 OA
ATOM     43  C1  IDY d 143     -26.050 -16.261  60.890  0.00  0.00     0.160 C 
ATOM     44  C6  IDY d 143     -23.612 -14.172  59.148  0.00  0.00     0.206 C 
ATOM     45  OS1 IDY d 143     -30.061 -14.854  60.417  0.00  0.00    -0.572 OA
ATOM     46  O5  IDY d 143     -25.265 -15.608  59.886  0.00  0.00    -0.340 OA
ATOM     47  OS2 IDY d 143     -29.782 -15.635  62.682  0.00  0.00    -0.572 OA
ATOM     48  H   IDY d 143     -23.442 -15.452  60.879  0.00  0.00     0.104 H 
ATOM     49  H   IDY d 143     -23.559 -13.606  61.649  0.00  0.00     0.092 H 
ATOM     50  H   IDY d 143     -26.157 -13.418  62.733  0.00  0.00     0.091 H 
ATOM     51  H   IDY d 143     -23.728 -17.886  62.266  0.00  0.00     0.066 H 
ATOM     52  H   IDY d 143     -24.260 -16.261  62.624  0.00  0.00     0.066 H 
ATOM     53  H   IDY d 143     -23.592 -16.636  61.054  0.00  0.00     0.066 H 
ATOM     54  H   IDY d 143     -24.429 -15.725  63.144  0.00  0.00     0.210 HD
ATOM     55  H   IDY d 143     -26.852 -15.936  62.820  0.00  0.00     0.097 H 
ATOM     56  H   IDY d 143     -26.914 -16.671  60.412  0.00  0.00     0.133 H 
ENDROOT
TORSDOF 17
ENDMDL
MODEL 62
REMARK VINA RESULT:      -4.9      2.473      5.959
REMARK  0 active torsions:
REMARK  status: ('A' for Active; 'I' for Inactive)
REMARK       I    between atoms: C1_1  and  O4_26 
REMARK       I    between atoms: C2_2  and  N_3 
REMARK       I    between atoms: N_3  and  S1_23 
REMARK       I    between atoms: O2S_4  and  S1_23 
REMARK       I    between atoms: S_5  and  O2_15 
REMARK       I    between atoms: O1_6  and  C1_27 
REMARK       I    between atoms: O1_6  and  C7_20 
REMARK       I    between atoms: C5_7  and  C6_28 
REMARK       I    between atoms: O3_8  and  C3_9 
REMARK       I    between atoms: C4_10  and  O4_26 
REMARK       I    between atoms: C4_11  and  O4_14 
REMARK       I    between atoms: O2_15  and  C2_22 
REMARK       I    between atoms: O6_17  and  C6_18 
REMARK       I    between atoms: C6_18  and  C5_29 
REMARK       I    between atoms: C3_19  and  O3_21 
REMARK       I    between atoms: S1_23  and  O1S_30 
REMARK       I    between atoms: S1_23  and  O3S_25 
ROOT
ATOM      1  C1  GNS d 142     -24.950 -11.715  55.689  0.00  0.00     0.150 C 
ATOM      2  C2  GNS d 142     -26.340 -12.038  55.154  0.00  0.00     0.081 C 
ATOM      3  N   GNS d 142     -27.339 -11.273  55.875  0.00  0.00    -0.210 NA
ATOM      4  O2S GNS d 142     -28.879 -11.363  53.962  0.00  0.00    -0.296 OA
ATOM      5  O3  GNS d 142     -27.810 -13.833  54.554  0.00  0.00    -0.391 OA
ATOM      6  C3  GNS d 142     -26.637 -13.528  55.275  0.00  0.00     0.083 C 
ATOM      7  C4  GNS d 142     -25.479 -14.361  54.737  0.00  0.00     0.089 C 
ATOM      8  O5  GNS d 142     -23.993 -12.501  55.015  0.00  0.00    -0.349 OA
ATOM      9  O4  GNS d 142     -25.671 -15.713  55.088  0.00  0.00    -0.390 OA
ATOM     10  O6  GNS d 142     -22.363 -13.872  53.701  0.00  0.00    -0.398 OA
ATOM     11  C6  GNS d 142     -22.985 -14.652  54.698  0.00  0.00     0.043 C 
ATOM     12  S1  GNS d 142     -28.487 -10.500  55.073  0.00  0.00     0.156 S 
ATOM     13  O3S GNS d 142     -29.580 -10.276  56.013  0.00  0.00    -0.296 OA
ATOM     14  C5  GNS d 142     -24.150 -13.874  55.299  0.00  0.00     0.089 C 
ATOM     15  O1S GNS d 142     -27.903  -9.245  54.607  0.00  0.00    -0.296 OA
ATOM     16  H   GNS d 142     -24.739 -10.679  55.528  0.00  0.00     0.131 H 
ATOM     17  H   GNS d 142     -26.371 -11.772  54.118  0.00  0.00     0.076 H 
ATOM     18  H   GNS d 142     -26.836 -10.572  56.420  0.00  0.00     0.140 HD
ATOM     19  H   GNS d 142     -28.124 -11.484  53.366  0.00  0.00     0.231 HD
ATOM     20  H   GNS d 142     -28.547 -13.303  54.896  0.00  0.00     0.210 HD
ATOM     21  H   GNS d 142     -26.771 -13.763  56.310  0.00  0.00     0.089 H 
ATOM     22  H   GNS d 142     -25.455 -14.259  53.672  0.00  0.00     0.091 H 
ATOM     23  H   GNS d 142     -25.692 -15.796  56.054  0.00  0.00     0.210 HD
ATOM     24  H   GNS d 142     -21.622 -14.368  53.319  0.00  0.00     0.209 HD
ATOM     25  H   GNS d 142     -22.276 -14.882  55.466  0.00  0.00     0.078 H 
ATOM     26  H   GNS d 142     -23.348 -15.560  54.266  0.00  0.00     0.078 H 
ATOM     27  H   GNS d 142     -29.941 -11.130  56.299  0.00  0.00     0.231 HD
ATOM     28  H   GNS d 142     -24.153 -14.030  56.357  0.00  0.00     0.090 H 
ATOM     29  H   GNS d 142     -27.183  -9.434  53.986  0.00  0.00     0.231 HD
ATOM     30  S   IDY d 143     -29.318 -12.366  59.093  0.00  0.00     0.252 S 
ATOM     31  O1  IDY d 143     -25.860 -12.244  61.596  0.00  0.00    -0.363 OA
ATOM     32  C5  IDY d 143     -24.222 -12.978  59.351  0.00  0.00     0.152 C 
ATOM     33  C4  IDY d 143     -24.505 -11.840  58.357  0.00  0.00     0.103 C 
ATOM     34  O62 IDY d 143     -24.054 -14.956  57.963  0.00  0.00    -0.646 OA
ATOM     35  O2  IDY d 143     -27.901 -12.022  58.584  0.00  0.00    -0.244 OA
ATOM     36  O61 IDY d 143     -22.205 -14.136  58.941  0.00  0.00    -0.646 OA
ATOM     37  C3  IDY d 143     -25.689 -10.931  58.737  0.00  0.00     0.094 C 
ATOM     38  C7  IDY d 143     -24.818 -11.775  61.613  0.00  0.00     0.007 C 
ATOM     39  O3  IDY d 143     -25.204  -9.933  59.643  0.00  0.00    -0.390 OA
ATOM     40  C2  IDY d 143     -26.857 -11.597  59.472  0.00  0.00     0.134 C 
ATOM     41  OS3 IDY d 143     -29.293 -12.999  60.457  0.00  0.00    -0.572 OA
ATOM     42  O4  IDY d 143     -24.899 -11.995  57.070  0.00  0.00    -0.348 OA
ATOM     43  C1  IDY d 143     -26.402 -12.747  60.380  0.00  0.00     0.160 C 
ATOM     44  C6  IDY d 143     -23.453 -14.083  58.689  0.00  0.00     0.206 C 
ATOM     45  OS1 IDY d 143     -29.983 -13.261  58.099  0.00  0.00    -0.572 OA
ATOM     46  O5  IDY d 143     -25.422 -13.619  59.806  0.00  0.00    -0.340 OA
ATOM     47  OS2 IDY d 143     -30.053 -11.098  59.163  0.00  0.00    -0.572 OA
ATOM     48  H   IDY d 143     -23.691 -12.515  60.157  0.00  0.00     0.104 H 
ATOM     49  H   IDY d 143     -23.483 -11.531  58.424  0.00  0.00     0.092 H 
ATOM     50  H   IDY d 143     -26.063 -10.575  57.799  0.00  0.00     0.091 H 
ATOM     51  H   IDY d 143     -24.586 -11.458  62.608  0.00  0.00     0.066 H 
ATOM     52  H   IDY d 143     -24.795 -10.931  60.955  0.00  0.00     0.066 H 
ATOM     53  H   IDY d 143     -24.097 -12.497  61.292  0.00  0.00     0.066 H 
ATOM     54  H   IDY d 143     -24.890 -10.359  60.456  0.00  0.00     0.210 HD
ATOM     55  H   IDY d 143     -27.270 -10.838  60.102  0.00  0.00     0.097 H 
ATOM     56  H   IDY d 143     -27.292 -13.319  60.540  0.00  0.00     0.133 H 
ENDROOT
TORSDOF 17
ENDMDL
MODEL 63
REMARK VINA RESULT:      -4.9      3.232      6.933
REMARK  0 active torsions:
REMARK  status: ('A' for Active; 'I' for Inactive)
REMARK       I    between atoms: C1_1  and  O4_26 
REMARK       I    between atoms: C2_2  and  N_3 
REMARK       I    between atoms: N_3  and  S1_23 
REMARK       I    between atoms: O2S_4  and  S1_23 
REMARK       I    between atoms: S_5  and  O2_15 
REMARK       I    between atoms: O1_6  and  C1_27 
REMARK       I    between atoms: O1_6  and  C7_20 
REMARK       I    between atoms: C5_7  and  C6_28 
REMARK       I    between atoms: O3_8  and  C3_9 
REMARK       I    between atoms: C4_10  and  O4_26 
REMARK       I    between atoms: C4_11  and  O4_14 
REMARK       I    between atoms: O2_15  and  C2_22 
REMARK       I    between atoms: O6_17  and  C6_18 
REMARK       I    between atoms: C6_18  and  C5_29 
REMARK       I    between atoms: C3_19  and  O3_21 
REMARK       I    between atoms: S1_23  and  O1S_30 
REMARK       I    between atoms: S1_23  and  O3S_25 
ROOT
ATOM      1  C1  GNS d 142     -24.064 -16.576  59.023  0.00  0.00     0.150 C 
ATOM      2  C2  GNS d 142     -24.491 -16.373  60.471  0.00  0.00     0.081 C 
ATOM      3  N   GNS d 142     -25.641 -15.492  60.531  0.00  0.00    -0.210 NA
ATOM      4  O2S GNS d 142     -26.372 -16.484  62.657  0.00  0.00    -0.296 OA
ATOM      5  O3  GNS d 142     -23.688 -15.856  62.669  0.00  0.00    -0.391 OA
ATOM      6  C3  GNS d 142     -23.350 -15.798  61.301  0.00  0.00     0.083 C 
ATOM      7  C4  GNS d 142     -22.059 -16.572  61.065  0.00  0.00     0.089 C 
ATOM      8  O5  GNS d 142     -22.915 -17.394  58.982  0.00  0.00    -0.349 OA
ATOM      9  O4  GNS d 142     -20.980 -15.873  61.642  0.00  0.00    -0.390 OA
ATOM     10  O6  GNS d 142     -20.936 -18.924  59.008  0.00  0.00    -0.398 OA
ATOM     11  C6  GNS d 142     -20.556 -17.607  59.339  0.00  0.00     0.043 C 
ATOM     12  S1  GNS d 142     -26.901 -15.879  61.437  0.00  0.00     0.156 S 
ATOM     13  O3S GNS d 142     -27.627 -14.641  61.702  0.00  0.00    -0.296 OA
ATOM     14  C5  GNS d 142     -21.802 -16.762  59.575  0.00  0.00     0.089 C 
ATOM     15  O1S GNS d 142     -27.702 -16.825  60.665  0.00  0.00    -0.296 OA
ATOM     16  H   GNS d 142     -24.857 -17.045  58.480  0.00  0.00     0.131 H 
ATOM     17  H   GNS d 142     -24.756 -17.327  60.879  0.00  0.00     0.076 H 
ATOM     18  H   GNS d 142     -25.985 -15.392  59.575  0.00  0.00     0.140 HD
ATOM     19  H   GNS d 142     -25.899 -17.300  62.434  0.00  0.00     0.231 HD
ATOM     20  H   GNS d 142     -24.510 -15.364  62.820  0.00  0.00     0.210 HD
ATOM     21  H   GNS d 142     -23.196 -14.782  61.005  0.00  0.00     0.089 H 
ATOM     22  H   GNS d 142     -22.154 -17.537  61.518  0.00  0.00     0.091 H 
ATOM     23  H   GNS d 142     -20.901 -15.000  61.225  0.00  0.00     0.210 HD
ATOM     24  H   GNS d 142     -20.142 -19.461  58.857  0.00  0.00     0.209 HD
ATOM     25  H   GNS d 142     -19.987 -17.187  58.536  0.00  0.00     0.078 H 
ATOM     26  H   GNS d 142     -19.961 -17.620  60.228  0.00  0.00     0.078 H 
ATOM     27  H   GNS d 142     -27.064 -14.040  62.216  0.00  0.00     0.231 HD
ATOM     28  H   GNS d 142     -21.650 -15.800  59.133  0.00  0.00     0.090 H 
ATOM     29  H   GNS d 142     -27.188 -17.633  60.509  0.00  0.00     0.231 HD
ATOM     30  S   IDY d 143     -25.631 -11.581  60.942  0.00  0.00     0.252 S 
ATOM     31  O1  IDY d 143     -23.956 -10.902  57.074  0.00  0.00    -0.363 OA
ATOM     32  C5  IDY d 143     -22.539 -13.396  57.261  0.00  0.00     0.152 C 
ATOM     33  C4  IDY d 143     -23.683 -14.405  57.449  0.00  0.00     0.103 C 
ATOM     34  O62 IDY d 143     -20.770 -14.226  58.693  0.00  0.00    -0.646 OA
ATOM     35  O2  IDY d 143     -25.227 -12.712  59.971  0.00  0.00    -0.244 OA
ATOM     36  O61 IDY d 143     -20.533 -14.352  56.461  0.00  0.00    -0.646 OA
ATOM     37  C3  IDY d 143     -25.057 -13.776  57.748  0.00  0.00     0.094 C 
ATOM     38  C7  IDY d 143     -23.837 -11.441  56.073  0.00  0.00     0.007 C 
ATOM     39  O3  IDY d 143     -25.660 -13.422  56.498  0.00  0.00    -0.390 OA
ATOM     40  C2  IDY d 143     -25.054 -12.480  58.567  0.00  0.00     0.134 C 
ATOM     41  OS3 IDY d 143     -25.047 -10.254  60.544  0.00  0.00    -0.572 OA
ATOM     42  O4  IDY d 143     -23.771 -15.326  58.439  0.00  0.00    -0.348 OA
ATOM     43  C1  IDY d 143     -23.815 -11.617  58.297  0.00  0.00     0.160 C 
ATOM     44  C6  IDY d 143     -21.210 -14.050  57.498  0.00  0.00     0.206 C 
ATOM     45  OS1 IDY d 143     -25.209 -11.959  62.326  0.00  0.00    -0.572 OA
ATOM     46  O5  IDY d 143     -22.579 -12.338  58.228  0.00  0.00    -0.340 OA
ATOM     47  OS2 IDY d 143     -27.096 -11.497  60.895  0.00  0.00    -0.572 OA
ATOM     48  H   IDY d 143     -22.658 -13.026  56.264  0.00  0.00     0.104 H 
ATOM     49  H   IDY d 143     -23.436 -14.856  56.510  0.00  0.00     0.092 H 
ATOM     50  H   IDY d 143     -25.569 -14.517  58.326  0.00  0.00     0.091 H 
ATOM     51  H   IDY d 143     -23.977 -10.744  55.274  0.00  0.00     0.066 H 
ATOM     52  H   IDY d 143     -24.568 -12.220  55.999  0.00  0.00     0.066 H 
ATOM     53  H   IDY d 143     -22.857 -11.864  56.010  0.00  0.00     0.066 H 
ATOM     54  H   IDY d 143     -25.119 -12.747  56.058  0.00  0.00     0.210 HD
ATOM     55  H   IDY d 143     -25.906 -11.927  58.232  0.00  0.00     0.097 H 
ATOM     56  H   IDY d 143     -23.764 -10.964  59.143  0.00  0.00     0.133 H 
ENDROOT
TORSDOF 17
ENDMDL
MODEL 64
REMARK VINA RESULT:      -4.9      3.020      6.773
REMARK  0 active torsions:
REMARK  status: ('A' for Active; 'I' for Inactive)
REMARK       I    between atoms: C1_1  and  O4_26 
REMARK       I    between atoms: C2_2  and  N_3 
REMARK       I    between atoms: N_3  and  S1_23 
REMARK       I    between atoms: O2S_4  and  S1_23 
REMARK       I    between atoms: S_5  and  O2_15 
REMARK       I    between atoms: O1_6  and  C1_27 
REMARK       I    between atoms: O1_6  and  C7_20 
REMARK       I    between atoms: C5_7  and  C6_28 
REMARK       I    between atoms: O3_8  and  C3_9 
REMARK       I    between atoms: C4_10  and  O4_26 
REMARK       I    between atoms: C4_11  and  O4_14 
REMARK       I    between atoms: O2_15  and  C2_22 
REMARK       I    between atoms: O6_17  and  C6_18 
REMARK       I    between atoms: C6_18  and  C5_29 
REMARK       I    between atoms: C3_19  and  O3_21 
REMARK       I    between atoms: S1_23  and  O1S_30 
REMARK       I    between atoms: S1_23  and  O3S_25 
ROOT
ATOM      1  C1  GNS d 142     -24.135 -16.288  56.989  0.00  0.00     0.150 C 
ATOM      2  C2  GNS d 142     -23.245 -15.253  56.312  0.00  0.00     0.081 C 
ATOM      3  N   GNS d 142     -22.694 -14.349  57.303  0.00  0.00    -0.210 NA
ATOM      4  O2S GNS d 142     -20.752 -13.869  55.877  0.00  0.00    -0.296 OA
ATOM      5  O3  GNS d 142     -23.127 -13.701  54.490  0.00  0.00    -0.391 OA
ATOM      6  C3  GNS d 142     -24.023 -14.467  55.264  0.00  0.00     0.083 C 
ATOM      7  C4  GNS d 142     -24.810 -15.402  54.353  0.00  0.00     0.089 C 
ATOM      8  O5  GNS d 142     -24.704 -17.130  56.010  0.00  0.00    -0.349 OA
ATOM      9  O4  GNS d 142     -25.704 -14.648  53.566  0.00  0.00    -0.390 OA
ATOM     10  O6  GNS d 142     -25.590 -18.625  54.210  0.00  0.00    -0.398 OA
ATOM     11  C6  GNS d 142     -26.310 -17.413  54.255  0.00  0.00     0.043 C 
ATOM     12  S1  GNS d 142     -21.135 -13.991  57.280  0.00  0.00     0.156 S 
ATOM     13  O3S GNS d 142     -20.981 -12.735  58.009  0.00  0.00    -0.296 OA
ATOM     14  C5  GNS d 142     -25.589 -16.428  55.166  0.00  0.00     0.089 C 
ATOM     15  O1S GNS d 142     -20.440 -15.092  57.941  0.00  0.00    -0.296 OA
ATOM     16  H   GNS d 142     -23.549 -16.873  57.666  0.00  0.00     0.131 H 
ATOM     17  H   GNS d 142     -22.446 -15.768  55.821  0.00  0.00     0.076 H 
ATOM     18  H   GNS d 142     -22.890 -14.759  58.216  0.00  0.00     0.140 HD
ATOM     19  H   GNS d 142     -20.870 -14.723  55.435  0.00  0.00     0.231 HD
ATOM     20  H   GNS d 142     -22.625 -13.106  55.069  0.00  0.00     0.210 HD
ATOM     21  H   GNS d 142     -24.714 -13.824  55.768  0.00  0.00     0.089 H 
ATOM     22  H   GNS d 142     -24.119 -15.922  53.723  0.00  0.00     0.091 H 
ATOM     23  H   GNS d 142     -26.327 -14.179  54.145  0.00  0.00     0.210 HD
ATOM     24  H   GNS d 142     -26.049 -19.253  53.630  0.00  0.00     0.209 HD
ATOM     25  H   GNS d 142     -27.293 -17.596  54.634  0.00  0.00     0.078 H 
ATOM     26  H   GNS d 142     -26.379 -17.003  53.269  0.00  0.00     0.078 H 
ATOM     27  H   GNS d 142     -21.455 -12.030  57.541  0.00  0.00     0.231 HD
ATOM     28  H   GNS d 142     -26.319 -15.910  55.752  0.00  0.00     0.090 H 
ATOM     29  H   GNS d 142     -20.565 -15.906  57.430  0.00  0.00     0.231 HD
ATOM     30  S   IDY d 143     -24.205 -10.924  58.509  0.00  0.00     0.252 S 
ATOM     31  O1  IDY d 143     -27.527 -12.763  60.462  0.00  0.00    -0.363 OA
ATOM     32  C5  IDY d 143     -27.484 -14.881  58.519  0.00  0.00     0.152 C 
ATOM     33  C4  IDY d 143     -26.066 -15.449  58.692  0.00  0.00     0.103 C 
ATOM     34  O62 IDY d 143     -27.884 -14.987  56.133  0.00  0.00    -0.646 OA
ATOM     35  O2  IDY d 143     -24.466 -12.447  58.510  0.00  0.00    -0.244 OA
ATOM     36  O61 IDY d 143     -29.004 -16.374  57.501  0.00  0.00    -0.646 OA
ATOM     37  C3  IDY d 143     -25.125 -14.587  59.553  0.00  0.00     0.094 C 
ATOM     38  C7  IDY d 143     -27.831 -13.781  60.883  0.00  0.00     0.007 C 
ATOM     39  O3  IDY d 143     -25.357 -14.921  60.927  0.00  0.00    -0.390 OA
ATOM     40  C2  IDY d 143     -25.323 -13.070  59.476  0.00  0.00     0.134 C 
ATOM     41  OS3 IDY d 143     -25.413 -10.141  58.944  0.00  0.00    -0.572 OA
ATOM     42  O4  IDY d 143     -25.162 -15.634  57.699  0.00  0.00    -0.348 OA
ATOM     43  C1  IDY d 143     -26.789 -12.679  59.248  0.00  0.00     0.160 C 
ATOM     44  C6  IDY d 143     -28.143 -15.457  57.301  0.00  0.00     0.206 C 
ATOM     45  OS1 IDY d 143     -23.762 -10.512  57.143  0.00  0.00    -0.572 OA
ATOM     46  O5  IDY d 143     -27.480 -13.468  58.274  0.00  0.00    -0.340 OA
ATOM     47  OS2 IDY d 143     -23.110 -10.690  59.458  0.00  0.00    -0.572 OA
ATOM     48  H   IDY d 143     -27.991 -15.123  59.430  0.00  0.00     0.104 H 
ATOM     49  H   IDY d 143     -26.482 -16.377  59.026  0.00  0.00     0.092 H 
ATOM     50  H   IDY d 143     -24.147 -14.801  59.174  0.00  0.00     0.091 H 
ATOM     51  H   IDY d 143     -28.376 -13.643  61.794  0.00  0.00     0.066 H 
ATOM     52  H   IDY d 143     -26.954 -14.363  61.078  0.00  0.00     0.066 H 
ATOM     53  H   IDY d 143     -28.448 -14.291  60.174  0.00  0.00     0.066 H 
ATOM     54  H   IDY d 143     -26.267 -14.688  61.167  0.00  0.00     0.210 HD
ATOM     55  H   IDY d 143     -25.039 -12.694  60.437  0.00  0.00     0.097 H 
ATOM     56  H   IDY d 143     -26.736 -11.677  58.876  0.00  0.00     0.133 H 
ENDROOT
TORSDOF 17
ENDMDL
MODEL 65
REMARK VINA RESULT:      -4.9      2.521      6.646
REMARK  0 active torsions:
REMARK  status: ('A' for Active; 'I' for Inactive)
REMARK       I    between atoms: C1_1  and  O4_26 
REMARK       I    between atoms: C2_2  and  N_3 
REMARK       I    between atoms: N_3  and  S1_23 
REMARK       I    between atoms: O2S_4  and  S1_23 
REMARK       I    between atoms: S_5  and  O2_15 
REMARK       I    between atoms: O1_6  and  C1_27 
REMARK       I    between atoms: O1_6  and  C7_20 
REMARK       I    between atoms: C5_7  and  C6_28 
REMARK       I    between atoms: O3_8  and  C3_9 
REMARK       I    between atoms: C4_10  and  O4_26 
REMARK       I    between atoms: C4_11  and  O4_14 
REMARK       I    between atoms: O2_15  and  C2_22 
REMARK       I    between atoms: O6_17  and  C6_18 
REMARK       I    between atoms: C6_18  and  C5_29 
REMARK       I    between atoms: C3_19  and  O3_21 
REMARK       I    between atoms: S1_23  and  O1S_30 
REMARK       I    between atoms: S1_23  and  O3S_25 
ROOT
ATOM      1  C1  GNS d 142     -26.322 -14.852  58.571  0.00  0.00     0.150 C 
ATOM      2  C2  GNS d 142     -25.817 -14.622  59.990  0.00  0.00     0.081 C 
ATOM      3  N   GNS d 142     -26.905 -14.169  60.835  0.00  0.00    -0.210 NA
ATOM      4  O2S GNS d 142     -25.807 -15.071  62.840  0.00  0.00    -0.296 OA
ATOM      5  O3  GNS d 142     -24.078 -13.597  61.281  0.00  0.00    -0.391 OA
ATOM      6  C3  GNS d 142     -24.685 -13.603  60.008  0.00  0.00     0.083 C 
ATOM      7  C4  GNS d 142     -23.638 -13.931  58.948  0.00  0.00     0.089 C 
ATOM      8  O5  GNS d 142     -25.245 -15.243  57.748  0.00  0.00    -0.349 OA
ATOM      9  O4  GNS d 142     -22.746 -12.848  58.819  0.00  0.00    -0.390 OA
ATOM     10  O6  GNS d 142     -23.291 -16.019  56.391  0.00  0.00    -0.398 OA
ATOM     11  C6  GNS d 142     -23.258 -14.619  56.564  0.00  0.00     0.043 C 
ATOM     12  S1  GNS d 142     -27.131 -14.833  62.273  0.00  0.00     0.156 S 
ATOM     13  O3S GNS d 142     -27.908 -13.881  63.060  0.00  0.00    -0.296 OA
ATOM     14  C5  GNS d 142     -24.295 -14.211  57.602  0.00  0.00     0.089 C 
ATOM     15  O1S GNS d 142     -27.860 -16.079  62.052  0.00  0.00    -0.296 OA
ATOM     16  H   GNS d 142     -27.065 -15.621  58.577  0.00  0.00     0.131 H 
ATOM     17  H   GNS d 142     -25.441 -15.550  60.366  0.00  0.00     0.076 H 
ATOM     18  H   GNS d 142     -27.767 -14.309  60.307  0.00  0.00     0.140 HD
ATOM     19  H   GNS d 142     -25.329 -15.707  62.287  0.00  0.00     0.231 HD
ATOM     20  H   GNS d 142     -24.743 -13.389  61.955  0.00  0.00     0.210 HD
ATOM     21  H   GNS d 142     -25.094 -12.638  59.792  0.00  0.00     0.089 H 
ATOM     22  H   GNS d 142     -23.108 -14.808  59.256  0.00  0.00     0.091 H 
ATOM     23  H   GNS d 142     -23.234 -12.058  58.541  0.00  0.00     0.210 HD
ATOM     24  H   GNS d 142     -22.631 -16.279  55.729  0.00  0.00     0.209 HD
ATOM     25  H   GNS d 142     -23.477 -14.140  55.633  0.00  0.00     0.078 H 
ATOM     26  H   GNS d 142     -22.284 -14.324  56.896  0.00  0.00     0.078 H 
ATOM     27  H   GNS d 142     -27.393 -13.068  63.185  0.00  0.00     0.231 HD
ATOM     28  H   GNS d 142     -24.776 -13.316  57.269  0.00  0.00     0.090 H 
ATOM     29  H   GNS d 142     -27.314 -16.685  61.527  0.00  0.00     0.231 HD
ATOM     30  S   IDY d 143     -27.959 -10.455  61.583  0.00  0.00     0.252 S 
ATOM     31  O1  IDY d 143     -29.330  -9.752  57.600  0.00  0.00    -0.363 OA
ATOM     32  C5  IDY d 143     -27.360 -11.595  56.608  0.00  0.00     0.152 C 
ATOM     33  C4  IDY d 143     -27.732 -12.893  57.343  0.00  0.00     0.103 C 
ATOM     34  O62 IDY d 143     -24.938 -11.608  56.559  0.00  0.00    -0.646 OA
ATOM     35  O2  IDY d 143     -27.879 -11.501  60.450  0.00  0.00    -0.244 OA
ATOM     36  O61 IDY d 143     -26.081 -11.927  54.651  0.00  0.00    -0.646 OA
ATOM     37  C3  IDY d 143     -28.750 -12.719  58.485  0.00  0.00     0.094 C 
ATOM     38  C7  IDY d 143     -29.672 -10.343  56.683  0.00  0.00     0.007 C 
ATOM     39  O3  IDY d 143     -30.062 -12.744  57.911  0.00  0.00    -0.390 OA
ATOM     40  C2  IDY d 143     -28.685 -11.404  59.267  0.00  0.00     0.134 C 
ATOM     41  OS3 IDY d 143     -28.225  -9.070  61.060  0.00  0.00    -0.572 OA
ATOM     42  O4  IDY d 143     -26.884 -13.659  58.071  0.00  0.00    -0.348 OA
ATOM     43  C1  IDY d 143     -28.246 -10.221  58.395  0.00  0.00     0.160 C 
ATOM     44  C6  IDY d 143     -26.040 -11.739  55.910  0.00  0.00     0.206 C 
ATOM     45  OS1 IDY d 143     -26.689 -10.496  62.369  0.00  0.00    -0.572 OA
ATOM     46  O5  IDY d 143     -27.156 -10.496  57.507  0.00  0.00    -0.340 OA
ATOM     47  OS2 IDY d 143     -29.071 -10.865  62.449  0.00  0.00    -0.572 OA
ATOM     48  H   IDY d 143     -28.175 -11.413  55.939  0.00  0.00     0.104 H 
ATOM     49  H   IDY d 143     -27.973 -13.350  56.406  0.00  0.00     0.092 H 
ATOM     50  H   IDY d 143     -28.520 -13.510  59.169  0.00  0.00     0.091 H 
ATOM     51  H   IDY d 143     -30.492  -9.837  56.218  0.00  0.00     0.066 H 
ATOM     52  H   IDY d 143     -29.982 -11.322  56.985  0.00  0.00     0.066 H 
ATOM     53  H   IDY d 143     -28.863 -10.423  55.989  0.00  0.00     0.066 H 
ATOM     54  H   IDY d 143     -30.166 -11.990  57.310  0.00  0.00     0.210 HD
ATOM     55  H   IDY d 143     -29.688 -11.210  59.586  0.00  0.00     0.097 H 
ATOM     56  H   IDY d 143     -27.914  -9.488  59.099  0.00  0.00     0.133 H 
ENDROOT
TORSDOF 17
ENDMDL
MODEL 66
REMARK VINA RESULT:      -4.9      2.341      4.820
REMARK  0 active torsions:
REMARK  status: ('A' for Active; 'I' for Inactive)
REMARK       I    between atoms: C1_1  and  O4_26 
REMARK       I    between atoms: C2_2  and  N_3 
REMARK       I    between atoms: N_3  and  S1_23 
REMARK       I    between atoms: O2S_4  and  S1_23 
REMARK       I    between atoms: S_5  and  O2_15 
REMARK       I    between atoms: O1_6  and  C1_27 
REMARK       I    between atoms: O1_6  and  C7_20 
REMARK       I    between atoms: C5_7  and  C6_28 
REMARK       I    between atoms: O3_8  and  C3_9 
REMARK       I    between atoms: C4_10  and  O4_26 
REMARK       I    between atoms: C4_11  and  O4_14 
REMARK       I    between atoms: O2_15  and  C2_22 
REMARK       I    between atoms: O6_17  and  C6_18 
REMARK       I    between atoms: C6_18  and  C5_29 
REMARK       I    between atoms: C3_19  and  O3_21 
REMARK       I    between atoms: S1_23  and  O1S_30 
REMARK       I    between atoms: S1_23  and  O3S_25 
ROOT
ATOM      1  C1  GNS d 142     -26.913 -12.332  60.245  0.00  0.00     0.150 C 
ATOM      2  C2  GNS d 142     -25.418 -12.260  59.963  0.00  0.00     0.081 C 
ATOM      3  N   GNS d 142     -25.184 -11.598  58.694  0.00  0.00    -0.210 NA
ATOM      4  O2S GNS d 142     -22.949 -10.871  59.413  0.00  0.00    -0.296 OA
ATOM      5  O3  GNS d 142     -23.393 -13.541  59.933  0.00  0.00    -0.391 OA
ATOM      6  C3  GNS d 142     -24.798 -13.652  59.946  0.00  0.00     0.083 C 
ATOM      7  C4  GNS d 142     -25.233 -14.457  61.165  0.00  0.00     0.089 C 
ATOM      8  O5  GNS d 142     -27.130 -13.022  61.456  0.00  0.00    -0.349 OA
ATOM      9  O4  GNS d 142     -24.855 -15.805  60.996  0.00  0.00    -0.390 OA
ATOM     10  O6  GNS d 142     -27.406 -14.177  63.658  0.00  0.00    -0.398 OA
ATOM     11  C6  GNS d 142     -27.166 -15.110  62.629  0.00  0.00     0.043 C 
ATOM     12  S1  GNS d 142     -24.074 -10.451  58.582  0.00  0.00     0.156 S 
ATOM     13  O3S GNS d 142     -23.714 -10.348  57.172  0.00  0.00    -0.296 OA
ATOM     14  C5  GNS d 142     -26.741 -14.374  61.364  0.00  0.00     0.089 C 
ATOM     15  O1S GNS d 142     -24.687  -9.221  59.079  0.00  0.00    -0.296 OA
ATOM     16  H   GNS d 142     -27.309 -11.341  60.322  0.00  0.00     0.131 H 
ATOM     17  H   GNS d 142     -24.955 -11.696  60.746  0.00  0.00     0.076 H 
ATOM     18  H   GNS d 142     -26.070 -11.178  58.412  0.00  0.00     0.140 HD
ATOM     19  H   GNS d 142     -23.234 -10.925  60.338  0.00  0.00     0.231 HD
ATOM     20  H   GNS d 142     -23.115 -13.028  59.157  0.00  0.00     0.210 HD
ATOM     21  H   GNS d 142     -25.134 -14.161  59.066  0.00  0.00     0.089 H 
ATOM     22  H   GNS d 142     -24.753 -14.048  62.030  0.00  0.00     0.091 H 
ATOM     23  H   GNS d 142     -25.293 -16.167  60.211  0.00  0.00     0.210 HD
ATOM     24  H   GNS d 142     -27.677 -14.645  64.463  0.00  0.00     0.209 HD
ATOM     25  H   GNS d 142     -28.059 -15.666  62.435  0.00  0.00     0.078 H 
ATOM     26  H   GNS d 142     -26.387 -15.780  62.930  0.00  0.00     0.078 H 
ATOM     27  H   GNS d 142     -23.311 -11.181  56.880  0.00  0.00     0.231 HD
ATOM     28  H   GNS d 142     -27.218 -14.836  60.526  0.00  0.00     0.090 H 
ATOM     29  H   GNS d 142     -24.912  -9.327  60.016  0.00  0.00     0.231 HD
ATOM     30  S   IDY d 143     -24.846 -13.275  55.153  0.00  0.00     0.252 S 
ATOM     31  O1  IDY d 143     -28.950 -14.447  55.012  0.00  0.00    -0.363 OA
ATOM     32  C5  IDY d 143     -28.957 -14.726  57.873  0.00  0.00     0.152 C 
ATOM     33  C4  IDY d 143     -28.565 -13.314  58.337  0.00  0.00     0.103 C 
ATOM     34  O62 IDY d 143     -27.825 -16.202  59.425  0.00  0.00    -0.646 OA
ATOM     35  O2  IDY d 143     -25.851 -13.021  56.298  0.00  0.00    -0.244 OA
ATOM     36  O61 IDY d 143     -30.062 -16.010  59.518  0.00  0.00    -0.646 OA
ATOM     37  C3  IDY d 143     -28.054 -12.386  57.220  0.00  0.00     0.094 C 
ATOM     38  C7  IDY d 143     -29.947 -14.173  55.499  0.00  0.00     0.007 C 
ATOM     39  O3  IDY d 143     -29.192 -11.792  56.586  0.00  0.00    -0.390 OA
ATOM     40  C2  IDY d 143     -27.269 -13.049  56.083  0.00  0.00     0.134 C 
ATOM     41  OS3 IDY d 143     -25.358 -14.281  54.159  0.00  0.00    -0.572 OA
ATOM     42  O4  IDY d 143     -27.559 -13.015  59.194  0.00  0.00    -0.348 OA
ATOM     43  C1  IDY d 143     -27.755 -14.473  55.786  0.00  0.00     0.160 C 
ATOM     44  C6  IDY d 143     -28.933 -15.689  59.023  0.00  0.00     0.206 C 
ATOM     45  OS1 IDY d 143     -23.546 -13.717  55.742  0.00  0.00    -0.572 OA
ATOM     46  O5  IDY d 143     -28.015 -15.277  56.942  0.00  0.00    -0.340 OA
ATOM     47  OS2 IDY d 143     -24.651 -11.986  54.478  0.00  0.00    -0.572 OA
ATOM     48  H   IDY d 143     -29.927 -14.614  57.435  0.00  0.00     0.104 H 
ATOM     49  H   IDY d 143     -29.524 -13.203  58.799  0.00  0.00     0.092 H 
ATOM     50  H   IDY d 143     -27.386 -11.713  57.718  0.00  0.00     0.091 H 
ATOM     51  H   IDY d 143     -30.724 -14.207  54.765  0.00  0.00     0.066 H 
ATOM     52  H   IDY d 143     -29.886 -13.186  55.908  0.00  0.00     0.066 H 
ATOM     53  H   IDY d 143     -30.165 -14.871  56.281  0.00  0.00     0.066 H 
ATOM     54  H   IDY d 143     -29.727 -12.484  56.168  0.00  0.00     0.210 HD
ATOM     55  H   IDY d 143     -27.467 -12.457  55.215  0.00  0.00     0.097 H 
ATOM     56  H   IDY d 143     -26.941 -14.920  55.256  0.00  0.00     0.133 H 
ENDROOT
TORSDOF 17
ENDMDL
MODEL 67
REMARK VINA RESULT:      -4.8      2.658      4.993
REMARK  0 active torsions:
REMARK  status: ('A' for Active; 'I' for Inactive)
REMARK       I    between atoms: C1_1  and  O4_26 
REMARK       I    between atoms: C2_2  and  N_3 
REMARK       I    between atoms: N_3  and  S1_23 
REMARK       I    between atoms: O2S_4  and  S1_23 
REMARK       I    between atoms: S_5  and  O2_15 
REMARK       I    between atoms: O1_6  and  C1_27 
REMARK       I    between atoms: O1_6  and  C7_20 
REMARK       I    between atoms: C5_7  and  C6_28 
REMARK       I    between atoms: O3_8  and  C3_9 
REMARK       I    between atoms: C4_10  and  O4_26 
REMARK       I    between atoms: C4_11  and  O4_14 
REMARK       I    between atoms: O2_15  and  C2_22 
REMARK       I    between atoms: O6_17  and  C6_18 
REMARK       I    between atoms: C6_18  and  C5_29 
REMARK       I    between atoms: C3_19  and  O3_21 
REMARK       I    between atoms: S1_23  and  O1S_30 
REMARK       I    between atoms: S1_23  and  O3S_25 
ROOT
ATOM      1  C1  GNS d 142     -27.285 -13.108  59.500  0.00  0.00     0.150 C 
ATOM      2  C2  GNS d 142     -25.921 -13.596  59.030  0.00  0.00     0.081 C 
ATOM      3  N   GNS d 142     -25.726 -14.979  59.422  0.00  0.00    -0.210 NA
ATOM      4  O2S GNS d 142     -24.161 -15.351  57.564  0.00  0.00    -0.296 OA
ATOM      5  O3  GNS d 142     -23.590 -13.044  58.959  0.00  0.00    -0.391 OA
ATOM      6  C3  GNS d 142     -24.805 -12.730  59.602  0.00  0.00     0.083 C 
ATOM      7  C4  GNS d 142     -25.112 -11.249  59.412  0.00  0.00     0.089 C 
ATOM      8  O5  GNS d 142     -27.442 -11.749  59.157  0.00  0.00    -0.349 OA
ATOM      9  O4  GNS d 142     -24.200 -10.481  60.164  0.00  0.00    -0.390 OA
ATOM     10  O6  GNS d 142     -27.662  -9.366  58.426  0.00  0.00    -0.398 OA
ATOM     11  C6  GNS d 142     -26.868  -9.463  59.588  0.00  0.00     0.043 C 
ATOM     12  S1  GNS d 142     -25.172 -16.040  58.361  0.00  0.00     0.156 S 
ATOM     13  O3S GNS d 142     -24.612 -17.149  59.128  0.00  0.00    -0.296 OA
ATOM     14  C5  GNS d 142     -26.534 -10.925  59.854  0.00  0.00     0.089 C 
ATOM     15  O1S GNS d 142     -26.311 -16.460  57.550  0.00  0.00    -0.296 OA
ATOM     16  H   GNS d 142     -28.052 -13.686  59.029  0.00  0.00     0.131 H 
ATOM     17  H   GNS d 142     -25.888 -13.523  57.963  0.00  0.00     0.076 H 
ATOM     18  H   GNS d 142     -26.632 -15.325  59.739  0.00  0.00     0.140 HD
ATOM     19  H   GNS d 142     -24.577 -14.625  57.074  0.00  0.00     0.231 HD
ATOM     20  H   GNS d 142     -23.394 -13.987  59.080  0.00  0.00     0.210 HD
ATOM     21  H   GNS d 142     -24.728 -12.929  60.651  0.00  0.00     0.089 H 
ATOM     22  H   GNS d 142     -25.018 -11.014  58.373  0.00  0.00     0.091 H 
ATOM     23  H   GNS d 142     -24.292 -10.700  61.105  0.00  0.00     0.210 HD
ATOM     24  H   GNS d 142     -27.875  -8.435  58.257  0.00  0.00     0.209 HD
ATOM     25  H   GNS d 142     -27.406  -9.062  60.422  0.00  0.00     0.078 H 
ATOM     26  H   GNS d 142     -25.963  -8.909  59.449  0.00  0.00     0.078 H 
ATOM     27  H   GNS d 142     -23.860 -16.831  59.653  0.00  0.00     0.231 HD
ATOM     28  H   GNS d 142     -26.609 -11.106  60.906  0.00  0.00     0.090 H 
ATOM     29  H   GNS d 142     -26.655 -15.700  57.056  0.00  0.00     0.231 HD
ATOM     30  S   IDY d 143     -24.052 -16.311  62.721  0.00  0.00     0.252 S 
ATOM     31  O1  IDY d 143     -27.225 -14.923  65.219  0.00  0.00    -0.363 OA
ATOM     32  C5  IDY d 143     -27.685 -12.741  63.404  0.00  0.00     0.152 C 
ATOM     33  C4  IDY d 143     -27.992 -13.474  62.089  0.00  0.00     0.103 C 
ATOM     34  O62 IDY d 143     -26.387 -10.812  62.725  0.00  0.00    -0.646 OA
ATOM     35  O2  IDY d 143     -25.279 -15.533  62.198  0.00  0.00    -0.244 OA
ATOM     36  O61 IDY d 143     -28.484 -10.520  63.480  0.00  0.00    -0.646 OA
ATOM     37  C3  IDY d 143     -27.686 -14.983  62.103  0.00  0.00     0.094 C 
ATOM     38  C7  IDY d 143     -28.323 -14.615  65.136  0.00  0.00     0.007 C 
ATOM     39  O3  IDY d 143     -28.818 -15.656  62.667  0.00  0.00    -0.390 OA
ATOM     40  C2  IDY d 143     -26.494 -15.433  62.954  0.00  0.00     0.134 C 
ATOM     41  OS3 IDY d 143     -23.910 -16.211  64.215  0.00  0.00    -0.572 OA
ATOM     42  O4  IDY d 143     -27.381 -13.253  60.899  0.00  0.00    -0.348 OA
ATOM     43  C1  IDY d 143     -26.298 -14.560  64.201  0.00  0.00     0.160 C 
ATOM     44  C6  IDY d 143     -27.504 -11.272  63.164  0.00  0.00     0.206 C 
ATOM     45  OS1 IDY d 143     -22.828 -15.802  62.031  0.00  0.00    -0.572 OA
ATOM     46  O5  IDY d 143     -26.437 -13.152  63.981  0.00  0.00    -0.340 OA
ATOM     47  OS2 IDY d 143     -24.261 -17.715  62.349  0.00  0.00    -0.572 OA
ATOM     48  H   IDY d 143     -28.511 -12.968  64.046  0.00  0.00     0.104 H 
ATOM     49  H   IDY d 143     -28.986 -13.077  62.103  0.00  0.00     0.092 H 
ATOM     50  H   IDY d 143     -27.457 -15.218  61.084  0.00  0.00     0.091 H 
ATOM     51  H   IDY d 143     -28.859 -14.976  65.989  0.00  0.00     0.066 H 
ATOM     52  H   IDY d 143     -28.745 -15.035  64.247  0.00  0.00     0.066 H 
ATOM     53  H   IDY d 143     -28.392 -13.549  65.096  0.00  0.00     0.066 H 
ATOM     54  H   IDY d 143     -28.936 -15.373  63.587  0.00  0.00     0.210 HD
ATOM     55  H   IDY d 143     -26.737 -16.419  63.290  0.00  0.00     0.097 H 
ATOM     56  H   IDY d 143     -25.286 -14.746  64.491  0.00  0.00     0.133 H 
ENDROOT
TORSDOF 17
ENDMDL
