REMARK  0 active torsions:
REMARK  status: ('A' for Active; 'I' for Inactive)
REMARK       I    between atoms: O1S_1  and  S1_169 
REMARK       I    between atoms: C4_2  and  O4_156 
REMARK       I    between atoms: O6_3  and  C6_15 
REMARK       I    between atoms: O6_3  and  S2_79 
REMARK       I    between atoms: C1_4  and  O4_108 
REMARK       I    between atoms: O4_5  and  C4_135 
REMARK       I    between atoms: O4_5  and  C1_40 
REMARK       I    between atoms: N_6  and  C2_25 
REMARK       I    between atoms: N_6  and  S1_103 
REMARK       I    between atoms: N_7  and  C2_140 
REMARK       I    between atoms: N_7  and  S1_132 
REMARK       I    between atoms: C4_8  and  O4_46 
REMARK       I    between atoms: C6_9  and  C5_117 
REMARK       I    between atoms: C6_9  and  O6_36 
REMARK       I    between atoms: C5_10  and  C6_43 
REMARK       I    between atoms: S2_11  and  O6_36 
REMARK       I    between atoms: N_12  and  C2_162 
REMARK       I    between atoms: N_12  and  S1_169 
REMARK       I    between atoms: C5_13  and  C6_23 
REMARK       I    between atoms: C1_14  and  O1_150 
REMARK       I    between atoms: C6_15  and  C5_75 
REMARK       I    between atoms: N_16  and  C2_149 
REMARK       I    between atoms: N_16  and  S1_69 
REMARK       I    between atoms: C4_17  and  O4_76 
REMARK       I    between atoms: O3_18  and  C3_165 
REMARK       I    between atoms: O4_19  and  C4_32 
REMARK       I    between atoms: O4_19  and  C1_24 
REMARK       I    between atoms: C2_20  and  O2_42 
REMARK       I    between atoms: O2S_21  and  S1_169 
REMARK       I    between atoms: C1_26  and  O4_174 
REMARK       I    between atoms: C4_27  and  O4_174 
REMARK       I    between atoms: S_28  and  O2_129 
REMARK       I    between atoms: O1S_29  and  S1_103 
REMARK       I    between atoms: C3_30  and  O3_146 
REMARK       I    between atoms: O3_34  and  C3_160 
REMARK       I    between atoms: C5_35  and  C6_41 
REMARK       I    between atoms: O6_38  and  C6_41 
REMARK       I    between atoms: O6_38  and  S2_57 
REMARK       I    between atoms: O2_42  and  S_144 
REMARK       I    between atoms: O6_44  and  C6_106 
REMARK       I    between atoms: O6_44  and  S2_173 
REMARK       I    between atoms: O4_46  and  C1_83 
REMARK       I    between atoms: O3_47  and  C3_164 
REMARK       I    between atoms: O3S_49  and  S1_169 
REMARK       I    between atoms: C2_50  and  O2_119 
REMARK       I    between atoms: S_52  and  O2_151 
REMARK       I    between atoms: C5_53  and  C6_168 
REMARK       I    between atoms: O2S_54  and  S1_132 
REMARK       I    between atoms: O2_58  and  C2_171 
REMARK       I    between atoms: O2_58  and  S_154 
REMARK       I    between atoms: O3S_59  and  S1_103 
REMARK       I    between atoms: C4_61  and  O4_131 
REMARK       I    between atoms: O1S_63  and  S1_82 
REMARK       I    between atoms: O3_64  and  C3_153 
REMARK       I    between atoms: O2S_65  and  S1_82 
REMARK       I    between atoms: C5_68  and  C6_99 
REMARK       I    between atoms: S1_69  and  O1S_130 
REMARK       I    between atoms: S1_69  and  O2S_102 
REMARK       I    between atoms: S1_69  and  O3S_170 
REMARK       I    between atoms: O2S_71  and  S1_103 
REMARK       I    between atoms: O3_73  and  C3_145 
REMARK       I    between atoms: C3_74  and  O3_147 
REMARK       I    between atoms: O4_76  and  C1_158 
REMARK       I    between atoms: C1_77  and  O4_172 
REMARK       I    between atoms: S1_82  and  N_105 
REMARK       I    between atoms: S1_82  and  O3S_118 
REMARK       I    between atoms: C5_84  and  C6_116 
REMARK       I    between atoms: O3_85  and  C3_141 
REMARK       I    between atoms: C5_86  and  C6_163 
REMARK       I    between atoms: S_88  and  O2_119 
REMARK       I    between atoms: C1_89  and  O4_131 
REMARK       I    between atoms: C1_94  and  O4_156 
REMARK       I    between atoms: C3_98  and  O3_104 
REMARK       I    between atoms: N_105  and  C2_123 
REMARK       I    between atoms: C6_106  and  C5_148 
REMARK       I    between atoms: O4_108  and  C4_133 
REMARK       I    between atoms: O3S_110  and  S1_132 
REMARK       I    between atoms: C4_111  and  O4_172 
REMARK       I    between atoms: S2_121  and  O6_137 
REMARK       I    between atoms: O2_129  and  C2_159 
REMARK       I    between atoms: S1_132  and  O1S_134 
REMARK       I    between atoms: O6_137  and  C6_168 
REMARK       I    between atoms: O3_139  and  C3_161 
REMARK       I    between atoms: O2_151  and  C2_157 
ROOT
ATOM      1  O1S SGN d 202      28.964 138.306  -1.658  0.00  0.00    -0.296 OA
ATOM      2  C6  SGN d 202      30.490 131.666  -2.450  0.00  0.00     0.067 C 
ATOM      3  S2  SGN d 202      28.012 130.500  -2.604  0.00  0.00     0.251 S 
ATOM      4  N   SGN d 202      30.617 136.985  -0.237  0.00  0.00    -0.210 NA
ATOM      5  C1  SGN d 202      30.481 135.420  -2.170  0.00  0.00     0.147 C 
ATOM      6  O4  SGN d 202      31.477 132.118   0.408  0.00  0.00    -0.348 OA
ATOM      7  O2S SGN d 202      28.427 137.842   0.648  0.00  0.00    -0.296 OA
ATOM      8  C4  SGN d 202      30.697 133.122  -0.302  0.00  0.00     0.095 C 
ATOM      9  O6  SGN d 202      29.076 131.613  -2.239  0.00  0.00    -0.254 OA
ATOM     10  O3S SGN d 202      30.180 139.391   0.089  0.00  0.00    -0.296 OA
ATOM     11  O6S SGN d 202      28.049 130.346  -4.048  0.00  0.00    -0.572 OA
ATOM     12  O5  SGN d 202      30.196 134.063  -2.560  0.00  0.00    -0.350 OA
ATOM     13  C5  SGN d 202      30.948 133.022  -1.852  0.00  0.00     0.091 C 
ATOM     14  O5S SGN d 202      26.740 131.037  -2.137  0.00  0.00    -0.572 OA
ATOM     15  O3  SGN d 202      30.936 134.683   1.550  0.00  0.00    -0.391 OA
ATOM     16  O1  SGN d 202      31.775 135.797  -2.592  0.00  0.00    -0.369 OA
ATOM     17  O4S SGN d 202      28.399 129.305  -1.885  0.00  0.00    -0.572 OA
ATOM     18  C3  SGN d 202      31.151 134.536   0.153  0.00  0.00     0.083 C 
ATOM     19  C2  SGN d 202      30.280 135.581  -0.621  0.00  0.00     0.081 C 
ATOM     20  S1  SGN d 202      29.465 138.199  -0.304  0.00  0.00     0.156 S 
ATOM     21  H   SGN d 202      28.490 137.493  -1.893  0.00  0.00     0.231 HD
ATOM     22  H   SGN d 202      30.974 130.854  -1.949  0.00  0.00     0.080 H 
ATOM     23  H   SGN d 202      30.740 131.585  -3.487  0.00  0.00     0.080 H 
ATOM     24  H   SGN d 202      31.381 137.277  -0.847  0.00  0.00     0.140 HD
ATOM     25  H   SGN d 202      29.796 136.084  -2.654  0.00  0.00     0.131 H 
ATOM     26  H   SGN d 202      27.974 137.039   0.346  0.00  0.00     0.231 HD
ATOM     27  H   SGN d 202      29.662 132.957  -0.087  0.00  0.00     0.091 H 
ATOM     28  H   SGN d 202      30.861 139.592  -0.572  0.00  0.00     0.231 HD
ATOM     29  H   SGN d 202      32.005 133.132  -1.980  0.00  0.00     0.090 H 
ATOM     30  H   SGN d 202      31.476 134.036   2.030  0.00  0.00     0.210 HD
ATOM     31  H   SGN d 202      32.432 135.218  -2.176  0.00  0.00     0.212 HD
ATOM     32  H   SGN d 202      32.191 134.681  -0.051  0.00  0.00     0.089 H 
ATOM     33  H   SGN d 202      29.260 135.391  -0.358  0.00  0.00     0.076 H 
ATOM     34  C4  SGN d 210      19.353 108.744  14.052  0.00  0.00     0.095 C 
ATOM     35  N   SGN d 210      17.623 111.211  11.813  0.00  0.00    -0.210 NA
ATOM     36  C2  SGN d 210      18.352 110.002  12.194  0.00  0.00     0.081 C 
ATOM     37  C1  SGN d 210      19.728 109.920  11.399  0.00  0.00     0.150 C 
ATOM     38  O1S SGN d 210      16.354 111.323   9.667  0.00  0.00    -0.296 OA
ATOM     39  O3  SGN d 210      17.417 110.068  14.422  0.00  0.00    -0.391 OA
ATOM     40  C5  SGN d 210      20.713 108.688  13.237  0.00  0.00     0.091 C 
ATOM     41  O6  SGN d 210      20.868 106.296  12.978  0.00  0.00    -0.254 OA
ATOM     42  C6  SGN d 210      21.555 107.414  13.479  0.00  0.00     0.067 C 
ATOM     43  O6S SGN d 210      20.853 106.236  10.600  0.00  0.00    -0.572 OA
ATOM     44  S2  SGN d 210      21.243 105.456  11.742  0.00  0.00     0.251 S 
ATOM     45  O3S SGN d 210      15.370 112.140  11.700  0.00  0.00    -0.296 OA
ATOM     46  O5S SGN d 210      20.463 104.253  11.885  0.00  0.00    -0.572 OA
ATOM     47  O2S SGN d 210      15.636 109.773  11.378  0.00  0.00    -0.296 OA
ATOM     48  O4S SGN d 210      22.662 105.225  11.810  0.00  0.00    -0.572 OA
ATOM     49  S1  SGN d 210      16.155 111.094  11.083  0.00  0.00     0.156 S 
ATOM     50  O5  SGN d 210      20.437 108.746  11.790  0.00  0.00    -0.349 OA
ATOM     51  O4  SGN d 210      19.572 108.751  15.466  0.00  0.00    -0.348 OA
ATOM     52  C3  SGN d 210      18.631 110.016  13.704  0.00  0.00     0.083 C 
ATOM     53  H   SGN d 210      18.787 107.874  13.793  0.00  0.00     0.091 H 
ATOM     54  H   SGN d 210      18.227 111.730  11.176  0.00  0.00     0.140 HD
ATOM     55  H   SGN d 210      17.755 109.148  11.951  0.00  0.00     0.076 H 
ATOM     56  H   SGN d 210      19.509 109.904  10.352  0.00  0.00     0.131 H 
ATOM     57  H   SGN d 210      16.701 112.219   9.530  0.00  0.00     0.231 HD
ATOM     58  H   SGN d 210      17.604 110.076  15.374  0.00  0.00     0.210 HD
ATOM     59  H   SGN d 210      21.274 109.529  13.586  0.00  0.00     0.090 H 
ATOM     60  H   SGN d 210      21.720 107.290  14.529  0.00  0.00     0.080 H 
ATOM     61  H   SGN d 210      22.496 107.508  12.978  0.00  0.00     0.080 H 
ATOM     62  H   SGN d 210      15.751 113.004  11.478  0.00  0.00     0.231 HD
ATOM     63  H   SGN d 210      16.190 109.104  10.946  0.00  0.00     0.231 HD
ATOM     64  H   SGN d 210      19.219 110.873  13.959  0.00  0.00     0.089 H 
ATOM     65  O6  SGN d 206      23.896 121.049   5.787  0.00  0.00    -0.254 OA
ATOM     66  N   SGN d 206      22.054 126.164   8.489  0.00  0.00    -0.210 NA
ATOM     67  C6  SGN d 206      25.019 121.773   6.196  0.00  0.00     0.067 C 
ATOM     68  C4  SGN d 206      24.044 122.890   8.313  0.00  0.00     0.095 C 
ATOM     69  O2S SGN d 206      20.157 126.671  10.047  0.00  0.00    -0.296 OA
ATOM     70  C5  SGN d 206      24.570 123.086   6.851  0.00  0.00     0.091 C 
ATOM     71  O4  SGN d 206      25.097 122.418   9.131  0.00  0.00    -0.348 OA
ATOM     72  C1  SGN d 206      23.137 124.978   6.540  0.00  0.00     0.150 C 
ATOM     73  S2  SGN d 206      23.573 120.601   4.325  0.00  0.00     0.251 S 
ATOM     74  O5  SGN d 206      23.500 123.684   6.028  0.00  0.00    -0.349 OA
ATOM     75  C3  SGN d 206      23.580 124.249   8.878  0.00  0.00     0.083 C 
ATOM     76  O3  SGN d 206      23.075 124.063  10.193  0.00  0.00    -0.391 OA
ATOM     77  O3S SGN d 206      20.411 127.931   7.981  0.00  0.00    -0.296 OA
ATOM     78  O4S SGN d 206      24.545 119.582   3.961  0.00  0.00    -0.572 OA
ATOM     79  O6S SGN d 206      23.661 121.803   3.512  0.00  0.00    -0.572 OA
ATOM     80  O5S SGN d 206      22.232 120.087   4.395  0.00  0.00    -0.572 OA
ATOM     81  S1  SGN d 206      20.454 126.616   8.606  0.00  0.00     0.156 S 
ATOM     82  O1S SGN d 206      19.640 125.655   7.880  0.00  0.00    -0.296 OA
ATOM     83  C2  SGN d 206      22.465 124.825   7.960  0.00  0.00     0.081 C 
ATOM     84  H   SGN d 206      22.503 126.857   7.891  0.00  0.00     0.140 HD
ATOM     85  H   SGN d 206      25.633 121.990   5.347  0.00  0.00     0.080 H 
ATOM     86  H   SGN d 206      25.578 121.195   6.902  0.00  0.00     0.080 H 
ATOM     87  H   SGN d 206      23.234 122.191   8.302  0.00  0.00     0.091 H 
ATOM     88  H   SGN d 206      20.731 127.328  10.471  0.00  0.00     0.231 HD
ATOM     89  H   SGN d 206      25.425 123.727   6.907  0.00  0.00     0.090 H 
ATOM     90  H   SGN d 206      22.472 125.494   5.880  0.00  0.00     0.131 H 
ATOM     91  H   SGN d 206      24.403 124.932   8.911  0.00  0.00     0.089 H 
ATOM     92  H   SGN d 206      22.329 123.444  10.168  0.00  0.00     0.210 HD
ATOM     93  H   SGN d 206      20.962 128.548   8.487  0.00  0.00     0.231 HD
ATOM     94  H   SGN d 206      19.689 124.792   8.320  0.00  0.00     0.231 HD
ATOM     95  H   SGN d 206      21.595 124.203   7.916  0.00  0.00     0.076 H 
ATOM     96  C1  SGN d 208      25.174 118.083  13.476  0.00  0.00     0.150 C 
ATOM     97  N   SGN d 208      26.820 116.736  12.146  0.00  0.00    -0.210 NA
ATOM     98  O3  SGN d 208      24.710 114.899  11.513  0.00  0.00    -0.391 OA
ATOM     99  O4S SGN d 208      21.554 115.296  15.754  0.00  0.00    -0.572 OA
ATOM    100  C5  SGN d 208      22.824 117.609  13.334  0.00  0.00     0.091 C 
ATOM    101  C4  SGN d 208      23.111 116.163  12.795  0.00  0.00     0.095 C 
ATOM    102  S1  SGN d 208      28.289 116.932  12.882  0.00  0.00     0.156 S 
ATOM    103  O6S SGN d 208      20.235 116.841  17.074  0.00  0.00    -0.572 OA
ATOM    104  O5  SGN d 208      23.939 118.037  14.186  0.00  0.00    -0.349 OA
ATOM    105  O2S SGN d 208      29.246 117.066  11.791  0.00  0.00    -0.296 OA
ATOM    106  S2  SGN d 208      21.538 116.534  16.512  0.00  0.00     0.251 S 
ATOM    107  O1S SGN d 208      28.523 115.782  13.728  0.00  0.00    -0.296 OA
ATOM    108  O4  SGN d 208      22.080 115.747  11.910  0.00  0.00    -0.348 OA
ATOM    109  O6  SGN d 208      21.858 117.680  15.520  0.00  0.00    -0.254 OA
ATOM    110  C2  SGN d 208      25.552 116.666  12.926  0.00  0.00     0.081 C 
ATOM    111  C3  SGN d 208      24.417 116.199  12.003  0.00  0.00     0.083 C 
ATOM    112  O5S SGN d 208      22.604 116.613  17.491  0.00  0.00    -0.572 OA
ATOM    113  C6  SGN d 208      21.537 117.719  14.164  0.00  0.00     0.067 C 
ATOM    114  O3S SGN d 208      28.184 118.147  13.667  0.00  0.00    -0.296 OA
ATOM    115  H   SGN d 208      25.953 118.424  14.126  0.00  0.00     0.131 H 
ATOM    116  H   SGN d 208      26.716 117.519  11.501  0.00  0.00     0.140 HD
ATOM    117  H   SGN d 208      23.993 114.604  10.930  0.00  0.00     0.210 HD
ATOM    118  H   SGN d 208      22.708 118.229  12.470  0.00  0.00     0.090 H 
ATOM    119  H   SGN d 208      23.167 115.487  13.622  0.00  0.00     0.091 H 
ATOM    120  H   SGN d 208      29.286 116.235  11.292  0.00  0.00     0.231 HD
ATOM    121  H   SGN d 208      28.589 114.985  13.179  0.00  0.00     0.231 HD
ATOM    122  H   SGN d 208      25.688 115.985  13.740  0.00  0.00     0.076 H 
ATOM    123  H   SGN d 208      24.321 116.875  11.179  0.00  0.00     0.089 H 
ATOM    124  H   SGN d 208      20.888 116.902  13.927  0.00  0.00     0.080 H 
ATOM    125  H   SGN d 208      21.043 118.641  13.939  0.00  0.00     0.080 H 
ATOM    126  H   SGN d 208      27.540 118.017  14.380  0.00  0.00     0.231 HD
ATOM    127  O4  SGN d 204      28.099 128.759   7.479  0.00  0.00    -0.348 OA
ATOM    128  O5S SGN d 204      30.708 129.355  11.689  0.00  0.00    -0.572 OA
ATOM    129  O6  SGN d 204      30.186 129.880   9.409  0.00  0.00    -0.254 OA
ATOM    130  O1S SGN d 204      33.701 126.020   4.830  0.00  0.00    -0.296 OA
ATOM    131  O3  SGN d 204      29.027 126.399   5.990  0.00  0.00    -0.391 OA
ATOM    132  O2S SGN d 204      32.000 124.316   5.049  0.00  0.00    -0.296 OA
ATOM    133  O4S SGN d 204      28.560 130.365  11.177  0.00  0.00    -0.572 OA
ATOM    134  S1  SGN d 204      32.494 125.434   4.275  0.00  0.00     0.156 S 
ATOM    135  C1  SGN d 204      31.826 128.752   5.434  0.00  0.00     0.150 C 
ATOM    136  O6S SGN d 204      30.601 131.678  11.000  0.00  0.00    -0.572 OA
ATOM    137  O5  SGN d 204      31.659 129.536   6.650  0.00  0.00    -0.349 OA
ATOM    138  N   SGN d 204      31.306 126.595   4.330  0.00  0.00    -0.210 NA
ATOM    139  C6  SGN d 204      30.316 130.685   8.258  0.00  0.00     0.067 C 
ATOM    140  O3S SGN d 204      32.650 125.098   2.862  0.00  0.00    -0.296 OA
ATOM    141  C2  SGN d 204      31.129 127.380   5.585  0.00  0.00     0.081 C 
ATOM    142  C4  SGN d 204      29.516 128.442   7.199  0.00  0.00     0.095 C 
ATOM    143  C5  SGN d 204      30.285 129.789   7.013  0.00  0.00     0.091 C 
ATOM    144  C3  SGN d 204      29.649 127.635   5.857  0.00  0.00     0.083 C 
ATOM    145  S2  SGN d 204      29.991 130.355  10.906  0.00  0.00     0.251 S 
ATOM    146  H   SGN d 204      33.558 126.228   5.766  0.00  0.00     0.231 HD
ATOM    147  H   SGN d 204      29.111 125.904   5.160  0.00  0.00     0.210 HD
ATOM    148  H   SGN d 204      31.911 124.580   5.978  0.00  0.00     0.231 HD
ATOM    149  H   SGN d 204      32.874 128.609   5.273  0.00  0.00     0.131 H 
ATOM    150  H   SGN d 204      30.420 126.127   4.141  0.00  0.00     0.140 HD
ATOM    151  H   SGN d 204      31.244 131.215   8.295  0.00  0.00     0.080 H 
ATOM    152  H   SGN d 204      29.510 131.388   8.217  0.00  0.00     0.080 H 
ATOM    153  H   SGN d 204      33.336 124.419   2.765  0.00  0.00     0.231 HD
ATOM    154  H   SGN d 204      31.553 126.820   6.392  0.00  0.00     0.076 H 
ATOM    155  H   SGN d 204      29.909 127.861   8.007  0.00  0.00     0.091 H 
ATOM    156  H   SGN d 204      29.743 130.301   6.246  0.00  0.00     0.090 H 
ATOM    157  H   SGN d 204      29.199 128.194   5.063  0.00  0.00     0.089 H 
ATOM    158  C4  IDS d 203      32.016 130.509   3.713  0.00  0.00     0.103 C 
ATOM    159  C1  IDS d 203      30.807 130.990   0.981  0.00  0.00     0.161 C 
ATOM    160  O4  IDS d 203      31.260 129.443   4.302  0.00  0.00    -0.348 OA
ATOM    161  S   IDS d 203      31.032 127.441   0.250  0.00  0.00     0.252 S 
ATOM    162  O3  IDS d 203      33.820 130.864   2.140  0.00  0.00    -0.390 OA
ATOM    163  O62 IDS d 203      30.754 132.989   5.311  0.00  0.00    -0.646 OA
ATOM    164  C5  IDS d 203      31.038 131.677   3.320  0.00  0.00     0.152 C 
ATOM    165  O5  IDS d 203      30.160 131.258   2.241  0.00  0.00    -0.340 OA
ATOM    166  O3S IDS d 203      30.591 127.983  -1.004  0.00  0.00    -0.572 OA
ATOM    167  O61 IDS d 203      29.010 132.091   4.583  0.00  0.00    -0.646 OA
ATOM    168  O2S IDS d 203      30.080 126.504   0.815  0.00  0.00    -0.572 OA
ATOM    169  C3  IDS d 203      32.756 129.972   2.445  0.00  0.00     0.094 C 
ATOM    170  O2  IDS d 203      31.070 128.641   1.265  0.00  0.00    -0.244 OA
ATOM    171  C2  IDS d 203      31.831 129.837   1.179  0.00  0.00     0.134 C 
ATOM    172  C6  IDS d 203      30.213 132.288   4.472  0.00  0.00     0.206 C 
ATOM    173  O1S IDS d 203      32.380 126.915   0.185  0.00  0.00    -0.572 OA
ATOM    174  H   IDS d 203      32.740 130.878   4.409  0.00  0.00     0.092 H 
ATOM    175  H   IDS d 203      30.032 130.724   0.293  0.00  0.00     0.133 H 
ATOM    176  H   IDS d 203      34.398 130.955   2.914  0.00  0.00     0.210 HD
ATOM    177  H   IDS d 203      31.684 132.469   3.003  0.00  0.00     0.104 H 
ATOM    178  H   IDS d 203      33.104 128.987   2.676  0.00  0.00     0.091 H 
ATOM    179  H   IDS d 203      32.511 129.853   0.353  0.00  0.00     0.097 H 
ATOM    180  C5  IDS d 207      24.628 121.149  11.838  0.00  0.00     0.152 C 
ATOM    181  C2  IDS d 207      26.588 120.847   9.969  0.00  0.00     0.134 C 
ATOM    182  O2S IDS d 207      25.920 118.699   7.843  0.00  0.00    -0.572 OA
ATOM    183  O2  IDS d 207      27.411 120.378   8.882  0.00  0.00    -0.244 OA
ATOM    184  C6  IDS d 207      23.410 121.210  12.783  0.00  0.00     0.206 C 
ATOM    185  O1S IDS d 207      27.873 117.991   9.038  0.00  0.00    -0.572 OA
ATOM    186  C3  IDS d 207      26.647 119.801  11.056  0.00  0.00     0.094 C 
ATOM    187  O61 IDS d 207      22.391 120.565  12.532  0.00  0.00    -0.646 OA
ATOM    188  O4  IDS d 207      24.981 118.908  12.397  0.00  0.00    -0.348 OA
ATOM    189  O62 IDS d 207      23.422 121.885  13.795  0.00  0.00    -0.646 OA
ATOM    190  C4  IDS d 207      25.697 120.080  12.252  0.00  0.00     0.103 C 
ATOM    191  O3S IDS d 207      28.101 119.103   6.906  0.00  0.00    -0.572 OA
ATOM    192  S   IDS d 207      27.311 118.959   8.110  0.00  0.00     0.252 S 
ATOM    193  O3  IDS d 207      27.991 119.686  11.505  0.00  0.00    -0.390 OA
ATOM    194  O5  IDS d 207      24.181 120.814  10.503  0.00  0.00    -0.340 OA
ATOM    195  C1  IDS d 207      25.134 121.086   9.484  0.00  0.00     0.161 C 
ATOM    196  H   IDS d 207      25.088 122.114  11.889  0.00  0.00     0.104 H 
ATOM    197  H   IDS d 207      26.943 121.784  10.345  0.00  0.00     0.097 H 
ATOM    198  H   IDS d 207      26.305 118.881  10.630  0.00  0.00     0.091 H 
ATOM    199  H   IDS d 207      26.243 120.401  13.114  0.00  0.00     0.092 H 
ATOM    200  H   IDS d 207      28.278 120.531  11.886  0.00  0.00     0.210 HD
ATOM    201  H   IDS d 207      24.882 120.435   8.673  0.00  0.00     0.133 H 
ATOM    202  C5  IDS d 209      22.166 112.699  11.102  0.00  0.00     0.152 C 
ATOM    203  C6  IDS d 209      23.266 111.630  11.244  0.00  0.00     0.206 C 
ATOM    204  C4  IDS d 209      20.734 112.103  10.790  0.00  0.00     0.103 C 
ATOM    205  O3S IDS d 209      18.778 114.386  13.885  0.00  0.00    -0.572 OA
ATOM    206  O2S IDS d 209      16.843 114.714  12.453  0.00  0.00    -0.572 OA
ATOM    207  O3  IDS d 209      18.637 113.119  10.106  0.00  0.00    -0.390 OA
ATOM    208  C2  IDS d 209      20.180 114.571  11.235  0.00  0.00     0.134 C 
ATOM    209  O61 IDS d 209      23.573 110.919  10.304  0.00  0.00    -0.646 OA
ATOM    210  O62 IDS d 209      23.847 111.457  12.298  0.00  0.00    -0.646 OA
ATOM    211  S   IDS d 209      18.097 115.260  12.927  0.00  0.00     0.252 S 
ATOM    212  C1  IDS d 209      21.311 114.658  12.275  0.00  0.00     0.161 C 
ATOM    213  O2  IDS d 209      19.082 115.416  11.641  0.00  0.00    -0.244 OA
ATOM    214  O5  IDS d 209      22.089 113.460  12.335  0.00  0.00    -0.340 OA
ATOM    215  C3  IDS d 209      19.645 113.156  11.112  0.00  0.00     0.094 C 
ATOM    216  O1S IDS d 209      17.949 116.613  13.421  0.00  0.00    -0.572 OA
ATOM    217  O4  IDS d 209      20.544 111.034  11.714  0.00  0.00    -0.348 OA
ATOM    218  H   IDS d 209      22.439 113.311  10.268  0.00  0.00     0.104 H 
ATOM    219  H   IDS d 209      20.667 111.804   9.765  0.00  0.00     0.092 H 
ATOM    220  H   IDS d 209      18.294 112.215  10.026  0.00  0.00     0.210 HD
ATOM    221  H   IDS d 209      20.586 114.883  10.295  0.00  0.00     0.097 H 
ATOM    222  H   IDS d 209      20.910 114.775  13.260  0.00  0.00     0.133 H 
ATOM    223  H   IDS d 209      19.245 112.896  12.070  0.00  0.00     0.091 H 
ATOM    224  C4  IDS d 211      17.616 106.111  18.159  0.00  0.00    -0.005 C 
ATOM    225  O2  IDS d 211      20.892 106.655  16.391  0.00  0.00    -0.244 OA
ATOM    226  C5  IDS d 211      17.205 107.672  18.144  0.00  0.00     0.127 C 
ATOM    227  O3  IDS d 211      19.749 105.001  18.319  0.00  0.00    -0.393 OA
ATOM    228  O3S IDS d 211      22.252 106.008  18.273  0.00  0.00    -0.572 OA
ATOM    229  O62 IDS d 211      15.199 108.902  18.751  0.00  0.00    -0.646 OA
ATOM    230  C1  IDS d 211      18.804 107.825  16.190  0.00  0.00     0.161 C 
ATOM    231  C6  IDS d 211      15.672 107.882  18.267  0.00  0.00     0.203 C 
ATOM    232  O2S IDS d 211      23.048 107.746  16.784  0.00  0.00    -0.572 OA
ATOM    233  O61 IDS d 211      14.888 107.011  17.895  0.00  0.00    -0.646 OA
ATOM    234  O5  IDS d 211      17.728 108.425  16.935  0.00  0.00    -0.343 OA
ATOM    235  O1S IDS d 211      22.925 105.460  16.019  0.00  0.00    -0.572 OA
ATOM    236  C3  IDS d 211      18.961 105.783  17.454  0.00  0.00     0.069 C 
ATOM    237  S   IDS d 211      22.367 106.468  16.908  0.00  0.00     0.252 S 
ATOM    238  C2  IDS d 211      19.709 107.031  17.094  0.00  0.00     0.132 C 
ATOM    239  H   IDS d 211      17.690 105.796  19.179  0.00  0.00     0.041 H 
ATOM    240  H   IDS d 211      16.856 105.595  17.611  0.00  0.00     0.041 H 
ATOM    241  H   IDS d 211      17.680 108.082  19.011  0.00  0.00     0.100 H 
ATOM    242  H   IDS d 211      19.267 104.193  18.553  0.00  0.00     0.210 HD
ATOM    243  H   IDS d 211      18.332 107.178  15.480  0.00  0.00     0.133 H 
ATOM    244  H   IDS d 211      18.750 105.250  16.550  0.00  0.00     0.087 H 
ATOM    245  H   IDS d 211      19.982 107.605  17.955  0.00  0.00     0.097 H 
ATOM    246  S   IDS d 205      25.106 128.200  10.825  0.00  0.00     0.252 S 
ATOM    247  C3  IDS d 205      24.625 127.629   7.907  0.00  0.00     0.094 C 
ATOM    248  C1  IDS d 205      27.179 127.788   8.012  0.00  0.00     0.161 C 
ATOM    249  O61 IDS d 205      26.956 124.794   5.143  0.00  0.00    -0.646 OA
ATOM    250  O5  IDS d 205      26.994 126.667   7.132  0.00  0.00    -0.340 OA
ATOM    251  O2S IDS d 205      25.477 126.802  10.706  0.00  0.00    -0.572 OA
ATOM    252  C5  IDS d 205      26.106 126.920   5.986  0.00  0.00     0.152 C 
ATOM    253  C4  IDS d 205      24.643 126.939   6.522  0.00  0.00     0.103 C 
ATOM    254  C6  IDS d 205      26.351 125.836   4.880  0.00  0.00     0.206 C 
ATOM    255  O1S IDS d 205      23.664 128.389  10.768  0.00  0.00    -0.572 OA
ATOM    256  O2  IDS d 205      25.687 128.994   9.539  0.00  0.00    -0.244 OA
ATOM    257  O3S IDS d 205      25.713 128.855  11.960  0.00  0.00    -0.572 OA
ATOM    258  O62 IDS d 205      25.947 125.982   3.740  0.00  0.00    -0.646 OA
ATOM    259  O3  IDS d 205      23.432 128.377   8.041  0.00  0.00    -0.390 OA
ATOM    260  C2  IDS d 205      25.829 128.540   8.192  0.00  0.00     0.134 C 
ATOM    261  O4  IDS d 205      24.382 125.613   6.763  0.00  0.00    -0.348 OA
ATOM    262  H   IDS d 205      24.681 126.839   8.626  0.00  0.00     0.091 H 
ATOM    263  H   IDS d 205      27.558 127.388   8.930  0.00  0.00     0.133 H 
ATOM    264  H   IDS d 205      26.305 127.864   5.523  0.00  0.00     0.104 H 
ATOM    265  H   IDS d 205      23.965 127.428   5.854  0.00  0.00     0.092 H 
ATOM    266  H   IDS d 205      23.416 129.082   7.375  0.00  0.00     0.210 HD
ATOM    267  H   IDS d 205      25.845 129.357   7.501  0.00  0.00     0.097 H 
ENDROOT
TORSDOF 84
