REMARK  0 active torsions:
REMARK  status: ('A' for Active; 'I' for Inactive)
REMARK       I    between atoms: O3_2  and  C3_100 
REMARK       I    between atoms: C6_3  and  C5_136 
REMARK       I    between atoms: S_4  and  O2_35 
REMARK       I    between atoms: O3_8  and  C3_58 
REMARK       I    between atoms: O3_8  and  S3_23 
REMARK       I    between atoms: S2_9  and  O6_71 
REMARK       I    between atoms: O1_10  and  C4_123 
REMARK       I    between atoms: O1_10  and  C1_124 
REMARK       I    between atoms: O3S_11  and  S1_62 
REMARK       I    between atoms: O1_12  and  C4_106 
REMARK       I    between atoms: O1_12  and  C1_80 
REMARK       I    between atoms: O3S_13  and  S1_131 
REMARK       I    between atoms: O1_14  and  C4_125 
REMARK       I    between atoms: O1_14  and  C1_27 
REMARK       I    between atoms: C3_15  and  O3_48 
REMARK       I    between atoms: O2S_16  and  S1_91 
REMARK       I    between atoms: O1_17  and  C4_54 
REMARK       I    between atoms: O1_17  and  C1_53 
REMARK       I    between atoms: O4_18  and  C4_145 
REMARK       I    between atoms: C5_19  and  C6_133 
REMARK       I    between atoms: C6_20  and  C5_51 
REMARK       I    between atoms: C6_20  and  O6_71 
REMARK       I    between atoms: C6_21  and  C5_97 
REMARK       I    between atoms: O6_22  and  C6_66 
REMARK       I    between atoms: O6_22  and  S2_59 
REMARK       I    between atoms: C3_24  and  O3_30 
REMARK       I    between atoms: C6_26  and  C5_77 
REMARK       I    between atoms: C6_26  and  O6_49 
REMARK       I    between atoms: C4_28  and  O1_143 
REMARK       I    between atoms: C1_34  and  O1_129 
REMARK       I    between atoms: O2_35  and  C2_40 
REMARK       I    between atoms: O2S_36  and  S1_131 
REMARK       I    between atoms: C5_37  and  C6_81 
REMARK       I    between atoms: O2_38  and  C2_57 
REMARK       I    between atoms: O2_38  and  S_113 
REMARK       I    between atoms: O3_42  and  C3_144 
REMARK       I    between atoms: C2_43  and  O2_92 
REMARK       I    between atoms: S1_44  and  N_115 
REMARK       I    between atoms: S1_44  and  O1S_104 
REMARK       I    between atoms: S1_44  and  O2S_93 
REMARK       I    between atoms: S1_44  and  O3S_47 
REMARK       I    between atoms: C4_45  and  O1_129 
REMARK       I    between atoms: O6_49  and  S2_65 
REMARK       I    between atoms: O2_50  and  C2_138 
REMARK       I    between atoms: O2_50  and  S_132 
REMARK       I    between atoms: C2_55  and  N_116 
REMARK       I    between atoms: O3_56  and  C3_135 
REMARK       I    between atoms: O3S_60  and  S1_91 
REMARK       I    between atoms: S1_62  and  N_140 
REMARK       I    between atoms: S1_62  and  O1S_64 
REMARK       I    between atoms: S1_62  and  O2S_102 
REMARK       I    between atoms: C6_66  and  C5_86 
REMARK       I    between atoms: C2_70  and  N_140 
REMARK       I    between atoms: O1S_73  and  S1_91 
REMARK       I    between atoms: N_75  and  C2_78 
REMARK       I    between atoms: N_75  and  S1_91 
REMARK       I    between atoms: O3_76  and  C3_112 
REMARK       I    between atoms: C2_79  and  N_115 
REMARK       I    between atoms: C6_81  and  O6_126 
REMARK       I    between atoms: O1_83  and  C1_110 
REMARK       I    between atoms: C6_88  and  C5_119 
REMARK       I    between atoms: O2_92  and  S_108 
REMARK       I    between atoms: O1_95  and  C4_105 
REMARK       I    between atoms: O1_95  and  C1_139 
REMARK       I    between atoms: O1S_98  and  S1_131 
REMARK       I    between atoms: N_116  and  S1_131 
REMARK       I    between atoms: O3_117  and  C3_118 
REMARK       I    between atoms: O6_126  and  S2_134 
REMARK       I    between atoms: C1_128  and  O1_143 
ROOT
ATOM      1  O1S IDS d 507      24.147   8.854  17.040  0.00  0.00    -0.572 OA
ATOM      2  C6  IDS d 507      28.586  13.236  12.543  0.00  0.00     0.206 C 
ATOM      3  O1  IDS d 507      28.577   9.391  14.462  0.00  0.00    -0.348 OA
ATOM      4  O62 IDS d 507      27.868  13.277  11.522  0.00  0.00    -0.646 OA
ATOM      5  O2  IDS d 507      26.169   9.826  16.250  0.00  0.00    -0.244 OA
ATOM      6  C1  IDS d 507      27.373  10.164  14.215  0.00  0.00     0.161 C 
ATOM      7  C2  IDS d 507      26.895  10.818  15.514  0.00  0.00     0.134 C 
ATOM      8  O3S IDS d 507      24.068  10.670  15.411  0.00  0.00    -0.572 OA
ATOM      9  O2S IDS d 507      24.767  11.109  17.723  0.00  0.00    -0.572 OA
ATOM     10  O61 IDS d 507      29.665  13.857  12.666  0.00  0.00    -0.646 OA
ATOM     11  O5  IDS d 507      27.602  11.141  13.186  0.00  0.00    -0.340 OA
ATOM     12  S   IDS d 507      24.811  10.123  16.593  0.00  0.00     0.252 S 
ATOM     13  O3  IDS d 507      25.700  12.697  16.450  0.00  0.00    -0.390 OA
ATOM     14  C3  IDS d 507      26.137  12.115  15.220  0.00  0.00     0.094 C 
ATOM     15  C4  IDS d 507      27.049  13.115  14.506  0.00  0.00     0.103 C 
ATOM     16  C5  IDS d 507      28.126  12.367  13.716  0.00  0.00     0.152 C 
ATOM     17  H   IDS d 507      26.601   9.508  13.870  0.00  0.00     0.133 H 
ATOM     18  H   IDS d 507      27.706  11.138  16.134  0.00  0.00     0.097 H 
ATOM     19  H   IDS d 507      25.120  12.074  16.915  0.00  0.00     0.210 HD
ATOM     20  H   IDS d 507      25.299  11.887  14.595  0.00  0.00     0.091 H 
ATOM     21  H   IDS d 507      27.526  13.739  15.232  0.00  0.00     0.092 H 
ATOM     22  H   IDS d 507      28.942  12.153  14.374  0.00  0.00     0.104 H 
ATOM     23  O3  IDS d 501      45.655   3.694  22.453  0.00  0.00    -0.390 OA
ATOM     24  C5  IDS d 501      45.901   3.038  19.620  0.00  0.00     0.152 C 
ATOM     25  O62 IDS d 501      45.404   4.629  17.913  0.00  0.00    -0.646 OA
ATOM     26  C2  IDS d 501      45.275   1.378  21.876  0.00  0.00     0.134 C 
ATOM     27  C4  IDS d 501      44.569   3.241  20.346  0.00  0.00     0.103 C 
ATOM     28  O1S IDS d 501      45.448  -1.490  22.077  0.00  0.00    -0.572 OA
ATOM     29  O3S IDS d 501      43.018  -1.509  21.775  0.00  0.00    -0.572 OA
ATOM     30  O1  IDS d 501      47.572   2.091  21.572  0.00  0.00    -0.368 OA
ATOM     31  O2  IDS d 501      44.285   0.479  21.366  0.00  0.00    -0.244 OA
ATOM     32  O5  IDS d 501      46.275   1.653  19.680  0.00  0.00    -0.340 OA
ATOM     33  C3  IDS d 501      44.738   2.809  21.804  0.00  0.00     0.094 C 
ATOM     34  S   IDS d 501      44.192  -0.678  22.202  0.00  0.00     0.252 S 
ATOM     35  C1  IDS d 501      46.546   1.252  21.032  0.00  0.00     0.158 C 
ATOM     36  O2S IDS d 501      44.010  -0.254  23.630  0.00  0.00    -0.572 OA
ATOM     37  C6  IDS d 501      45.733   3.448  18.156  0.00  0.00     0.206 C 
ATOM     38  O61 IDS d 501      45.931   2.579  17.279  0.00  0.00    -0.646 OA
ATOM     39  H   IDS d 501      45.765   3.424  23.378  0.00  0.00     0.210 HD
ATOM     40  H   IDS d 501      46.660   3.632  20.085  0.00  0.00     0.104 H 
ATOM     41  H   IDS d 501      45.502   1.138  22.894  0.00  0.00     0.097 H 
ATOM     42  H   IDS d 501      44.276   4.269  20.306  0.00  0.00     0.092 H 
ATOM     43  H   IDS d 501      47.760   1.825  22.486  0.00  0.00     0.212 HD
ATOM     44  H   IDS d 501      43.786   2.846  22.292  0.00  0.00     0.091 H 
ATOM     45  H   IDS d 501      46.871   0.233  21.046  0.00  0.00     0.133 H 
ATOM     46  S   IDS d 505      35.303   5.492  11.720  0.00  0.00     0.252 S 
ATOM     47  C3  IDS d 505      32.079   4.164  10.872  0.00  0.00     0.094 C 
ATOM     48  O3  IDS d 505      31.794   3.080   9.985  0.00  0.00    -0.390 OA
ATOM     49  O2  IDS d 505      33.935   5.205  12.044  0.00  0.00    -0.244 OA
ATOM     50  C2  IDS d 505      33.462   3.965  11.504  0.00  0.00     0.134 C 
ATOM     51  O3S IDS d 505      35.245   5.576  10.226  0.00  0.00    -0.572 OA
ATOM     52  O61 IDS d 505      28.812   3.280  13.488  0.00  0.00    -0.646 OA
ATOM     53  C6  IDS d 505      29.954   2.936  13.864  0.00  0.00     0.206 C 
ATOM     54  O62 IDS d 505      30.201   2.435  14.982  0.00  0.00    -0.646 OA
ATOM     55  C4  IDS d 505      30.948   4.258  11.900  0.00  0.00     0.103 C 
ATOM     56  O1S IDS d 505      36.005   4.323  12.348  0.00  0.00    -0.572 OA
ATOM     57  O5  IDS d 505      32.381   3.219  13.544  0.00  0.00    -0.340 OA
ATOM     58  C5  IDS d 505      31.115   3.093  12.878  0.00  0.00     0.152 C 
ATOM     59  O2S IDS d 505      35.488   6.755  12.508  0.00  0.00    -0.572 OA
ATOM     60  C1  IDS d 505      33.426   2.903  12.611  0.00  0.00     0.161 C 
ATOM     61  O1  IDS d 505      33.152   1.586  12.063  0.00  0.00    -0.348 OA
ATOM     62  H   IDS d 505      32.120   5.097  10.350  0.00  0.00     0.091 H 
ATOM     63  H   IDS d 505      31.764   2.251  10.487  0.00  0.00     0.210 HD
ATOM     64  H   IDS d 505      34.127   3.626  10.737  0.00  0.00     0.097 H 
ATOM     65  H   IDS d 505      29.998   4.183  11.414  0.00  0.00     0.092 H 
ATOM     66  H   IDS d 505      31.098   2.187  12.309  0.00  0.00     0.104 H 
ATOM     67  H   IDS d 505      34.382   2.897  13.092  0.00  0.00     0.133 H 
ATOM     68  O4S SGN d 508      28.556  20.735  12.805  0.00  0.00    -0.572 OA
ATOM     69  S2  SGN d 508      28.858  19.506  12.000  0.00  0.00     0.251 S 
ATOM     70  O1  SGN d 508      26.260  13.945  13.614  0.00  0.00    -0.348 OA
ATOM     71  O2S SGN d 508      22.946  16.700  16.100  0.00  0.00    -0.296 OA
ATOM     72  O4  SGN d 508      25.387  16.878  10.418  0.00  0.00    -0.390 OA
ATOM     73  C6  SGN d 508      27.979  17.210  11.679  0.00  0.00     0.067 C 
ATOM     74  O5S SGN d 508      30.228  19.004  12.349  0.00  0.00    -0.572 OA
ATOM     75  C1  SGN d 508      26.079  15.260  14.202  0.00  0.00     0.150 C 
ATOM     76  C5  SGN d 508      26.896  16.269  12.212  0.00  0.00     0.090 C 
ATOM     77  O3S SGN d 508      22.266  14.398  16.587  0.00  0.00    -0.296 OA
ATOM     78  O6  SGN d 508      27.890  18.497  12.296  0.00  0.00    -0.254 OA
ATOM     79  O1S SGN d 508      24.605  15.076  16.875  0.00  0.00    -0.296 OA
ATOM     80  N   SGN d 508      23.670  14.846  14.499  0.00  0.00    -0.210 NA
ATOM     81  O3  SGN d 508      23.153  16.491  12.196  0.00  0.00    -0.391 OA
ATOM     82  C2  SGN d 508      24.662  15.769  13.930  0.00  0.00     0.081 C 
ATOM     83  O6S SGN d 508      28.802  19.837  10.538  0.00  0.00    -0.572 OA
ATOM     84  S1  SGN d 508      23.368  15.261  16.047  0.00  0.00     0.156 S 
ATOM     85  O5  SGN d 508      27.026  16.184  13.641  0.00  0.00    -0.349 OA
ATOM     86  C3  SGN d 508      24.440  15.911  12.423  0.00  0.00     0.083 C 
ATOM     87  C4  SGN d 508      25.519  16.826  11.841  0.00  0.00     0.089 C 
ATOM     88  H   SGN d 508      22.765  16.950  17.020  0.00  0.00     0.231 HD
ATOM     89  H   SGN d 508      26.072  17.459  10.051  0.00  0.00     0.210 HD
ATOM     90  H   SGN d 508      27.857  17.320  10.622  0.00  0.00     0.080 H 
ATOM     91  H   SGN d 508      28.937  16.790  11.905  0.00  0.00     0.080 H 
ATOM     92  H   SGN d 508      26.234  15.184  15.258  0.00  0.00     0.131 H 
ATOM     93  H   SGN d 508      27.003  15.294  11.784  0.00  0.00     0.090 H 
ATOM     94  H   SGN d 508      22.085  14.643  17.508  0.00  0.00     0.231 HD
ATOM     95  H   SGN d 508      24.419  15.324  17.794  0.00  0.00     0.231 HD
ATOM     96  H   SGN d 508      24.034  13.894  14.467  0.00  0.00     0.140 HD
ATOM     97  H   SGN d 508      22.468  15.912  12.565  0.00  0.00     0.210 HD
ATOM     98  H   SGN d 508      24.545  16.726  14.393  0.00  0.00     0.076 H 
ATOM     99  H   SGN d 508      24.492  14.951  11.953  0.00  0.00     0.089 H 
ATOM    100  H   SGN d 508      25.410  17.814  12.238  0.00  0.00     0.091 H 
ATOM    101  O5  SUS d 506      28.745   6.479  12.173  0.00  0.00    -0.349 OA
ATOM    102  O4S SUS d 506      24.496   8.995  13.647  0.00  0.00    -0.572 OA
ATOM    103  O3  SUS d 506      30.894  10.000  12.930  0.00  0.00    -0.247 OA
ATOM    104  S3  SUS d 506      31.840  10.348  13.948  0.00  0.00     0.252 S 
ATOM    105  C6  SUS d 506      26.993   7.076  13.750  0.00  0.00     0.067 C 
ATOM    106  S1  SUS d 506      32.531   8.209   9.989  0.00  0.00     0.156 S 
ATOM    107  O8S SUS d 506      32.073  11.829  13.918  0.00  0.00    -0.572 OA
ATOM    108  O3S SUS d 506      32.024   7.145   9.062  0.00  0.00    -0.296 OA
ATOM    109  O6  SUS d 506      26.161   7.571  12.696  0.00  0.00    -0.254 OA
ATOM    110  C4  SUS d 506      28.918   8.633  13.273  0.00  0.00     0.096 C 
ATOM    111  C3  SUS d 506      30.431   8.651  13.053  0.00  0.00     0.108 C 
ATOM    112  S2  SUS d 506      24.751   7.722  12.896  0.00  0.00     0.251 S 
ATOM    113  O7S SUS d 506      33.142   9.644  13.703  0.00  0.00    -0.572 OA
ATOM    114  C5  SUS d 506      28.483   7.170  13.406  0.00  0.00     0.091 C 
ATOM    115  C2  SUS d 506      30.729   7.885  11.762  0.00  0.00     0.083 C 
ATOM    116  O6S SUS d 506      24.220   6.561  13.681  0.00  0.00    -0.572 OA
ATOM    117  O2S SUS d 506      34.021   8.316   9.855  0.00  0.00    -0.296 OA
ATOM    118  O1  SUS d 506      30.928   5.549  12.567  0.00  0.00    -0.348 OA
ATOM    119  O1S SUS d 506      31.899   9.520   9.629  0.00  0.00    -0.296 OA
ATOM    120  O5S SUS d 506      24.069   7.790  11.562  0.00  0.00    -0.572 OA
ATOM    121  N   SUS d 506      32.180   7.822  11.533  0.00  0.00    -0.210 NA
ATOM    122  O9S SUS d 506      31.312   9.962  15.299  0.00  0.00    -0.572 OA
ATOM    123  C1  SUS d 506      30.130   6.474  11.781  0.00  0.00     0.150 C 
ATOM    124  H   SUS d 506      26.807   7.650  14.634  0.00  0.00     0.080 H 
ATOM    125  H   SUS d 506      26.755   6.043  13.898  0.00  0.00     0.080 H 
ATOM    126  H   SUS d 506      31.060   7.074   9.147  0.00  0.00     0.231 HD
ATOM    127  H   SUS d 506      28.409   9.088  12.449  0.00  0.00     0.091 H 
ATOM    128  H   SUS d 506      30.929   8.196  13.883  0.00  0.00     0.092 H 
ATOM    129  H   SUS d 506      29.040   6.716  14.198  0.00  0.00     0.090 H 
ATOM    130  H   SUS d 506      30.267   8.417  10.957  0.00  0.00     0.076 H 
ATOM    131  H   SUS d 506      34.351   9.004  10.454  0.00  0.00     0.231 HD
ATOM    132  H   SUS d 506      32.225  10.211  10.227  0.00  0.00     0.231 HD
ATOM    133  H   SUS d 506      32.647   8.479  12.158  0.00  0.00     0.140 HD
ATOM    134  H   SUS d 506      30.158   6.113  10.774  0.00  0.00     0.131 H 
ATOM    135  O1  IDS d 503      41.301   1.813  15.975  0.00  0.00    -0.348 OA
ATOM    136  C6  IDS d 503      37.045   1.644  15.967  0.00  0.00     0.206 C 
ATOM    137  O2  IDS d 503      40.221   2.105  12.493  0.00  0.00    -0.244 OA
ATOM    138  O3  IDS d 503      40.547  -0.687  14.845  0.00  0.00    -0.390 OA
ATOM    139  O61 IDS d 503      36.540   2.728  15.604  0.00  0.00    -0.646 OA
ATOM    140  C5  IDS d 503      38.485   1.338  15.546  0.00  0.00     0.152 C 
ATOM    141  O1S IDS d 503      42.283   3.328  12.538  0.00  0.00    -0.572 OA
ATOM    142  C4  IDS d 503      38.455   0.404  14.335  0.00  0.00     0.103 C 
ATOM    143  O3S IDS d 503      40.863   3.312  10.539  0.00  0.00    -0.572 OA
ATOM    144  O62 IDS d 503      36.447   0.788  16.654  0.00  0.00    -0.646 OA
ATOM    145  C1  IDS d 503      40.541   2.369  14.871  0.00  0.00     0.161 C 
ATOM    146  S   IDS d 503      41.348   2.502  11.705  0.00  0.00     0.252 S 
ATOM    147  C3  IDS d 503      39.889   0.132  13.876  0.00  0.00     0.094 C 
ATOM    148  O2S IDS d 503      42.076   1.291  11.201  0.00  0.00    -0.572 OA
ATOM    149  C2  IDS d 503      40.674   1.430  13.668  0.00  0.00     0.134 C 
ATOM    150  O5  IDS d 503      39.159   2.564  15.221  0.00  0.00    -0.340 OA
ATOM    151  H   IDS d 503      40.044  -1.507  14.971  0.00  0.00     0.210 HD
ATOM    152  H   IDS d 503      39.013   0.862  16.345  0.00  0.00     0.104 H 
ATOM    153  H   IDS d 503      37.990  -0.516  14.621  0.00  0.00     0.092 H 
ATOM    154  H   IDS d 503      40.933   3.334  14.626  0.00  0.00     0.133 H 
ATOM    155  H   IDS d 503      39.849  -0.374  12.934  0.00  0.00     0.091 H 
ATOM    156  H   IDS d 503      41.704   1.163  13.557  0.00  0.00     0.097 H 
ATOM    157  O3S SGN d 504      37.582  -0.712   8.424  0.00  0.00    -0.296 OA
ATOM    158  O1  SGN d 504      37.666   0.963  13.253  0.00  0.00    -0.348 OA
ATOM    159  O6  SGN d 504      33.317  -1.547  13.826  0.00  0.00    -0.254 OA
ATOM    160  C4  SGN d 504      34.297   0.691  12.038  0.00  0.00     0.095 C 
ATOM    161  O6S SGN d 504      32.518  -2.243  15.978  0.00  0.00    -0.572 OA
ATOM    162  O3  SGN d 504      34.974   1.555   9.891  0.00  0.00    -0.391 OA
ATOM    163  S2  SGN d 504      33.216  -2.662  14.719  0.00  0.00     0.251 S 
ATOM    164  S1  SGN d 504      38.494  -0.245   9.519  0.00  0.00     0.156 S 
ATOM    165  O1S SGN d 504      39.718   0.379   8.918  0.00  0.00    -0.296 OA
ATOM    166  C6  SGN d 504      33.728  -0.265  14.311  0.00  0.00     0.067 C 
ATOM    167  C2  SGN d 504      36.586   0.277  11.150  0.00  0.00     0.081 C 
ATOM    168  C1  SGN d 504      37.010  -0.133  12.563  0.00  0.00     0.150 C 
ATOM    169  O5S SGN d 504      34.593  -3.154  15.053  0.00  0.00    -0.572 OA
ATOM    170  C5  SGN d 504      34.822   0.357  13.438  0.00  0.00     0.091 C 
ATOM    171  O5  SGN d 504      35.882  -0.607  13.318  0.00  0.00    -0.349 OA
ATOM    172  O2S SGN d 504      38.882  -1.424  10.361  0.00  0.00    -0.296 OA
ATOM    173  O4S SGN d 504      32.434  -3.760  14.061  0.00  0.00    -0.572 OA
ATOM    174  N   SGN d 504      37.729   0.867  10.436  0.00  0.00    -0.210 NA
ATOM    175  C3  SGN d 504      35.439   1.288  11.216  0.00  0.00     0.083 C 
ATOM    176  H   SGN d 504      37.325   0.044   7.873  0.00  0.00     0.231 HD
ATOM    177  H   SGN d 504      33.950  -0.215  11.586  0.00  0.00     0.091 H 
ATOM    178  H   SGN d 504      34.246   2.196   9.927  0.00  0.00     0.210 HD
ATOM    179  H   SGN d 504      39.459   1.140   8.375  0.00  0.00     0.231 HD
ATOM    180  H   SGN d 504      34.103  -0.377  15.307  0.00  0.00     0.080 H 
ATOM    181  H   SGN d 504      32.878   0.385  14.287  0.00  0.00     0.080 H 
ATOM    182  H   SGN d 504      36.253  -0.593  10.623  0.00  0.00     0.076 H 
ATOM    183  H   SGN d 504      37.714  -0.934  12.473  0.00  0.00     0.131 H 
ATOM    184  H   SGN d 504      35.160   1.266  13.890  0.00  0.00     0.090 H 
ATOM    185  H   SGN d 504      38.086  -1.822  10.746  0.00  0.00     0.231 HD
ATOM    186  H   SGN d 504      37.393   1.619   9.835  0.00  0.00     0.140 HD
ATOM    187  H   SGN d 504      35.778   2.196  11.670  0.00  0.00     0.089 H 
ATOM    188  O3S SGN d 502      41.317   2.439  22.749  0.00  0.00    -0.296 OA
ATOM    189  C3  SGN d 502      41.122   1.422  18.316  0.00  0.00     0.083 C 
ATOM    190  O5  SGN d 502      42.089   4.066  18.818  0.00  0.00    -0.349 OA
ATOM    191  C1  SGN d 502      42.254   3.070  19.840  0.00  0.00     0.150 C 
ATOM    192  O2S SGN d 502      40.826   0.054  23.001  0.00  0.00    -0.296 OA
ATOM    193  C5  SGN d 502      42.206   3.501  17.501  0.00  0.00     0.091 C 
ATOM    194  O4S SGN d 502      39.444   7.026  16.194  0.00  0.00    -0.572 OA
ATOM    195  O3  SGN d 502      39.982   0.569  18.187  0.00  0.00    -0.391 OA
ATOM    196  O6S SGN d 502      41.975   7.446  16.522  0.00  0.00    -0.572 OA
ATOM    197  C2  SGN d 502      41.143   2.025  19.721  0.00  0.00     0.081 C 
ATOM    198  O5S SGN d 502      41.048   6.153  14.485  0.00  0.00    -0.572 OA
ATOM    199  C6  SGN d 502      42.178   4.653  16.494  0.00  0.00     0.067 C 
ATOM    200  O1S SGN d 502      39.212   1.520  21.883  0.00  0.00    -0.296 OA
ATOM    201  N   SGN d 502      41.390   0.937  20.679  0.00  0.00    -0.210 NA
ATOM    202  C4  SGN d 502      41.076   2.501  17.233  0.00  0.00     0.095 C 
ATOM    203  O6  SGN d 502      40.991   5.441  16.618  0.00  0.00    -0.254 OA
ATOM    204  O1  SGN d 502      43.549   2.431  19.707  0.00  0.00    -0.348 OA
ATOM    205  S1  SGN d 502      40.670   1.248  22.107  0.00  0.00     0.156 S 
ATOM    206  S2  SGN d 502      40.868   6.663  15.885  0.00  0.00     0.251 S 
ATOM    207  H   SGN d 502      40.886   2.622  23.599  0.00  0.00     0.231 HD
ATOM    208  H   SGN d 502      42.025   0.864  18.182  0.00  0.00     0.089 H 
ATOM    209  H   SGN d 502      42.197   3.539  20.800  0.00  0.00     0.131 H 
ATOM    210  H   SGN d 502      40.400   0.231  23.854  0.00  0.00     0.231 HD
ATOM    211  H   SGN d 502      43.124   2.960  17.410  0.00  0.00     0.090 H 
ATOM    212  H   SGN d 502      39.173   1.090  18.311  0.00  0.00     0.210 HD
ATOM    213  H   SGN d 502      40.208   2.504  19.922  0.00  0.00     0.076 H 
ATOM    214  H   SGN d 502      42.223   4.249  15.504  0.00  0.00     0.080 H 
ATOM    215  H   SGN d 502      43.018   5.286  16.691  0.00  0.00     0.080 H 
ATOM    216  H   SGN d 502      38.783   1.705  22.733  0.00  0.00     0.231 HD
ATOM    217  H   SGN d 502      42.395   0.842  20.825  0.00  0.00     0.140 HD
ATOM    218  H   SGN d 502      40.147   3.032  17.217  0.00  0.00     0.091 H 
ENDROOT
TORSDOF 69
