MODEL 1
REMARK VINA RESULT:      -7.4      0.000      0.000
REMARK  0 active torsions:
REMARK  status: ('A' for Active; 'I' for Inactive)
REMARK       I    between atoms: O3_1  and  C3_8 
REMARK       I    between atoms: O3_1  and  S3_11 
REMARK       I    between atoms: C1_2  and  O1_36 
REMARK       I    between atoms: C6_3  and  C5_27 
REMARK       I    between atoms: C6_3  and  O6_25 
REMARK       I    between atoms: O3S_4  and  S1_32 
REMARK       I    between atoms: C3_5  and  O3_9 
REMARK       I    between atoms: N_6  and  S1_32 
REMARK       I    between atoms: N_6  and  C2_39 
REMARK       I    between atoms: S_7  and  O2_30 
REMARK       I    between atoms: O4_12  and  C1_29 
REMARK       I    between atoms: O4_12  and  C4_40 
REMARK       I    between atoms: O4_13  and  C4_28 
REMARK       I    between atoms: C2_14  and  O2_30 
REMARK       I    between atoms: C6_15  and  C5_23 
REMARK       I    between atoms: S2_16  and  O6_25 
REMARK       I    between atoms: O1S_22  and  S1_32 
REMARK       I    between atoms: S1_32  and  O2S_33 
REMARK       I    between atoms: O1_36  and  C7_37 
ROOT
ATOM      1  O3  SUS d 141       0.253   7.674  17.870  0.00  0.00    -0.247 OA
ATOM      2  C6  SUS d 141       3.256   9.185  14.311  0.00  0.00     0.067 C 
ATOM      3  O3S SUS d 141      -4.091  10.006  17.383  0.00  0.00    -0.296 OA
ATOM      4  N   SUS d 141      -1.697   9.644  16.958  0.00  0.00    -0.210 NA
ATOM      5  C3  SUS d 141       0.581   8.788  17.072  0.00  0.00     0.107 C 
ATOM      6  O6S SUS d 141       4.379   8.586  11.149  0.00  0.00    -0.572 OA
ATOM      7  S3  SUS d 141      -0.254   7.684  19.202  0.00  0.00     0.252 S 
ATOM      8  O4  SUS d 141       2.949   8.414  17.104  0.00  0.00    -0.390 OA
ATOM      9  S2  SUS d 141       3.425   7.955  12.058  0.00  0.00     0.251 S 
ATOM     10  O5  SUS d 141       0.908   9.657  14.379  0.00  0.00    -0.349 OA
ATOM     11  O8S SUS d 141      -0.918   8.829  19.781  0.00  0.00    -0.572 OA
ATOM     12  O4S SUS d 141       4.062   6.979  12.937  0.00  0.00    -0.572 OA
ATOM     13  O1S SUS d 141      -3.392   8.979  15.308  0.00  0.00    -0.296 OA
ATOM     14  O7S SUS d 141       0.875   7.379  20.042  0.00  0.00    -0.572 OA
ATOM     15  O6  SUS d 141       2.843   9.081  12.968  0.00  0.00    -0.254 OA
ATOM     16  C5  SUS d 141       2.059   9.539  15.184  0.00  0.00     0.090 C 
ATOM     17  C4  SUS d 141       1.827   8.476  16.251  0.00  0.00     0.090 C 
ATOM     18  C1  SUS d 141      -0.195  10.148  15.107  0.00  0.00     0.150 C 
ATOM     19  O9S SUS d 141      -1.112   6.521  19.258  0.00  0.00    -0.572 OA
ATOM     20  S1  SUS d 141      -3.173   9.064  16.749  0.00  0.00     0.156 S 
ATOM     21  O2S SUS d 141      -3.206   7.754  17.394  0.00  0.00    -0.296 OA
ATOM     22  C2  SUS d 141      -0.597   9.129  16.167  0.00  0.00     0.083 C 
ATOM     23  O5S SUS d 141       2.302   7.352  11.347  0.00  0.00    -0.572 OA
ATOM     24  H   SUS d 141       3.668   8.251  14.632  0.00  0.00     0.080 H 
ATOM     25  H   SUS d 141       3.999   9.951  14.397  0.00  0.00     0.080 H 
ATOM     26  H   SUS d 141      -4.041  10.862  16.928  0.00  0.00     0.231 HD
ATOM     27  H   SUS d 141      -1.455   9.487  17.937  0.00  0.00     0.140 HD
ATOM     28  H   SUS d 141       0.788   9.635  17.694  0.00  0.00     0.092 H 
ATOM     29  H   SUS d 141       2.801   7.738  17.784  0.00  0.00     0.210 HD
ATOM     30  H   SUS d 141      -3.362   9.868  14.923  0.00  0.00     0.231 HD
ATOM     31  H   SUS d 141       2.261  10.470  15.671  0.00  0.00     0.090 H 
ATOM     32  H   SUS d 141       1.684   7.534  15.764  0.00  0.00     0.091 H 
ATOM     33  H   SUS d 141      -1.016  10.314  14.442  0.00  0.00     0.131 H 
ATOM     34  H   SUS d 141      -3.056   7.859  18.346  0.00  0.00     0.231 HD
ATOM     35  H   SUS d 141      -0.908   8.234  15.670  0.00  0.00     0.076 H 
ATOM     36  C1  IDY d 142      -0.642  14.705  17.422  0.00  0.00     0.160 C 
ATOM     37  C3  IDY d 142      -0.856  13.270  15.495  0.00  0.00     0.094 C 
ATOM     38  S   IDY d 142      -2.556  12.746  18.963  0.00  0.00     0.252 S 
ATOM     39  O3  IDY d 142      -1.697  13.487  14.261  0.00  0.00    -0.390 OA
ATOM     40  O4  IDY d 142       0.158  11.361  15.732  0.00  0.00    -0.348 OA
ATOM     41  C2  IDY d 142      -1.510  13.645  16.781  0.00  0.00     0.134 C 
ATOM     42  C6  IDY d 142       2.784  13.476  16.359  0.00  0.00     0.206 C 
ATOM     43  O61 IDY d 142       3.002  12.767  17.401  0.00  0.00    -0.646 OA
ATOM     44  O62 IDY d 142       3.826  13.752  15.585  0.00  0.00    -0.646 OA
ATOM     45  C5  IDY d 142       1.410  14.046  16.067  0.00  0.00     0.152 C 
ATOM     46  OS2 IDY d 142      -3.966  12.647  18.539  0.00  0.00    -0.572 OA
ATOM     47  O2  IDY d 142      -1.640  12.550  17.727  0.00  0.00    -0.244 OA
ATOM     48  OS1 IDY d 142      -2.232  11.690  19.957  0.00  0.00    -0.572 OA
ATOM     49  O5  IDY d 142       0.786  14.473  17.314  0.00  0.00    -0.340 OA
ATOM     50  O1  IDY d 142      -1.137  15.930  16.728  0.00  0.00    -0.363 OA
ATOM     51  C7  IDY d 142       0.084  16.812  17.010  0.00  0.00     0.007 C 
ATOM     52  OS3 IDY d 142      -2.370  14.093  19.576  0.00  0.00    -0.572 OA
ATOM     53  C4  IDY d 142       0.607  12.972  15.332  0.00  0.00     0.103 C 
ATOM     54  H   IDY d 142      -0.730  14.748  18.487  0.00  0.00     0.133 H 
ATOM     55  H   IDY d 142      -0.747  12.256  15.819  0.00  0.00     0.091 H 
ATOM     56  H   IDY d 142      -1.730  14.435  14.054  0.00  0.00     0.210 HD
ATOM     57  H   IDY d 142      -2.502  13.973  16.553  0.00  0.00     0.097 H 
ATOM     58  H   IDY d 142       1.461  14.913  15.441  0.00  0.00     0.104 H 
ATOM     59  H   IDY d 142      -0.068  17.779  16.579  0.00  0.00     0.066 H 
ATOM     60  H   IDY d 142       0.955  16.363  16.579  0.00  0.00     0.066 H 
ATOM     61  H   IDY d 142       0.218  16.908  18.066  0.00  0.00     0.066 H 
ATOM     62  H   IDY d 142       1.306  13.006  14.524  0.00  0.00     0.092 H 
ENDROOT
TORSDOF 19
ENDMDL
MODEL 2
REMARK VINA RESULT:      -7.4      2.610      6.706
REMARK  0 active torsions:
REMARK  status: ('A' for Active; 'I' for Inactive)
REMARK       I    between atoms: O3_1  and  C3_8 
REMARK       I    between atoms: O3_1  and  S3_11 
REMARK       I    between atoms: C1_2  and  O1_36 
REMARK       I    between atoms: C6_3  and  C5_27 
REMARK       I    between atoms: C6_3  and  O6_25 
REMARK       I    between atoms: O3S_4  and  S1_32 
REMARK       I    between atoms: C3_5  and  O3_9 
REMARK       I    between atoms: N_6  and  S1_32 
REMARK       I    between atoms: N_6  and  C2_39 
REMARK       I    between atoms: S_7  and  O2_30 
REMARK       I    between atoms: O4_12  and  C1_29 
REMARK       I    between atoms: O4_12  and  C4_40 
REMARK       I    between atoms: O4_13  and  C4_28 
REMARK       I    between atoms: C2_14  and  O2_30 
REMARK       I    between atoms: C6_15  and  C5_23 
REMARK       I    between atoms: S2_16  and  O6_25 
REMARK       I    between atoms: O1S_22  and  S1_32 
REMARK       I    between atoms: S1_32  and  O2S_33 
REMARK       I    between atoms: O1_36  and  C7_37 
ROOT
ATOM      1  O3  SUS d 141      -1.230  11.131  14.485  0.00  0.00    -0.247 OA
ATOM      2  C6  SUS d 141      -1.147  15.378  16.920  0.00  0.00     0.067 C 
ATOM      3  O3S SUS d 141      -2.906   7.591  17.519  0.00  0.00    -0.296 OA
ATOM      4  N   SUS d 141      -1.996   9.808  16.970  0.00  0.00    -0.210 NA
ATOM      5  C3  SUS d 141      -1.034  11.692  15.763  0.00  0.00     0.107 C 
ATOM      6  O6S SUS d 141      -2.895  18.202  17.688  0.00  0.00    -0.572 OA
ATOM      7  S3  SUS d 141      -0.630   9.951  13.959  0.00  0.00     0.252 S 
ATOM      8  O4  SUS d 141       0.159  13.624  14.994  0.00  0.00    -0.390 OA
ATOM      9  S2  SUS d 141      -3.141  17.004  16.889  0.00  0.00     0.251 S 
ATOM     10  O5  SUS d 141      -2.216  13.389  17.723  0.00  0.00    -0.349 OA
ATOM     11  O8S SUS d 141      -0.072   8.913  14.794  0.00  0.00    -0.572 OA
ATOM     12  O4S SUS d 141      -2.666  17.148  15.516  0.00  0.00    -0.572 OA
ATOM     13  O1S SUS d 141      -4.381   9.508  17.483  0.00  0.00    -0.296 OA
ATOM     14  O7S SUS d 141       0.425  10.412  13.094  0.00  0.00    -0.572 OA
ATOM     15  O6  SUS d 141      -2.325  15.843  17.538  0.00  0.00    -0.254 OA
ATOM     16  C5  SUS d 141      -1.081  13.861  17.032  0.00  0.00     0.090 C 
ATOM     17  C4  SUS d 141      -1.018  13.213  15.654  0.00  0.00     0.090 C 
ATOM     18  C1  SUS d 141      -2.124  12.011  18.004  0.00  0.00     0.150 C 
ATOM     19  O9S SUS d 141      -1.645   9.403  13.085  0.00  0.00    -0.572 OA
ATOM     20  S1  SUS d 141      -3.258   8.834  16.838  0.00  0.00     0.156 S 
ATOM     21  O2S SUS d 141      -3.482   8.627  15.410  0.00  0.00    -0.296 OA
ATOM     22  C2  SUS d 141      -2.142  11.224  16.699  0.00  0.00     0.083 C 
ATOM     23  O5S SUS d 141      -4.546  16.607  16.909  0.00  0.00    -0.572 OA
ATOM     24  H   SUS d 141      -1.151  15.660  15.887  0.00  0.00     0.080 H 
ATOM     25  H   SUS d 141      -0.297  15.809  17.404  0.00  0.00     0.080 H 
ATOM     26  H   SUS d 141      -2.766   7.768  18.462  0.00  0.00     0.231 HD
ATOM     27  H   SUS d 141      -1.285   9.457  16.329  0.00  0.00     0.140 HD
ATOM     28  H   SUS d 141      -0.094  11.371  16.163  0.00  0.00     0.092 H 
ATOM     29  H   SUS d 141       0.199  13.212  14.117  0.00  0.00     0.210 HD
ATOM     30  H   SUS d 141      -4.190   9.624  18.427  0.00  0.00     0.231 HD
ATOM     31  H   SUS d 141      -0.192  13.601  17.569  0.00  0.00     0.090 H 
ATOM     32  H   SUS d 141      -1.879  13.520  15.096  0.00  0.00     0.091 H 
ATOM     33  H   SUS d 141      -2.955  11.715  18.611  0.00  0.00     0.131 H 
ATOM     34  H   SUS d 141      -2.713   8.178  15.023  0.00  0.00     0.231 HD
ATOM     35  H   SUS d 141      -3.082  11.396  16.217  0.00  0.00     0.076 H 
ATOM     36  C1  IDY d 142       1.359   9.633  20.926  0.00  0.00     0.160 C 
ATOM     37  C3  IDY d 142      -0.736  10.794  20.636  0.00  0.00     0.094 C 
ATOM     38  S   IDY d 142       0.343   7.497  18.858  0.00  0.00     0.252 S 
ATOM     39  O3  IDY d 142      -1.930  10.805  21.558  0.00  0.00    -0.390 OA
ATOM     40  O4  IDY d 142      -0.921  11.751  18.692  0.00  0.00    -0.348 OA
ATOM     41  C2  IDY d 142      -0.074   9.468  20.472  0.00  0.00     0.134 C 
ATOM     42  C6  IDY d 142       2.015  13.176  19.743  0.00  0.00     0.206 C 
ATOM     43  O61 IDY d 142       2.489  12.850  18.600  0.00  0.00    -0.646 OA
ATOM     44  O62 IDY d 142       2.230  14.418  20.156  0.00  0.00    -0.646 OA
ATOM     45  C5  IDY d 142       1.312  12.160  20.623  0.00  0.00     0.152 C 
ATOM     46  OS2 IDY d 142      -0.792   6.629  19.230  0.00  0.00    -0.572 OA
ATOM     47  O2  IDY d 142      -0.049   8.977  19.105  0.00  0.00    -0.244 OA
ATOM     48  OS1 IDY d 142       0.677   7.335  17.420  0.00  0.00    -0.572 OA
ATOM     49  O5  IDY d 142       1.990  10.873  20.517  0.00  0.00    -0.340 OA
ATOM     50  O1  IDY d 142       1.208   9.459  22.401  0.00  0.00    -0.363 OA
ATOM     51  C7  IDY d 142       2.518  10.142  22.806  0.00  0.00     0.007 C 
ATOM     52  OS3 IDY d 142       1.506   7.090  19.698  0.00  0.00    -0.572 OA
ATOM     53  C4  IDY d 142      -0.153  12.104  20.188  0.00  0.00     0.103 C 
ATOM     54  H   IDY d 142       2.037   8.938  20.478  0.00  0.00     0.133 H 
ATOM     55  H   IDY d 142      -0.948  10.843  19.589  0.00  0.00     0.091 H 
ATOM     56  H   IDY d 142      -1.628  10.758  22.479  0.00  0.00     0.210 HD
ATOM     57  H   IDY d 142      -0.633   8.757  21.043  0.00  0.00     0.097 H 
ATOM     58  H   IDY d 142       1.345  12.436  21.656  0.00  0.00     0.104 H 
ATOM     59  H   IDY d 142       2.613  10.127  23.872  0.00  0.00     0.066 H 
ATOM     60  H   IDY d 142       2.513  11.156  22.463  0.00  0.00     0.066 H 
ATOM     61  H   IDY d 142       3.342   9.622  22.367  0.00  0.00     0.066 H 
ATOM     62  H   IDY d 142      -0.273  13.128  20.472  0.00  0.00     0.092 H 
ENDROOT
TORSDOF 19
ENDMDL
MODEL 3
REMARK VINA RESULT:      -7.3      2.525      6.213
REMARK  0 active torsions:
REMARK  status: ('A' for Active; 'I' for Inactive)
REMARK       I    between atoms: O3_1  and  C3_8 
REMARK       I    between atoms: O3_1  and  S3_11 
REMARK       I    between atoms: C1_2  and  O1_36 
REMARK       I    between atoms: C6_3  and  C5_27 
REMARK       I    between atoms: C6_3  and  O6_25 
REMARK       I    between atoms: O3S_4  and  S1_32 
REMARK       I    between atoms: C3_5  and  O3_9 
REMARK       I    between atoms: N_6  and  S1_32 
REMARK       I    between atoms: N_6  and  C2_39 
REMARK       I    between atoms: S_7  and  O2_30 
REMARK       I    between atoms: O4_12  and  C1_29 
REMARK       I    between atoms: O4_12  and  C4_40 
REMARK       I    between atoms: O4_13  and  C4_28 
REMARK       I    between atoms: C2_14  and  O2_30 
REMARK       I    between atoms: C6_15  and  C5_23 
REMARK       I    between atoms: S2_16  and  O6_25 
REMARK       I    between atoms: O1S_22  and  S1_32 
REMARK       I    between atoms: S1_32  and  O2S_33 
REMARK       I    between atoms: O1_36  and  C7_37 
ROOT
ATOM      1  O3  SUS d 141      -0.908  10.759  13.816  0.00  0.00    -0.247 OA
ATOM      2  C6  SUS d 141      -0.263  15.220  15.727  0.00  0.00     0.067 C 
ATOM      3  O3S SUS d 141      -3.484   8.007  17.031  0.00  0.00    -0.296 OA
ATOM      4  N   SUS d 141      -2.132   9.939  16.334  0.00  0.00    -0.210 NA
ATOM      5  C3  SUS d 141      -0.729  11.446  15.032  0.00  0.00     0.107 C 
ATOM      6  O6S SUS d 141      -1.520  18.380  15.953  0.00  0.00    -0.572 OA
ATOM      7  S3  SUS d 141      -0.492   9.432  13.504  0.00  0.00     0.252 S 
ATOM      8  O4  SUS d 141       0.866  13.021  14.184  0.00  0.00    -0.390 OA
ATOM      9  S2  SUS d 141      -1.909  17.145  15.277  0.00  0.00     0.251 S 
ATOM     10  O5  SUS d 141      -1.751  13.572  16.630  0.00  0.00    -0.349 OA
ATOM     11  O8S SUS d 141      -0.215   8.437  14.514  0.00  0.00    -0.572 OA
ATOM     12  O4S SUS d 141      -1.291  17.017  13.961  0.00  0.00    -0.572 OA
ATOM     13  O1S SUS d 141      -4.567  10.126  16.602  0.00  0.00    -0.296 OA
ATOM     14  O7S SUS d 141       0.705   9.583  12.717  0.00  0.00    -0.572 OA
ATOM     15  O6  SUS d 141      -1.386  15.961  16.147  0.00  0.00    -0.254 OA
ATOM     16  C5  SUS d 141      -0.489  13.743  16.024  0.00  0.00     0.090 C 
ATOM     17  C4  SUS d 141      -0.422  12.912  14.748  0.00  0.00     0.090 C 
ATOM     18  C1  SUS d 141      -1.943  12.250  17.080  0.00  0.00     0.150 C 
ATOM     19  O9S SUS d 141      -1.506   8.954  12.589  0.00  0.00    -0.572 OA
ATOM     20  S1  SUS d 141      -3.535   9.188  16.173  0.00  0.00     0.156 S 
ATOM     21  O2S SUS d 141      -3.660   8.830  14.763  0.00  0.00    -0.296 OA
ATOM     22  C2  SUS d 141      -1.987  11.308  15.883  0.00  0.00     0.083 C 
ATOM     23  O5S SUS d 141      -3.358  17.002  15.182  0.00  0.00    -0.572 OA
ATOM     24  H   SUS d 141      -0.120  15.355  14.675  0.00  0.00     0.080 H 
ATOM     25  H   SUS d 141       0.605  15.560  16.252  0.00  0.00     0.080 H 
ATOM     26  H   SUS d 141      -3.400   8.284  17.957  0.00  0.00     0.231 HD
ATOM     27  H   SUS d 141      -1.441   9.386  15.825  0.00  0.00     0.140 HD
ATOM     28  H   SUS d 141       0.093  11.026  15.573  0.00  0.00     0.092 H 
ATOM     29  H   SUS d 141       0.909  12.493  13.372  0.00  0.00     0.210 HD
ATOM     30  H   SUS d 141      -4.445  10.335  17.541  0.00  0.00     0.231 HD
ATOM     31  H   SUS d 141       0.283  13.410  16.686  0.00  0.00     0.090 H 
ATOM     32  H   SUS d 141      -1.156  13.285  14.063  0.00  0.00     0.091 H 
ATOM     33  H   SUS d 141      -2.866  12.187  17.618  0.00  0.00     0.131 H 
ATOM     34  H   SUS d 141      -2.956   8.207  14.523  0.00  0.00     0.231 HD
ATOM     35  H   SUS d 141      -2.830  11.572  15.280  0.00  0.00     0.076 H 
ATOM     36  C1  IDY d 142       0.756   9.729  20.642  0.00  0.00     0.160 C 
ATOM     37  C3  IDY d 142      -1.052  11.183  19.979  0.00  0.00     0.094 C 
ATOM     38  S   IDY d 142      -0.445   7.538  18.737  0.00  0.00     0.252 S 
ATOM     39  O3  IDY d 142      -2.302  11.525  20.750  0.00  0.00    -0.390 OA
ATOM     40  O4  IDY d 142      -0.877  11.883  17.927  0.00  0.00    -0.348 OA
ATOM     41  C2  IDY d 142      -0.635   9.753  20.049  0.00  0.00     0.134 C 
ATOM     42  C6  IDY d 142       2.164  12.911  19.134  0.00  0.00     0.206 C 
ATOM     43  O61 IDY d 142       2.671  12.356  18.099  0.00  0.00    -0.646 OA
ATOM     44  O62 IDY d 142       2.566  14.142  19.420  0.00  0.00    -0.646 OA
ATOM     45  C5  IDY d 142       1.207  12.161  20.041  0.00  0.00     0.152 C 
ATOM     46  OS2 IDY d 142      -1.750   6.937  19.075  0.00  0.00    -0.572 OA
ATOM     47  O2  IDY d 142      -0.577   9.083  18.761  0.00  0.00    -0.244 OA
ATOM     48  OS1 IDY d 142      -0.016   7.127  17.375  0.00  0.00    -0.572 OA
ATOM     49  O5  IDY d 142       1.641  10.775  20.165  0.00  0.00    -0.340 OA
ATOM     50  O1  IDY d 142       0.440   9.786  22.100  0.00  0.00    -0.363 OA
ATOM     51  C7  IDY d 142       1.811  10.282  22.570  0.00  0.00     0.007 C 
ATOM     52  OS3 IDY d 142       0.541   7.055  19.746  0.00  0.00    -0.572 OA
ATOM     53  C4  IDY d 142      -0.197  12.299  19.450  0.00  0.00     0.103 C 
ATOM     54  H   IDY d 142       1.332   8.873  20.359  0.00  0.00     0.133 H 
ATOM     55  H   IDY d 142      -1.154  11.125  18.916  0.00  0.00     0.091 H 
ATOM     56  H   IDY d 142      -2.101  11.552  21.699  0.00  0.00     0.210 HD
ATOM     57  H   IDY d 142      -1.367   9.233  20.632  0.00  0.00     0.097 H 
ATOM     58  H   IDY d 142       1.195  12.566  21.031  0.00  0.00     0.104 H 
ATOM     59  H   IDY d 142       1.804  10.397  23.633  0.00  0.00     0.066 H 
ATOM     60  H   IDY d 142       2.026  11.225  22.112  0.00  0.00     0.066 H 
ATOM     61  H   IDY d 142       2.562   9.573  22.292  0.00  0.00     0.066 H 
ATOM     62  H   IDY d 142      -0.151  13.358  19.596  0.00  0.00     0.092 H 
ENDROOT
TORSDOF 19
ENDMDL
MODEL 4
REMARK VINA RESULT:      -7.2      2.338      7.040
REMARK  0 active torsions:
REMARK  status: ('A' for Active; 'I' for Inactive)
REMARK       I    between atoms: O3_1  and  C3_8 
REMARK       I    between atoms: O3_1  and  S3_11 
REMARK       I    between atoms: C1_2  and  O1_36 
REMARK       I    between atoms: C6_3  and  C5_27 
REMARK       I    between atoms: C6_3  and  O6_25 
REMARK       I    between atoms: O3S_4  and  S1_32 
REMARK       I    between atoms: C3_5  and  O3_9 
REMARK       I    between atoms: N_6  and  S1_32 
REMARK       I    between atoms: N_6  and  C2_39 
REMARK       I    between atoms: S_7  and  O2_30 
REMARK       I    between atoms: O4_12  and  C1_29 
REMARK       I    between atoms: O4_12  and  C4_40 
REMARK       I    between atoms: O4_13  and  C4_28 
REMARK       I    between atoms: C2_14  and  O2_30 
REMARK       I    between atoms: C6_15  and  C5_23 
REMARK       I    between atoms: S2_16  and  O6_25 
REMARK       I    between atoms: O1S_22  and  S1_32 
REMARK       I    between atoms: S1_32  and  O2S_33 
REMARK       I    between atoms: O1_36  and  C7_37 
ROOT
ATOM      1  O3  SUS d 141      -1.125   9.198  19.327  0.00  0.00    -0.247 OA
ATOM      2  C6  SUS d 141      -3.791  12.346  16.691  0.00  0.00     0.067 C 
ATOM      3  O3S SUS d 141       3.668   9.941  18.320  0.00  0.00    -0.296 OA
ATOM      4  N   SUS d 141       1.251  10.158  17.932  0.00  0.00    -0.210 NA
ATOM      5  C3  SUS d 141      -1.164   9.885  18.098  0.00  0.00     0.107 C 
ATOM      6  O6S SUS d 141      -5.265  15.419  16.646  0.00  0.00    -0.572 OA
ATOM      7  S3  SUS d 141      -0.545   7.922  19.587  0.00  0.00     0.252 S 
ATOM      8  O4  SUS d 141      -3.528   9.652  17.770  0.00  0.00    -0.390 OA
ATOM      9  S2  SUS d 141      -4.479  14.650  17.607  0.00  0.00     0.251 S 
ATOM     10  O5  SUS d 141      -1.410  12.471  16.928  0.00  0.00    -0.349 OA
ATOM     11  O8S SUS d 141       0.469   7.334  18.742  0.00  0.00    -0.572 OA
ATOM     12  O4S SUS d 141      -5.312  13.781  18.433  0.00  0.00    -0.572 OA
ATOM     13  O1S SUS d 141       2.550  12.003  18.906  0.00  0.00    -0.296 OA
ATOM     14  O7S SUS d 141      -1.650   7.001  19.627  0.00  0.00    -0.572 OA
ATOM     15  O6  SUS d 141      -3.525  13.726  16.787  0.00  0.00    -0.254 OA
ATOM     16  C5  SUS d 141      -2.484  11.570  16.780  0.00  0.00     0.090 C 
ATOM     17  C4  SUS d 141      -2.502  10.602  17.959  0.00  0.00     0.090 C 
ATOM     18  C1  SUS d 141      -0.163  11.820  16.847  0.00  0.00     0.150 C 
ATOM     19  O9S SUS d 141      -0.068   8.026  20.949  0.00  0.00    -0.572 OA
ATOM     20  S1  SUS d 141       2.469  10.546  18.893  0.00  0.00     0.156 S 
ATOM     21  O2S SUS d 141       2.158   9.995  20.210  0.00  0.00    -0.296 OA
ATOM     22  C2  SUS d 141      -0.006  10.873  18.031  0.00  0.00     0.083 C 
ATOM     23  O5S SUS d 141      -3.639  15.503  18.442  0.00  0.00    -0.572 OA
ATOM     24  H   SUS d 141      -4.438  12.050  17.491  0.00  0.00     0.080 H 
ATOM     25  H   SUS d 141      -4.266  12.138  15.754  0.00  0.00     0.080 H 
ATOM     26  H   SUS d 141       3.842  10.330  17.449  0.00  0.00     0.231 HD
ATOM     27  H   SUS d 141       1.043   9.173  18.102  0.00  0.00     0.140 HD
ATOM     28  H   SUS d 141      -1.066   9.191  17.288  0.00  0.00     0.092 H 
ATOM     29  H   SUS d 141      -3.539   9.036  18.520  0.00  0.00     0.210 HD
ATOM     30  H   SUS d 141       2.757  12.324  18.014  0.00  0.00     0.231 HD
ATOM     31  H   SUS d 141      -2.365  11.004  15.880  0.00  0.00     0.090 H 
ATOM     32  H   SUS d 141      -2.680  11.162  18.853  0.00  0.00     0.091 H 
ATOM     33  H   SUS d 141       0.621  12.548  16.866  0.00  0.00     0.131 H 
ATOM     34  H   SUS d 141       2.114   9.028  20.154  0.00  0.00     0.231 HD
ATOM     35  H   SUS d 141      -0.011  11.456  18.929  0.00  0.00     0.076 H 
ATOM     36  C1  IDY d 142       1.781   9.260  12.848  0.00  0.00     0.160 C 
ATOM     37  C3  IDY d 142       1.421  11.290  14.100  0.00  0.00     0.094 C 
ATOM     38  S   IDY d 142       3.132   8.042  15.410  0.00  0.00     0.252 S 
ATOM     39  O3  IDY d 142       2.198  12.581  14.024  0.00  0.00    -0.390 OA
ATOM     40  O4  IDY d 142      -0.095  11.084  15.646  0.00  0.00    -0.348 OA
ATOM     41  C2  IDY d 142       2.247  10.049  14.050  0.00  0.00     0.134 C 
ATOM     42  C6  IDY d 142      -1.923  10.071  12.928  0.00  0.00     0.206 C 
ATOM     43  O61 IDY d 142      -2.266   9.062  13.636  0.00  0.00    -0.646 OA
ATOM     44  O62 IDY d 142      -2.888  10.721  12.292  0.00  0.00    -0.646 OA
ATOM     45  C5  IDY d 142      -0.466  10.454  12.756  0.00  0.00     0.152 C 
ATOM     46  OS2 IDY d 142       4.415   8.604  15.875  0.00  0.00    -0.572 OA
ATOM     47  O2  IDY d 142       2.113   9.195  15.218  0.00  0.00    -0.244 OA
ATOM     48  OS1 IDY d 142       2.582   7.094  16.414  0.00  0.00    -0.572 OA
ATOM     49  O5  IDY d 142       0.344   9.246  12.645  0.00  0.00    -0.340 OA
ATOM     50  O1  IDY d 142       2.566   9.915  11.760  0.00  0.00    -0.363 OA
ATOM     51  C7  IDY d 142       1.684   9.460  10.592  0.00  0.00     0.007 C 
ATOM     52  OS3 IDY d 142       3.399   7.326  14.129  0.00  0.00    -0.572 OA
ATOM     53  C4  IDY d 142      -0.073  11.331  13.945  0.00  0.00     0.103 C 
ATOM     54  H   IDY d 142       1.953   8.207  12.930  0.00  0.00     0.133 H 
ATOM     55  H   IDY d 142       1.039  11.025  15.064  0.00  0.00     0.091 H 
ATOM     56  H   IDY d 142       2.496  12.726  13.112  0.00  0.00     0.210 HD
ATOM     57  H   IDY d 142       3.273  10.348  14.005  0.00  0.00     0.097 H 
ATOM     58  H   IDY d 142      -0.302  11.013  11.859  0.00  0.00     0.104 H 
ATOM     59  H   IDY d 142       2.085   9.837   9.675  0.00  0.00     0.066 H 
ATOM     60  H   IDY d 142       0.691   9.834  10.728  0.00  0.00     0.066 H 
ATOM     61  H   IDY d 142       1.661   8.391  10.559  0.00  0.00     0.066 H 
ATOM     62  H   IDY d 142      -0.786  12.065  13.635  0.00  0.00     0.092 H 
ENDROOT
TORSDOF 19
ENDMDL
MODEL 5
REMARK VINA RESULT:      -7.2      2.554      7.028
REMARK  0 active torsions:
REMARK  status: ('A' for Active; 'I' for Inactive)
REMARK       I    between atoms: O3_1  and  C3_8 
REMARK       I    between atoms: O3_1  and  S3_11 
REMARK       I    between atoms: C1_2  and  O1_36 
REMARK       I    between atoms: C6_3  and  C5_27 
REMARK       I    between atoms: C6_3  and  O6_25 
REMARK       I    between atoms: O3S_4  and  S1_32 
REMARK       I    between atoms: C3_5  and  O3_9 
REMARK       I    between atoms: N_6  and  S1_32 
REMARK       I    between atoms: N_6  and  C2_39 
REMARK       I    between atoms: S_7  and  O2_30 
REMARK       I    between atoms: O4_12  and  C1_29 
REMARK       I    between atoms: O4_12  and  C4_40 
REMARK       I    between atoms: O4_13  and  C4_28 
REMARK       I    between atoms: C2_14  and  O2_30 
REMARK       I    between atoms: C6_15  and  C5_23 
REMARK       I    between atoms: S2_16  and  O6_25 
REMARK       I    between atoms: O1S_22  and  S1_32 
REMARK       I    between atoms: S1_32  and  O2S_33 
REMARK       I    between atoms: O1_36  and  C7_37 
ROOT
ATOM      1  O3  SUS d 141      -1.818   9.154  18.749  0.00  0.00    -0.247 OA
ATOM      2  C6  SUS d 141      -4.482  11.754  15.569  0.00  0.00     0.067 C 
ATOM      3  O3S SUS d 141       2.948  10.401  18.224  0.00  0.00    -0.296 OA
ATOM      4  N   SUS d 141       0.586  10.293  17.551  0.00  0.00    -0.210 NA
ATOM      5  C3  SUS d 141      -1.785   9.740  17.468  0.00  0.00     0.107 C 
ATOM      6  O6S SUS d 141      -6.276  14.614  15.095  0.00  0.00    -0.572 OA
ATOM      7  S3  SUS d 141      -1.133   7.981  19.181  0.00  0.00     0.252 S 
ATOM      8  O4  SUS d 141      -4.050   9.198  16.900  0.00  0.00    -0.390 OA
ATOM      9  S2  SUS d 141      -5.530  14.017  16.201  0.00  0.00     0.251 S 
ATOM     10  O5  SUS d 141      -2.177  12.186  16.060  0.00  0.00    -0.349 OA
ATOM     11  O8S SUS d 141       0.035   7.461  18.508  0.00  0.00    -0.572 OA
ATOM     12  O4S SUS d 141      -6.355  13.115  17.000  0.00  0.00    -0.572 OA
ATOM     13  O1S SUS d 141       1.542  12.348  18.501  0.00  0.00    -0.296 OA
ATOM     14  O7S SUS d 141      -2.125   6.937  19.177  0.00  0.00    -0.572 OA
ATOM     15  O6  SUS d 141      -4.387  13.160  15.575  0.00  0.00    -0.254 OA
ATOM     16  C5  SUS d 141      -3.117  11.152  15.871  0.00  0.00     0.090 C 
ATOM     17  C4  SUS d 141      -3.168  10.277  17.119  0.00  0.00     0.090 C 
ATOM     18  C1  SUS d 141      -0.863  11.687  16.175  0.00  0.00     0.150 C 
ATOM     19  O9S SUS d 141      -0.840   8.241  20.574  0.00  0.00    -0.572 OA
ATOM     20  S1  SUS d 141       1.628  10.895  18.605  0.00  0.00     0.156 S 
ATOM     21  O2S SUS d 141       1.223  10.408  19.921  0.00  0.00    -0.296 OA
ATOM     22  C2  SUS d 141      -0.746  10.855  17.446  0.00  0.00     0.083 C 
ATOM     23  O5S SUS d 141      -4.899  15.025  17.047  0.00  0.00    -0.572 OA
ATOM     24  H   SUS d 141      -5.184  11.441  16.314  0.00  0.00     0.080 H 
ATOM     25  H   SUS d 141      -4.813  11.423  14.606  0.00  0.00     0.080 H 
ATOM     26  H   SUS d 141       3.181  10.744  17.347  0.00  0.00     0.231 HD
ATOM     27  H   SUS d 141       0.472   9.306  17.780  0.00  0.00     0.140 HD
ATOM     28  H   SUS d 141      -1.511   9.007  16.737  0.00  0.00     0.092 H 
ATOM     29  H   SUS d 141      -4.083   8.641  17.693  0.00  0.00     0.210 HD
ATOM     30  H   SUS d 141       1.819  12.626  17.614  0.00  0.00     0.231 HD
ATOM     31  H   SUS d 141      -2.826  10.541  15.041  0.00  0.00     0.090 H 
ATOM     32  H   SUS d 141      -3.515  10.875  17.936  0.00  0.00     0.091 H 
ATOM     33  H   SUS d 141      -0.174  12.505  16.218  0.00  0.00     0.131 H 
ATOM     34  H   SUS d 141       1.296   9.441  19.944  0.00  0.00     0.231 HD
ATOM     35  H   SUS d 141      -0.925  11.497  18.284  0.00  0.00     0.076 H 
ATOM     36  C1  IDY d 142       1.827   9.100  12.654  0.00  0.00     0.160 C 
ATOM     37  C3  IDY d 142       1.092  11.157  13.678  0.00  0.00     0.094 C 
ATOM     38  S   IDY d 142       2.986   8.245  15.447  0.00  0.00     0.252 S 
ATOM     39  O3  IDY d 142       1.721  12.524  13.578  0.00  0.00    -0.390 OA
ATOM     40  O4  IDY d 142      -0.568  10.880  15.057  0.00  0.00    -0.348 OA
ATOM     41  C2  IDY d 142       2.052  10.026  13.828  0.00  0.00     0.134 C 
ATOM     42  C6  IDY d 142      -1.927   9.458  12.249  0.00  0.00     0.206 C 
ATOM     43  O61 IDY d 142      -2.238   8.469  12.999  0.00  0.00    -0.646 OA
ATOM     44  O62 IDY d 142      -2.875   9.937  11.455  0.00  0.00    -0.646 OA
ATOM     45  C5  IDY d 142      -0.512  10.002  12.209  0.00  0.00     0.152 C 
ATOM     46  OS2 IDY d 142       4.131   8.992  16.002  0.00  0.00    -0.572 OA
ATOM     47  O2  IDY d 142       1.874   9.249  15.043  0.00  0.00    -0.244 OA
ATOM     48  OS1 IDY d 142       2.428   7.313  16.460  0.00  0.00    -0.572 OA
ATOM     49  O5  IDY d 142       0.436   8.897  12.294  0.00  0.00    -0.340 OA
ATOM     50  O1  IDY d 142       2.659   9.765  11.609  0.00  0.00    -0.363 OA
ATOM     51  C7  IDY d 142       1.982   9.123  10.393  0.00  0.00     0.007 C 
ATOM     52  OS3 IDY d 142       3.484   7.476  14.271  0.00  0.00    -0.572 OA
ATOM     53  C4  IDY d 142      -0.368  11.005  13.354  0.00  0.00     0.103 C 
ATOM     54  H   IDY d 142       2.105   8.085  12.845  0.00  0.00     0.133 H 
ATOM     55  H   IDY d 142       0.628  10.918  14.612  0.00  0.00     0.091 H 
ATOM     56  H   IDY d 142       2.110  12.638  12.696  0.00  0.00     0.210 HD
ATOM     57  H   IDY d 142       3.035  10.444  13.872  0.00  0.00     0.097 H 
ATOM     58  H   IDY d 142      -0.305  10.510  11.290  0.00  0.00     0.104 H 
ATOM     59  H   IDY d 142       2.446   9.479   9.498  0.00  0.00     0.066 H 
ATOM     60  H   IDY d 142       0.944   9.382  10.384  0.00  0.00     0.066 H 
ATOM     61  H   IDY d 142       2.084   8.059  10.449  0.00  0.00     0.066 H 
ATOM     62  H   IDY d 142      -1.116  11.622  12.904  0.00  0.00     0.092 H 
ENDROOT
TORSDOF 19
ENDMDL
MODEL 6
REMARK VINA RESULT:      -7.1      2.423      7.098
REMARK  0 active torsions:
REMARK  status: ('A' for Active; 'I' for Inactive)
REMARK       I    between atoms: O3_1  and  C3_8 
REMARK       I    between atoms: O3_1  and  S3_11 
REMARK       I    between atoms: C1_2  and  O1_36 
REMARK       I    between atoms: C6_3  and  C5_27 
REMARK       I    between atoms: C6_3  and  O6_25 
REMARK       I    between atoms: O3S_4  and  S1_32 
REMARK       I    between atoms: C3_5  and  O3_9 
REMARK       I    between atoms: N_6  and  S1_32 
REMARK       I    between atoms: N_6  and  C2_39 
REMARK       I    between atoms: S_7  and  O2_30 
REMARK       I    between atoms: O4_12  and  C1_29 
REMARK       I    between atoms: O4_12  and  C4_40 
REMARK       I    between atoms: O4_13  and  C4_28 
REMARK       I    between atoms: C2_14  and  O2_30 
REMARK       I    between atoms: C6_15  and  C5_23 
REMARK       I    between atoms: S2_16  and  O6_25 
REMARK       I    between atoms: O1S_22  and  S1_32 
REMARK       I    between atoms: S1_32  and  O2S_33 
REMARK       I    between atoms: O1_36  and  C7_37 
ROOT
ATOM      1  O3  SUS d 141      -0.325   9.136  19.478  0.00  0.00    -0.247 OA
ATOM      2  C6  SUS d 141      -3.052  13.193  19.211  0.00  0.00     0.067 C 
ATOM      3  O3S SUS d 141       3.291   9.425  16.104  0.00  0.00    -0.296 OA
ATOM      4  N   SUS d 141       1.163  10.073  17.149  0.00  0.00    -0.210 NA
ATOM      5  C3  SUS d 141      -0.807  10.110  18.582  0.00  0.00     0.107 C 
ATOM      6  O6S SUS d 141      -3.497  16.354  20.407  0.00  0.00    -0.572 OA
ATOM      7  S3  SUS d 141      -0.042   7.768  19.197  0.00  0.00     0.252 S 
ATOM      8  O4  SUS d 141      -2.975  10.305  19.586  0.00  0.00    -0.390 OA
ATOM      9  S2  SUS d 141      -2.559  15.263  20.659  0.00  0.00     0.251 S 
ATOM     10  O5  SUS d 141      -0.942  12.917  18.109  0.00  0.00    -0.349 OA
ATOM     11  O8S SUS d 141       0.210   7.276  17.862  0.00  0.00    -0.572 OA
ATOM     12  O4S SUS d 141      -3.046  14.340  21.680  0.00  0.00    -0.572 OA
ATOM     13  O1S SUS d 141       3.199  11.408  17.484  0.00  0.00    -0.296 OA
ATOM     14  O7S SUS d 141      -1.166   7.032  19.715  0.00  0.00    -0.572 OA
ATOM     15  O6  SUS d 141      -2.431  14.453  19.331  0.00  0.00    -0.254 OA
ATOM     16  C5  SUS d 141      -2.131  12.243  18.457  0.00  0.00     0.090 C 
ATOM     17  C4  SUS d 141      -1.793  11.021  19.304  0.00  0.00     0.090 C 
ATOM     18  C1  SUS d 141      -0.125  12.138  17.264  0.00  0.00     0.150 C 
ATOM     19  O9S SUS d 141       1.069   7.454  20.068  0.00  0.00    -0.572 OA
ATOM     20  S1  SUS d 141       2.753  10.028  17.319  0.00  0.00     0.156 S 
ATOM     21  O2S SUS d 141       3.026   9.212  18.499  0.00  0.00    -0.296 OA
ATOM     22  C2  SUS d 141       0.364  10.910  18.022  0.00  0.00     0.083 C 
ATOM     23  O5S SUS d 141      -1.226  15.749  20.997  0.00  0.00    -0.572 OA
ATOM     24  H   SUS d 141      -3.251  12.799  20.186  0.00  0.00     0.080 H 
ATOM     25  H   SUS d 141      -3.971  13.300  18.674  0.00  0.00     0.080 H 
ATOM     26  H   SUS d 141       3.091   9.994  15.344  0.00  0.00     0.231 HD
ATOM     27  H   SUS d 141       0.827   9.117  17.269  0.00  0.00     0.140 HD
ATOM     28  H   SUS d 141      -1.316   9.638  17.767  0.00  0.00     0.092 H 
ATOM     29  H   SUS d 141      -2.761   9.527  20.125  0.00  0.00     0.210 HD
ATOM     30  H   SUS d 141       2.998  11.912  16.680  0.00  0.00     0.231 HD
ATOM     31  H   SUS d 141      -2.637  11.914  17.574  0.00  0.00     0.090 H 
ATOM     32  H   SUS d 141      -1.341  11.356  20.215  0.00  0.00     0.091 H 
ATOM     33  H   SUS d 141       0.715  12.719  16.946  0.00  0.00     0.131 H 
ATOM     34  H   SUS d 141       2.714   8.306  18.346  0.00  0.00     0.231 HD
ATOM     35  H   SUS d 141       0.966  11.241  18.843  0.00  0.00     0.076 H 
ATOM     36  C1  IDY d 142      -1.220  10.427  12.553  0.00  0.00     0.160 C 
ATOM     37  C3  IDY d 142      -0.358  12.104  14.058  0.00  0.00     0.094 C 
ATOM     38  S   IDY d 142       0.882   8.421  13.748  0.00  0.00     0.252 S 
ATOM     39  O3  IDY d 142       0.572  13.249  13.742  0.00  0.00    -0.390 OA
ATOM     40  O4  IDY d 142      -0.869  11.729  16.139  0.00  0.00    -0.348 OA
ATOM     41  C2  IDY d 142      -0.023  10.812  13.391  0.00  0.00     0.134 C 
ATOM     42  C6  IDY d 142      -4.015  11.707  14.775  0.00  0.00     0.206 C 
ATOM     43  O61 IDY d 142      -4.195  10.610  15.409  0.00  0.00    -0.646 OA
ATOM     44  O62 IDY d 142      -4.965  12.627  14.873  0.00  0.00    -0.646 OA
ATOM     45  C5  IDY d 142      -2.807  11.911  13.880  0.00  0.00     0.152 C 
ATOM     46  OS2 IDY d 142       2.317   8.661  13.498  0.00  0.00    -0.572 OA
ATOM     47  O2  IDY d 142       0.243   9.718  14.309  0.00  0.00    -0.244 OA
ATOM     48  OS1 IDY d 142       0.698   7.338  14.747  0.00  0.00    -0.572 OA
ATOM     49  O5  IDY d 142      -2.507  10.669  13.177  0.00  0.00    -0.340 OA
ATOM     50  O1  IDY d 142      -0.962  11.219  11.314  0.00  0.00    -0.363 OA
ATOM     51  C7  IDY d 142      -2.397  11.204  10.778  0.00  0.00     0.007 C 
ATOM     52  OS3 IDY d 142       0.266   8.023  12.449  0.00  0.00    -0.572 OA
ATOM     53  C4  IDY d 142      -1.654  12.394  14.761  0.00  0.00     0.103 C 
ATOM     54  H   IDY d 142      -1.307   9.375  12.381  0.00  0.00     0.133 H 
ATOM     55  H   IDY d 142      -0.249  11.660  15.025  0.00  0.00     0.091 H 
ATOM     56  H   IDY d 142       0.389  13.577  12.847  0.00  0.00     0.210 HD
ATOM     57  H   IDY d 142       0.873  10.965  12.828  0.00  0.00     0.097 H 
ATOM     58  H   IDY d 142      -2.986  12.650  13.128  0.00  0.00     0.104 H 
ATOM     59  H   IDY d 142      -2.438  11.741   9.854  0.00  0.00     0.066 H 
ATOM     60  H   IDY d 142      -3.048  11.668  11.489  0.00  0.00     0.066 H 
ATOM     61  H   IDY d 142      -2.707  10.193  10.617  0.00  0.00     0.066 H 
ATOM     62  H   IDY d 142      -2.210  13.275  15.000  0.00  0.00     0.092 H 
ENDROOT
TORSDOF 19
ENDMDL
MODEL 7
REMARK VINA RESULT:      -7.0      2.464      5.689
REMARK  0 active torsions:
REMARK  status: ('A' for Active; 'I' for Inactive)
REMARK       I    between atoms: O3_1  and  C3_8 
REMARK       I    between atoms: O3_1  and  S3_11 
REMARK       I    between atoms: C1_2  and  O1_36 
REMARK       I    between atoms: C6_3  and  C5_27 
REMARK       I    between atoms: C6_3  and  O6_25 
REMARK       I    between atoms: O3S_4  and  S1_32 
REMARK       I    between atoms: C3_5  and  O3_9 
REMARK       I    between atoms: N_6  and  S1_32 
REMARK       I    between atoms: N_6  and  C2_39 
REMARK       I    between atoms: S_7  and  O2_30 
REMARK       I    between atoms: O4_12  and  C1_29 
REMARK       I    between atoms: O4_12  and  C4_40 
REMARK       I    between atoms: O4_13  and  C4_28 
REMARK       I    between atoms: C2_14  and  O2_30 
REMARK       I    between atoms: C6_15  and  C5_23 
REMARK       I    between atoms: S2_16  and  O6_25 
REMARK       I    between atoms: O1S_22  and  S1_32 
REMARK       I    between atoms: S1_32  and  O2S_33 
REMARK       I    between atoms: O1_36  and  C7_37 
ROOT
ATOM      1  O3  SUS d 141      -2.219  10.796  13.912  0.00  0.00    -0.247 OA
ATOM      2  C6  SUS d 141       2.336  11.640  12.328  0.00  0.00     0.067 C 
ATOM      3  O3S SUS d 141      -2.339  11.431  18.824  0.00  0.00    -0.296 OA
ATOM      4  N   SUS d 141      -1.246  11.110  16.645  0.00  0.00    -0.210 NA
ATOM      5  C3  SUS d 141      -0.863  10.686  14.277  0.00  0.00     0.107 C 
ATOM      6  O6S SUS d 141       4.491  13.985  11.113  0.00  0.00    -0.572 OA
ATOM      7  S3  SUS d 141      -3.294   9.951  14.316  0.00  0.00     0.252 S 
ATOM      8  O4  SUS d 141      -0.084  10.032  12.106  0.00  0.00    -0.390 OA
ATOM      9  S2  SUS d 141       3.093  13.968  11.535  0.00  0.00     0.251 S 
ATOM     10  O5  SUS d 141       1.563  12.158  14.536  0.00  0.00    -0.349 OA
ATOM     11  O8S SUS d 141      -3.240   9.122  15.498  0.00  0.00    -0.572 OA
ATOM     12  O4S SUS d 141       2.191  13.602  10.447  0.00  0.00    -0.572 OA
ATOM     13  O1S SUS d 141      -1.338  13.326  17.703  0.00  0.00    -0.296 OA
ATOM     14  O7S SUS d 141      -3.534   9.078  13.196  0.00  0.00    -0.572 OA
ATOM     15  O6  SUS d 141       2.957  12.868  12.633  0.00  0.00    -0.254 OA
ATOM     16  C5  SUS d 141       1.472  11.202  13.503  0.00  0.00     0.090 C 
ATOM     17  C4  SUS d 141       0.015  11.045  13.083  0.00  0.00     0.090 C 
ATOM     18  C1  SUS d 141       0.919  11.723  15.713  0.00  0.00     0.150 C 
ATOM     19  O9S SUS d 141      -4.434  10.840  14.374  0.00  0.00    -0.572 OA
ATOM     20  S1  SUS d 141      -2.119  12.102  17.546  0.00  0.00     0.156 S 
ATOM     21  O2S SUS d 141      -3.371  12.331  16.829  0.00  0.00    -0.296 OA
ATOM     22  C2  SUS d 141      -0.579  11.606  15.458  0.00  0.00     0.083 C 
ATOM     23  O5S SUS d 141       2.683  15.232  12.140  0.00  0.00    -0.572 OA
ATOM     24  H   SUS d 141       1.723  11.757  11.458  0.00  0.00     0.080 H 
ATOM     25  H   SUS d 141       3.084  10.899  12.140  0.00  0.00     0.080 H 
ATOM     26  H   SUS d 141      -1.487  11.297  19.269  0.00  0.00     0.231 HD
ATOM     27  H   SUS d 141      -1.871  10.363  16.340  0.00  0.00     0.140 HD
ATOM     28  H   SUS d 141      -0.643   9.681  14.570  0.00  0.00     0.092 H 
ATOM     29  H   SUS d 141      -1.011   9.932  11.838  0.00  0.00     0.210 HD
ATOM     30  H   SUS d 141      -0.519  13.128  18.183  0.00  0.00     0.231 HD
ATOM     31  H   SUS d 141       1.829  10.255  13.850  0.00  0.00     0.090 H 
ATOM     32  H   SUS d 141      -0.324  11.977  12.682  0.00  0.00     0.091 H 
ATOM     33  H   SUS d 141       1.095  12.430  16.497  0.00  0.00     0.131 H 
ATOM     34  H   SUS d 141      -3.855  11.494  16.748  0.00  0.00     0.231 HD
ATOM     35  H   SUS d 141      -0.955  12.580  15.223  0.00  0.00     0.076 H 
ATOM     36  C1  IDY d 142       2.087   7.644  18.598  0.00  0.00     0.160 C 
ATOM     37  C3  IDY d 142       2.338   9.968  18.003  0.00  0.00     0.094 C 
ATOM     38  S   IDY d 142      -0.971   8.200  19.061  0.00  0.00     0.252 S 
ATOM     39  O3  IDY d 142       2.904  11.088  18.840  0.00  0.00    -0.390 OA
ATOM     40  O4  IDY d 142       1.431  10.464  16.089  0.00  0.00    -0.348 OA
ATOM     41  C2  IDY d 142       1.457   9.012  18.734  0.00  0.00     0.134 C 
ATOM     42  C6  IDY d 142       3.498   7.918  15.088  0.00  0.00     0.206 C 
ATOM     43  O61 IDY d 142       2.476   7.430  14.494  0.00  0.00    -0.646 OA
ATOM     44  O62 IDY d 142       4.625   7.993  14.393  0.00  0.00    -0.646 OA
ATOM     45  C5  IDY d 142       3.444   8.315  16.551  0.00  0.00     0.152 C 
ATOM     46  OS2 IDY d 142      -1.375   9.073  20.180  0.00  0.00    -0.572 OA
ATOM     47  O2  IDY d 142       0.104   8.929  18.212  0.00  0.00    -0.244 OA
ATOM     48  OS1 IDY d 142      -2.133   7.900  18.185  0.00  0.00    -0.572 OA
ATOM     49  O5  IDY d 142       2.634   7.351  17.287  0.00  0.00    -0.340 OA
ATOM     50  O1  IDY d 142       3.087   7.684  19.705  0.00  0.00    -0.363 OA
ATOM     51  C7  IDY d 142       3.991   6.563  19.183  0.00  0.00     0.007 C 
ATOM     52  OS3 IDY d 142      -0.441   6.938  19.652  0.00  0.00    -0.572 OA
ATOM     53  C4  IDY d 142       2.894   9.740  16.626  0.00  0.00     0.103 C 
ATOM     54  H   IDY d 142       1.388   6.838  18.677  0.00  0.00     0.133 H 
ATOM     55  H   IDY d 142       1.541  10.231  17.339  0.00  0.00     0.091 H 
ATOM     56  H   IDY d 142       3.616  10.744  19.402  0.00  0.00     0.210 HD
ATOM     57  H   IDY d 142       1.377   9.357  19.743  0.00  0.00     0.097 H 
ATOM     58  H   IDY d 142       4.413   8.305  17.004  0.00  0.00     0.104 H 
ATOM     59  H   IDY d 142       4.809   6.421  19.857  0.00  0.00     0.066 H 
ATOM     60  H   IDY d 142       4.367   6.828  18.217  0.00  0.00     0.066 H 
ATOM     61  H   IDY d 142       3.428   5.656  19.108  0.00  0.00     0.066 H 
ATOM     62  H   IDY d 142       3.743  10.093  16.079  0.00  0.00     0.092 H 
ENDROOT
TORSDOF 19
ENDMDL
MODEL 8
REMARK VINA RESULT:      -6.9      3.108      8.310
REMARK  0 active torsions:
REMARK  status: ('A' for Active; 'I' for Inactive)
REMARK       I    between atoms: O3_1  and  C3_8 
REMARK       I    between atoms: O3_1  and  S3_11 
REMARK       I    between atoms: C1_2  and  O1_36 
REMARK       I    between atoms: C6_3  and  C5_27 
REMARK       I    between atoms: C6_3  and  O6_25 
REMARK       I    between atoms: O3S_4  and  S1_32 
REMARK       I    between atoms: C3_5  and  O3_9 
REMARK       I    between atoms: N_6  and  S1_32 
REMARK       I    between atoms: N_6  and  C2_39 
REMARK       I    between atoms: S_7  and  O2_30 
REMARK       I    between atoms: O4_12  and  C1_29 
REMARK       I    between atoms: O4_12  and  C4_40 
REMARK       I    between atoms: O4_13  and  C4_28 
REMARK       I    between atoms: C2_14  and  O2_30 
REMARK       I    between atoms: C6_15  and  C5_23 
REMARK       I    between atoms: S2_16  and  O6_25 
REMARK       I    between atoms: O1S_22  and  S1_32 
REMARK       I    between atoms: S1_32  and  O2S_33 
REMARK       I    between atoms: O1_36  and  C7_37 
ROOT
ATOM      1  O3  SUS d 141      -1.462  15.343  15.239  0.00  0.00    -0.247 OA
ATOM      2  C6  SUS d 141      -3.240  15.316  19.801  0.00  0.00     0.067 C 
ATOM      3  O3S SUS d 141      -3.153  11.347  12.849  0.00  0.00    -0.296 OA
ATOM      4  N   SUS d 141      -2.678  12.723  14.830  0.00  0.00    -0.210 NA
ATOM      5  C3  SUS d 141      -1.852  14.489  16.290  0.00  0.00     0.107 C 
ATOM      6  O6S SUS d 141      -5.774  16.361  21.827  0.00  0.00    -0.572 OA
ATOM      7  S3  SUS d 141      -0.452  15.106  14.262  0.00  0.00     0.252 S 
ATOM      8  O4  SUS d 141      -0.976  15.862  18.049  0.00  0.00    -0.390 OA
ATOM      9  S2  SUS d 141      -5.438  16.506  20.413  0.00  0.00     0.251 S 
ATOM     10  O5  SUS d 141      -4.000  13.863  18.053  0.00  0.00    -0.349 OA
ATOM     11  O8S SUS d 141       0.025  13.784  13.930  0.00  0.00    -0.572 OA
ATOM     12  O4S SUS d 141      -4.576  17.659  20.166  0.00  0.00    -0.572 OA
ATOM     13  O1S SUS d 141      -4.947  12.586  13.896  0.00  0.00    -0.296 OA
ATOM     14  O7S SUS d 141       0.687  15.872  14.698  0.00  0.00    -0.572 OA
ATOM     15  O6  SUS d 141      -4.633  15.235  19.999  0.00  0.00    -0.254 OA
ATOM     16  C5  SUS d 141      -2.849  14.470  18.597  0.00  0.00     0.090 C 
ATOM     17  C4  SUS d 141      -2.170  15.319  17.528  0.00  0.00     0.090 C 
ATOM     18  C1  SUS d 141      -3.678  12.936  17.041  0.00  0.00     0.150 C 
ATOM     19  O9S SUS d 141      -0.947  15.776  13.079  0.00  0.00    -0.572 OA
ATOM     20  S1  SUS d 141      -3.545  12.598  13.491  0.00  0.00     0.156 S 
ATOM     21  O2S SUS d 141      -3.215  13.759  12.668  0.00  0.00    -0.296 OA
ATOM     22  C2  SUS d 141      -3.062  13.671  15.856  0.00  0.00     0.083 C 
ATOM     23  O5S SUS d 141      -6.625  16.559  19.566  0.00  0.00    -0.572 OA
ATOM     24  H   SUS d 141      -2.963  16.335  19.626  0.00  0.00     0.080 H 
ATOM     25  H   SUS d 141      -2.735  14.952  20.671  0.00  0.00     0.080 H 
ATOM     26  H   SUS d 141      -3.388  10.602  13.423  0.00  0.00     0.231 HD
ATOM     27  H   SUS d 141      -1.729  12.966  14.545  0.00  0.00     0.140 HD
ATOM     28  H   SUS d 141      -1.055  13.816  16.528  0.00  0.00     0.092 H 
ATOM     29  H   SUS d 141      -0.543  16.402  17.370  0.00  0.00     0.210 HD
ATOM     30  H   SUS d 141      -5.120  11.801  14.438  0.00  0.00     0.231 HD
ATOM     31  H   SUS d 141      -2.160  13.719  18.922  0.00  0.00     0.090 H 
ATOM     32  H   SUS d 141      -2.838  16.106  17.246  0.00  0.00     0.091 H 
ATOM     33  H   SUS d 141      -4.566  12.430  16.725  0.00  0.00     0.131 H 
ATOM     34  H   SUS d 141      -2.277  13.726  12.423  0.00  0.00     0.231 HD
ATOM     35  H   SUS d 141      -3.796  14.341  15.461  0.00  0.00     0.076 H 
ATOM     36  C1  IDY d 142      -0.922   8.633  17.499  0.00  0.00     0.160 C 
ATOM     37  C3  IDY d 142      -3.010   9.837  17.580  0.00  0.00     0.094 C 
ATOM     38  S   IDY d 142      -0.628   9.549  14.507  0.00  0.00     0.252 S 
ATOM     39  O3  IDY d 142      -4.410   9.280  17.512  0.00  0.00    -0.390 OA
ATOM     40  O4  IDY d 142      -2.753  11.997  17.543  0.00  0.00    -0.348 OA
ATOM     41  C2  IDY d 142      -2.030   9.208  16.648  0.00  0.00     0.134 C 
ATOM     42  C6  IDY d 142      -0.784  11.243  20.247  0.00  0.00     0.206 C 
ATOM     43  O61 IDY d 142       0.112  11.971  19.696  0.00  0.00    -0.646 OA
ATOM     44  O62 IDY d 142      -1.029  11.453  21.533  0.00  0.00    -0.646 OA
ATOM     45  C5  IDY d 142      -1.474  10.129  19.483  0.00  0.00     0.152 C 
ATOM     46  OS2 IDY d 142      -1.575   9.023  13.505  0.00  0.00    -0.572 OA
ATOM     47  O2  IDY d 142      -1.427  10.132  15.702  0.00  0.00    -0.244 OA
ATOM     48  OS1 IDY d 142       0.201  10.636  13.925  0.00  0.00    -0.572 OA
ATOM     49  O5  IDY d 142      -0.510   9.467  18.612  0.00  0.00    -0.340 OA
ATOM     50  O1  IDY d 142      -1.515   7.318  17.881  0.00  0.00    -0.363 OA
ATOM     51  C7  IDY d 142      -0.626   7.058  19.102  0.00  0.00     0.007 C 
ATOM     52  OS3 IDY d 142       0.245   8.417  14.931  0.00  0.00    -0.572 OA
ATOM     53  C4  IDY d 142      -2.646  10.747  18.718  0.00  0.00     0.103 C 
ATOM     54  H   IDY d 142       0.016   8.551  16.989  0.00  0.00     0.133 H 
ATOM     55  H   IDY d 142      -2.861  10.795  17.127  0.00  0.00     0.091 H 
ATOM     56  H   IDY d 142      -4.435   8.414  17.949  0.00  0.00     0.210 HD
ATOM     57  H   IDY d 142      -2.560   8.480  16.070  0.00  0.00     0.097 H 
ATOM     58  H   IDY d 142      -1.860   9.375  20.136  0.00  0.00     0.104 H 
ATOM     59  H   IDY d 142      -0.896   6.124  19.548  0.00  0.00     0.066 H 
ATOM     60  H   IDY d 142      -0.761   7.845  19.815  0.00  0.00     0.066 H 
ATOM     61  H   IDY d 142       0.398   7.026  18.797  0.00  0.00     0.066 H 
ATOM     62  H   IDY d 142      -3.100  11.026  19.646  0.00  0.00     0.092 H 
ENDROOT
TORSDOF 19
ENDMDL
MODEL 9
REMARK VINA RESULT:      -6.9      2.765      5.436
REMARK  0 active torsions:
REMARK  status: ('A' for Active; 'I' for Inactive)
REMARK       I    between atoms: O3_1  and  C3_8 
REMARK       I    between atoms: O3_1  and  S3_11 
REMARK       I    between atoms: C1_2  and  O1_36 
REMARK       I    between atoms: C6_3  and  C5_27 
REMARK       I    between atoms: C6_3  and  O6_25 
REMARK       I    between atoms: O3S_4  and  S1_32 
REMARK       I    between atoms: C3_5  and  O3_9 
REMARK       I    between atoms: N_6  and  S1_32 
REMARK       I    between atoms: N_6  and  C2_39 
REMARK       I    between atoms: S_7  and  O2_30 
REMARK       I    between atoms: O4_12  and  C1_29 
REMARK       I    between atoms: O4_12  and  C4_40 
REMARK       I    between atoms: O4_13  and  C4_28 
REMARK       I    between atoms: C2_14  and  O2_30 
REMARK       I    between atoms: C6_15  and  C5_23 
REMARK       I    between atoms: S2_16  and  O6_25 
REMARK       I    between atoms: O1S_22  and  S1_32 
REMARK       I    between atoms: S1_32  and  O2S_33 
REMARK       I    between atoms: O1_36  and  C7_37 
ROOT
ATOM      1  O3  SUS d 141       1.560   9.839  13.796  0.00  0.00    -0.247 OA
ATOM      2  C6  SUS d 141       2.897  14.167  15.653  0.00  0.00     0.067 C 
ATOM      3  O3S SUS d 141      -2.967   8.720  15.469  0.00  0.00    -0.296 OA
ATOM      4  N   SUS d 141      -0.843   9.958  15.447  0.00  0.00    -0.210 NA
ATOM      5  C3  SUS d 141       1.430  10.665  14.930  0.00  0.00     0.107 C 
ATOM      6  O6S SUS d 141       2.926  17.540  15.158  0.00  0.00    -0.572 OA
ATOM      7  S3  SUS d 141       1.551   8.414  13.760  0.00  0.00     0.252 S 
ATOM      8  O4  SUS d 141       3.689  11.466  14.901  0.00  0.00    -0.390 OA
ATOM      9  S2  SUS d 141       2.447  16.378  14.415  0.00  0.00     0.251 S 
ATOM     10  O5  SUS d 141       0.676  13.277  15.783  0.00  0.00    -0.349 OA
ATOM     11  O8S SUS d 141       0.974   7.605  14.808  0.00  0.00    -0.572 OA
ATOM     12  O4S SUS d 141       3.480  15.804  13.558  0.00  0.00    -0.572 OA
ATOM     13  O1S SUS d 141      -2.893  10.940  14.513  0.00  0.00    -0.296 OA
ATOM     14  O7S SUS d 141       2.932   8.027  13.636  0.00  0.00    -0.572 OA
ATOM     15  O6  SUS d 141       2.063  15.288  15.463  0.00  0.00    -0.254 OA
ATOM     16  C5  SUS d 141       2.040  12.924  15.848  0.00  0.00     0.090 C 
ATOM     17  C4  SUS d 141       2.345  11.876  14.784  0.00  0.00     0.090 C 
ATOM     18  C1  SUS d 141      -0.163  12.197  16.125  0.00  0.00     0.150 C 
ATOM     19  O9S SUS d 141       0.939   8.102  12.486  0.00  0.00    -0.572 OA
ATOM     20  S1  SUS d 141      -2.202   9.662  14.657  0.00  0.00     0.156 S 
ATOM     21  O2S SUS d 141      -1.823   9.087  13.369  0.00  0.00    -0.296 OA
ATOM     22  C2  SUS d 141      -0.024  11.096  15.080  0.00  0.00     0.083 C 
ATOM     23  O5S SUS d 141       1.244  16.675  13.643  0.00  0.00    -0.572 OA
ATOM     24  H   SUS d 141       3.522  14.039  14.793  0.00  0.00     0.080 H 
ATOM     25  H   SUS d 141       3.507  14.320  16.518  0.00  0.00     0.080 H 
ATOM     26  H   SUS d 141      -3.199   9.136  16.314  0.00  0.00     0.231 HD
ATOM     27  H   SUS d 141      -0.257   9.129  15.345  0.00  0.00     0.140 HD
ATOM     28  H   SUS d 141       1.717  10.128  15.809  0.00  0.00     0.092 H 
ATOM     29  H   SUS d 141       3.884  10.799  14.224  0.00  0.00     0.210 HD
ATOM     30  H   SUS d 141      -3.124  11.283  15.389  0.00  0.00     0.231 HD
ATOM     31  H   SUS d 141       2.264  12.507  16.808  0.00  0.00     0.090 H 
ATOM     32  H   SUS d 141       2.177  12.313  13.821  0.00  0.00     0.091 H 
ATOM     33  H   SUS d 141      -1.179  12.532  16.158  0.00  0.00     0.131 H 
ATOM     34  H   SUS d 141      -1.369   8.242  13.513  0.00  0.00     0.231 HD
ATOM     35  H   SUS d 141      -0.359  11.483  14.140  0.00  0.00     0.076 H 
ATOM     36  C1  IDY d 142      -0.421   9.728  20.615  0.00  0.00     0.160 C 
ATOM     37  C3  IDY d 142      -1.084  11.507  19.126  0.00  0.00     0.094 C 
ATOM     38  S   IDY d 142      -1.383   7.683  18.432  0.00  0.00     0.252 S 
ATOM     39  O3  IDY d 142      -2.322  12.366  19.196  0.00  0.00    -0.390 OA
ATOM     40  O4  IDY d 142       0.209  11.695  17.388  0.00  0.00    -0.348 OA
ATOM     41  C2  IDY d 142      -1.297  10.062  19.429  0.00  0.00     0.134 C 
ATOM     42  C6  IDY d 142       2.562  11.949  19.870  0.00  0.00     0.206 C 
ATOM     43  O61 IDY d 142       3.225  11.069  19.220  0.00  0.00    -0.646 OA
ATOM     44  O62 IDY d 142       3.220  13.025  20.278  0.00  0.00    -0.646 OA
ATOM     45  C5  IDY d 142       1.105  11.729  20.231  0.00  0.00     0.152 C 
ATOM     46  OS2 IDY d 142      -2.824   7.596  18.123  0.00  0.00    -0.572 OA
ATOM     47  O2  IDY d 142      -0.935   9.165  18.345  0.00  0.00    -0.244 OA
ATOM     48  OS1 IDY d 142      -0.589   6.896  17.453  0.00  0.00    -0.572 OA
ATOM     49  O5  IDY d 142       0.899  10.330  20.588  0.00  0.00    -0.340 OA
ATOM     50  O1  IDY d 142      -1.293  10.169  21.742  0.00  0.00    -0.363 OA
ATOM     51  C7  IDY d 142      -0.188  10.299  22.796  0.00  0.00     0.007 C 
ATOM     52  OS3 IDY d 142      -1.189   7.130  19.803  0.00  0.00    -0.572 OA
ATOM     53  C4  IDY d 142       0.259  12.174  19.038  0.00  0.00     0.103 C 
ATOM     54  H   IDY d 142      -0.138   8.697  20.666  0.00  0.00     0.133 H 
ATOM     55  H   IDY d 142      -0.727  11.272  18.146  0.00  0.00     0.091 H 
ATOM     56  H   IDY d 142      -2.559  12.518  20.125  0.00  0.00     0.210 HD
ATOM     57  H   IDY d 142      -2.343   9.922  19.606  0.00  0.00     0.097 H 
ATOM     58  H   IDY d 142       0.813  12.306  21.084  0.00  0.00     0.104 H 
ATOM     59  H   IDY d 142      -0.615  10.620  23.722  0.00  0.00     0.066 H 
ATOM     60  H   IDY d 142       0.534  11.018  22.468  0.00  0.00     0.066 H 
ATOM     61  H   IDY d 142       0.289   9.352  22.931  0.00  0.00     0.066 H 
ATOM     62  H   IDY d 142       0.622  13.173  19.157  0.00  0.00     0.092 H 
ENDROOT
TORSDOF 19
ENDMDL
MODEL 10
REMARK VINA RESULT:      -6.9      2.686      7.293
REMARK  0 active torsions:
REMARK  status: ('A' for Active; 'I' for Inactive)
REMARK       I    between atoms: O3_1  and  C3_8 
REMARK       I    between atoms: O3_1  and  S3_11 
REMARK       I    between atoms: C1_2  and  O1_36 
REMARK       I    between atoms: C6_3  and  C5_27 
REMARK       I    between atoms: C6_3  and  O6_25 
REMARK       I    between atoms: O3S_4  and  S1_32 
REMARK       I    between atoms: C3_5  and  O3_9 
REMARK       I    between atoms: N_6  and  S1_32 
REMARK       I    between atoms: N_6  and  C2_39 
REMARK       I    between atoms: S_7  and  O2_30 
REMARK       I    between atoms: O4_12  and  C1_29 
REMARK       I    between atoms: O4_12  and  C4_40 
REMARK       I    between atoms: O4_13  and  C4_28 
REMARK       I    between atoms: C2_14  and  O2_30 
REMARK       I    between atoms: C6_15  and  C5_23 
REMARK       I    between atoms: S2_16  and  O6_25 
REMARK       I    between atoms: O1S_22  and  S1_32 
REMARK       I    between atoms: S1_32  and  O2S_33 
REMARK       I    between atoms: O1_36  and  C7_37 
ROOT
ATOM      1  O3  SUS d 141       1.283  12.037  14.384  0.00  0.00    -0.247 OA
ATOM      2  C6  SUS d 141      -2.916  12.571  16.843  0.00  0.00     0.067 C 
ATOM      3  O3S SUS d 141       2.728   7.309  14.712  0.00  0.00    -0.296 OA
ATOM      4  N   SUS d 141       1.408   9.284  15.344  0.00  0.00    -0.210 NA
ATOM      5  C3  SUS d 141       0.565  11.565  15.500  0.00  0.00     0.107 C 
ATOM      6  O6S SUS d 141      -6.318  12.518  16.625  0.00  0.00    -0.572 OA
ATOM      7  S3  SUS d 141       2.698  12.126  14.241  0.00  0.00     0.252 S 
ATOM      8  O4  SUS d 141      -0.326  13.699  16.130  0.00  0.00    -0.390 OA
ATOM      9  S2  SUS d 141      -5.207  12.322  15.698  0.00  0.00     0.251 S 
ATOM     10  O5  SUS d 141      -1.928  10.453  16.315  0.00  0.00    -0.349 OA
ATOM     11  O8S SUS d 141       3.619  11.348  15.036  0.00  0.00    -0.572 OA
ATOM     12  O4S SUS d 141      -4.754  13.576  15.105  0.00  0.00    -0.572 OA
ATOM     13  O1S SUS d 141       0.432   7.491  13.977  0.00  0.00    -0.296 OA
ATOM     14  O7S SUS d 141       3.016  13.513  14.459  0.00  0.00    -0.572 OA
ATOM     15  O6  SUS d 141      -4.014  11.747  16.524  0.00  0.00    -0.254 OA
ATOM     16  C5  SUS d 141      -1.627  11.772  16.712  0.00  0.00     0.090 C 
ATOM     17  C4  SUS d 141      -0.690  12.409  15.692  0.00  0.00     0.090 C 
ATOM     18  C1  SUS d 141      -0.789   9.623  16.342  0.00  0.00     0.150 C 
ATOM     19  O9S SUS d 141       2.922  11.888  12.831  0.00  0.00    -0.572 OA
ATOM     20  S1  SUS d 141       1.688   8.199  14.203  0.00  0.00     0.156 S 
ATOM     21  O2S SUS d 141       2.132   8.935  13.023  0.00  0.00    -0.296 OA
ATOM     22  C2  SUS d 141       0.209  10.097  15.292  0.00  0.00     0.083 C 
ATOM     23  O5S SUS d 141      -5.521  11.345  14.660  0.00  0.00    -0.572 OA
ATOM     24  H   SUS d 141      -2.889  13.405  16.173  0.00  0.00     0.080 H 
ATOM     25  H   SUS d 141      -3.017  12.924  17.848  0.00  0.00     0.080 H 
ATOM     26  H   SUS d 141       2.398   6.839  15.494  0.00  0.00     0.231 HD
ATOM     27  H   SUS d 141       2.200   9.927  15.340  0.00  0.00     0.140 HD
ATOM     28  H   SUS d 141       1.166  11.646  16.383  0.00  0.00     0.092 H 
ATOM     29  H   SUS d 141       0.270  14.105  15.481  0.00  0.00     0.210 HD
ATOM     30  H   SUS d 141       0.176   7.018  14.784  0.00  0.00     0.231 HD
ATOM     31  H   SUS d 141      -1.137  11.764  17.663  0.00  0.00     0.090 H 
ATOM     32  H   SUS d 141      -1.202  12.470  14.754  0.00  0.00     0.091 H 
ATOM     33  H   SUS d 141      -1.078   8.614  16.130  0.00  0.00     0.131 H 
ATOM     34  H   SUS d 141       2.967   9.388  13.219  0.00  0.00     0.231 HD
ATOM     35  H   SUS d 141      -0.245   9.996  14.329  0.00  0.00     0.076 H 
ATOM     36  C1  IDY d 142       2.073   8.360  20.408  0.00  0.00     0.160 C 
ATOM     37  C3  IDY d 142       0.199   7.997  18.933  0.00  0.00     0.094 C 
ATOM     38  S   IDY d 142       3.957   8.129  17.903  0.00  0.00     0.252 S 
ATOM     39  O3  IDY d 142      -0.600   6.733  18.736  0.00  0.00    -0.390 OA
ATOM     40  O4  IDY d 142      -0.193   9.685  17.618  0.00  0.00    -0.348 OA
ATOM     41  C2  IDY d 142       1.672   7.804  19.061  0.00  0.00     0.134 C 
ATOM     42  C6  IDY d 142      -0.324  11.289  20.645  0.00  0.00     0.206 C 
ATOM     43  O61 IDY d 142       0.467  12.153  20.131  0.00  0.00    -0.646 OA
ATOM     44  O62 IDY d 142      -1.387  11.750  21.292  0.00  0.00    -0.646 OA
ATOM     45  C5  IDY d 142      -0.014   9.805  20.591  0.00  0.00     0.152 C 
ATOM     46  OS2 IDY d 142       4.074   6.827  17.218  0.00  0.00    -0.572 OA
ATOM     47  O2  IDY d 142       2.456   8.491  18.048  0.00  0.00    -0.244 OA
ATOM     48  OS1 IDY d 142       4.621   9.198  17.114  0.00  0.00    -0.572 OA
ATOM     49  O5  IDY d 142       1.418   9.601  20.776  0.00  0.00    -0.340 OA
ATOM     50  O1  IDY d 142       1.769   7.199  21.294  0.00  0.00    -0.363 OA
ATOM     51  C7  IDY d 142       1.687   7.981  22.609  0.00  0.00     0.007 C 
ATOM     52  OS3 IDY d 142       4.619   7.993  19.232  0.00  0.00    -0.572 OA
ATOM     53  C4  IDY d 142      -0.528   9.273  19.253  0.00  0.00     0.103 C 
ATOM     54  H   IDY d 142       3.092   8.683  20.456  0.00  0.00     0.133 H 
ATOM     55  H   IDY d 142       0.332   8.612  18.067  0.00  0.00     0.091 H 
ATOM     56  H   IDY d 142      -0.660   6.254  19.578  0.00  0.00     0.210 HD
ATOM     57  H   IDY d 142       1.870   6.759  18.944  0.00  0.00     0.097 H 
ATOM     58  H   IDY d 142      -0.502   9.266  21.376  0.00  0.00     0.104 H 
ATOM     59  H   IDY d 142       1.467   7.308  23.411  0.00  0.00     0.066 H 
ATOM     60  H   IDY d 142       0.913   8.717  22.538  0.00  0.00     0.066 H 
ATOM     61  H   IDY d 142       2.622   8.464  22.795  0.00  0.00     0.066 H 
ATOM     62  H   IDY d 142      -1.526   9.529  19.537  0.00  0.00     0.092 H 
ENDROOT
TORSDOF 19
ENDMDL
MODEL 11
REMARK VINA RESULT:      -6.9      2.566      7.400
REMARK  0 active torsions:
REMARK  status: ('A' for Active; 'I' for Inactive)
REMARK       I    between atoms: O3_1  and  C3_8 
REMARK       I    between atoms: O3_1  and  S3_11 
REMARK       I    between atoms: C1_2  and  O1_36 
REMARK       I    between atoms: C6_3  and  C5_27 
REMARK       I    between atoms: C6_3  and  O6_25 
REMARK       I    between atoms: O3S_4  and  S1_32 
REMARK       I    between atoms: C3_5  and  O3_9 
REMARK       I    between atoms: N_6  and  S1_32 
REMARK       I    between atoms: N_6  and  C2_39 
REMARK       I    between atoms: S_7  and  O2_30 
REMARK       I    between atoms: O4_12  and  C1_29 
REMARK       I    between atoms: O4_12  and  C4_40 
REMARK       I    between atoms: O4_13  and  C4_28 
REMARK       I    between atoms: C2_14  and  O2_30 
REMARK       I    between atoms: C6_15  and  C5_23 
REMARK       I    between atoms: S2_16  and  O6_25 
REMARK       I    between atoms: O1S_22  and  S1_32 
REMARK       I    between atoms: S1_32  and  O2S_33 
REMARK       I    between atoms: O1_36  and  C7_37 
ROOT
ATOM      1  O3  SUS d 141       1.010  10.037  20.416  0.00  0.00    -0.247 OA
ATOM      2  C6  SUS d 141      -2.914  12.937  20.008  0.00  0.00     0.067 C 
ATOM      3  O3S SUS d 141       3.748  10.480  16.311  0.00  0.00    -0.296 OA
ATOM      4  N   SUS d 141       1.717  10.736  17.673  0.00  0.00    -0.210 NA
ATOM      5  C3  SUS d 141       0.097  10.571  19.485  0.00  0.00     0.107 C 
ATOM      6  O6S SUS d 141      -4.189  16.033  20.646  0.00  0.00    -0.572 OA
ATOM      7  S3  SUS d 141       1.682   8.783  20.346  0.00  0.00     0.252 S 
ATOM      8  O4  SUS d 141      -1.826  10.386  20.903  0.00  0.00    -0.390 OA
ATOM      9  S2  SUS d 141      -2.915  15.358  20.879  0.00  0.00     0.251 S 
ATOM     10  O5  SUS d 141      -1.033  13.004  18.526  0.00  0.00    -0.349 OA
ATOM     11  O8S SUS d 141       1.870   8.061  19.109  0.00  0.00    -0.572 OA
ATOM     12  O4S SUS d 141      -2.902  14.626  22.143  0.00  0.00    -0.572 OA
ATOM     13  O1S SUS d 141       3.221  12.637  17.269  0.00  0.00    -0.296 OA
ATOM     14  O7S SUS d 141       0.962   7.914  21.240  0.00  0.00    -0.572 OA
ATOM     15  O6  SUS d 141      -2.735  14.308  19.739  0.00  0.00    -0.254 OA
ATOM     16  C5  SUS d 141      -1.861  12.131  19.260  0.00  0.00     0.090 C 
ATOM     17  C4  SUS d 141      -1.009  11.314  20.226  0.00  0.00     0.090 C 
ATOM     18  C1  SUS d 141      -0.148  12.304  17.682  0.00  0.00     0.150 C 
ATOM     19  O9S SUS d 141       2.957   9.034  20.982  0.00  0.00    -0.572 OA
ATOM     20  S1  SUS d 141       3.238  11.193  17.479  0.00  0.00     0.156 S 
ATOM     21  O2S SUS d 141       3.948  10.818  18.699  0.00  0.00    -0.296 OA
ATOM     22  C2  SUS d 141       0.834  11.502  18.529  0.00  0.00     0.083 C 
ATOM     23  O5S SUS d 141      -1.783  16.275  20.803  0.00  0.00    -0.572 OA
ATOM     24  H   SUS d 141      -2.816  12.764  21.060  0.00  0.00     0.080 H 
ATOM     25  H   SUS d 141      -3.889  12.635  19.687  0.00  0.00     0.080 H 
ATOM     26  H   SUS d 141       3.253  10.755  15.523  0.00  0.00     0.231 HD
ATOM     27  H   SUS d 141       1.740   9.787  18.048  0.00  0.00     0.140 HD
ATOM     28  H   SUS d 141      -0.347   9.782  18.915  0.00  0.00     0.092 H 
ATOM     29  H   SUS d 141      -1.285   9.866  21.518  0.00  0.00     0.210 HD
ATOM     30  H   SUS d 141       2.740  12.840  16.451  0.00  0.00     0.231 HD
ATOM     31  H   SUS d 141      -2.361  11.456  18.597  0.00  0.00     0.090 H 
ATOM     32  H   SUS d 141      -0.556  11.985  20.926  0.00  0.00     0.091 H 
ATOM     33  H   SUS d 141       0.391  13.000  17.073  0.00  0.00     0.131 H 
ATOM     34  H   SUS d 141       3.934   9.852  18.797  0.00  0.00     0.231 HD
ATOM     35  H   SUS d 141       1.413  12.189  19.109  0.00  0.00     0.076 H 
ATOM     36  C1  IDY d 142      -1.340   9.210  13.766  0.00  0.00     0.160 C 
ATOM     37  C3  IDY d 142      -0.857  11.388  14.682  0.00  0.00     0.094 C 
ATOM     38  S   IDY d 142       1.469   8.263  14.809  0.00  0.00     0.252 S 
ATOM     39  O3  IDY d 142      -0.421  12.632  13.948  0.00  0.00    -0.390 OA
ATOM     40  O4  IDY d 142      -0.881  11.426  16.857  0.00  0.00    -0.348 OA
ATOM     41  C2  IDY d 142      -0.222  10.122  14.218  0.00  0.00     0.134 C 
ATOM     42  C6  IDY d 142      -4.015  10.158  16.282  0.00  0.00     0.206 C 
ATOM     43  O61 IDY d 142      -3.719   9.255  17.139  0.00  0.00    -0.646 OA
ATOM     44  O62 IDY d 142      -5.188  10.760  16.417  0.00  0.00    -0.646 OA
ATOM     45  C5  IDY d 142      -3.099  10.464  15.112  0.00  0.00     0.152 C 
ATOM     46  OS2 IDY d 142       2.686   8.832  14.195  0.00  0.00    -0.572 OA
ATOM     47  O2  IDY d 142       0.533   9.421  15.243  0.00  0.00    -0.244 OA
ATOM     48  OS1 IDY d 142       1.815   7.465  16.013  0.00  0.00    -0.572 OA
ATOM     49  O5  IDY d 142      -2.519   9.224  14.611  0.00  0.00    -0.340 OA
ATOM     50  O1  IDY d 142      -1.556   9.700  12.373  0.00  0.00    -0.363 OA
ATOM     51  C7  IDY d 142      -2.970   9.138  12.194  0.00  0.00     0.007 C 
ATOM     52  OS3 IDY d 142       0.824   7.388  13.788  0.00  0.00    -0.572 OA
ATOM     53  C4  IDY d 142      -2.048  11.465  15.595  0.00  0.00     0.103 C 
ATOM     54  H   IDY d 142      -1.098   8.169  13.824  0.00  0.00     0.133 H 
ATOM     55  H   IDY d 142      -0.456  11.256  15.665  0.00  0.00     0.091 H 
ATOM     56  H   IDY d 142      -0.840  12.655  13.073  0.00  0.00     0.210 HD
ATOM     57  H   IDY d 142       0.473  10.376  13.445  0.00  0.00     0.097 H 
ATOM     58  H   IDY d 142      -3.629  10.904  14.294  0.00  0.00     0.104 H 
ATOM     59  H   IDY d 142      -3.332   9.387  11.218  0.00  0.00     0.066 H 
ATOM     60  H   IDY d 142      -3.618   9.562  12.933  0.00  0.00     0.066 H 
ATOM     61  H   IDY d 142      -2.949   8.075  12.306  0.00  0.00     0.066 H 
ATOM     62  H   IDY d 142      -2.820  12.181  15.782  0.00  0.00     0.092 H 
ENDROOT
TORSDOF 19
ENDMDL
MODEL 12
REMARK VINA RESULT:      -6.8      2.478      6.007
REMARK  0 active torsions:
REMARK  status: ('A' for Active; 'I' for Inactive)
REMARK       I    between atoms: O3_1  and  C3_8 
REMARK       I    between atoms: O3_1  and  S3_11 
REMARK       I    between atoms: C1_2  and  O1_36 
REMARK       I    between atoms: C6_3  and  C5_27 
REMARK       I    between atoms: C6_3  and  O6_25 
REMARK       I    between atoms: O3S_4  and  S1_32 
REMARK       I    between atoms: C3_5  and  O3_9 
REMARK       I    between atoms: N_6  and  S1_32 
REMARK       I    between atoms: N_6  and  C2_39 
REMARK       I    between atoms: S_7  and  O2_30 
REMARK       I    between atoms: O4_12  and  C1_29 
REMARK       I    between atoms: O4_12  and  C4_40 
REMARK       I    between atoms: O4_13  and  C4_28 
REMARK       I    between atoms: C2_14  and  O2_30 
REMARK       I    between atoms: C6_15  and  C5_23 
REMARK       I    between atoms: S2_16  and  O6_25 
REMARK       I    between atoms: O1S_22  and  S1_32 
REMARK       I    between atoms: S1_32  and  O2S_33 
REMARK       I    between atoms: O1_36  and  C7_37 
ROOT
ATOM      1  O3  SUS d 141      -2.143  12.213  18.053  0.00  0.00    -0.247 OA
ATOM      2  C6  SUS d 141       2.076  10.097  19.353  0.00  0.00     0.067 C 
ATOM      3  O3S SUS d 141      -4.175   9.584  14.378  0.00  0.00    -0.296 OA
ATOM      4  N   SUS d 141      -2.356  10.279  15.878  0.00  0.00    -0.210 NA
ATOM      5  C3  SUS d 141      -1.051  11.478  17.550  0.00  0.00     0.107 C 
ATOM      6  O6S SUS d 141       3.554   7.842  21.438  0.00  0.00    -0.572 OA
ATOM      7  S3  SUS d 141      -2.923  13.184  17.360  0.00  0.00     0.252 S 
ATOM      8  O4  SUS d 141       0.608  12.572  18.890  0.00  0.00    -0.390 OA
ATOM      9  S2  SUS d 141       2.197   8.338  21.227  0.00  0.00     0.251 S 
ATOM     10  O5  SUS d 141       0.456   9.087  17.906  0.00  0.00    -0.349 OA
ATOM     11  O8S SUS d 141      -2.997  13.250  15.919  0.00  0.00    -0.572 OA
ATOM     12  O4S SUS d 141       1.918   9.537  22.012  0.00  0.00    -0.572 OA
ATOM     13  O1S SUS d 141      -3.577   8.180  16.254  0.00  0.00    -0.296 OA
ATOM     14  O7S SUS d 141      -2.439  14.460  17.820  0.00  0.00    -0.572 OA
ATOM     15  O6  SUS d 141       2.082   8.737  19.723  0.00  0.00    -0.254 OA
ATOM     16  C5  SUS d 141       1.069  10.314  18.231  0.00  0.00     0.090 C 
ATOM     17  C4  SUS d 141       0.002  11.323  18.641  0.00  0.00     0.090 C 
ATOM     18  C1  SUS d 141      -0.361   9.194  16.762  0.00  0.00     0.150 C 
ATOM     19  O9S SUS d 141      -4.246  13.038  17.928  0.00  0.00    -0.572 OA
ATOM     20  S1  SUS d 141      -3.775   9.547  15.782  0.00  0.00     0.156 S 
ATOM     21  O2S SUS d 141      -4.695  10.300  16.630  0.00  0.00    -0.296 OA
ATOM     22  C2  SUS d 141      -1.536  10.118  17.062  0.00  0.00     0.083 C 
ATOM     23  O5S SUS d 141       1.189   7.313  21.478  0.00  0.00    -0.572 OA
ATOM     24  H   SUS d 141       1.804  10.696  20.198  0.00  0.00     0.080 H 
ATOM     25  H   SUS d 141       3.052  10.379  19.016  0.00  0.00     0.080 H 
ATOM     26  H   SUS d 141      -3.542   9.074  13.848  0.00  0.00     0.231 HD
ATOM     27  H   SUS d 141      -2.533  11.279  15.776  0.00  0.00     0.140 HD
ATOM     28  H   SUS d 141      -0.610  11.997  16.724  0.00  0.00     0.092 H 
ATOM     29  H   SUS d 141      -0.070  13.214  19.151  0.00  0.00     0.210 HD
ATOM     30  H   SUS d 141      -2.961   7.719  15.664  0.00  0.00     0.231 HD
ATOM     31  H   SUS d 141       1.590  10.699  17.380  0.00  0.00     0.090 H 
ATOM     32  H   SUS d 141      -0.479  10.965  19.527  0.00  0.00     0.091 H 
ATOM     33  H   SUS d 141      -0.728   8.226  16.493  0.00  0.00     0.131 H 
ATOM     34  H   SUS d 141      -4.796  11.199  16.279  0.00  0.00     0.231 HD
ATOM     35  H   SUS d 141      -2.122   9.672  17.839  0.00  0.00     0.076 H 
ATOM     36  C1  IDY d 142       1.077  10.404  11.988  0.00  0.00     0.160 C 
ATOM     37  C3  IDY d 142       0.691   8.802  13.749  0.00  0.00     0.094 C 
ATOM     38  S   IDY d 142      -1.939  11.249  12.236  0.00  0.00     0.252 S 
ATOM     39  O3  IDY d 142       0.501   7.310  13.627  0.00  0.00    -0.390 OA
ATOM     40  O4  IDY d 142       0.392   9.726  15.696  0.00  0.00    -0.348 OA
ATOM     41  C2  IDY d 142       0.005   9.617  12.706  0.00  0.00     0.134 C 
ATOM     42  C6  IDY d 142       3.429  11.096  14.882  0.00  0.00     0.206 C 
ATOM     43  O61 IDY d 142       2.916  12.223  15.204  0.00  0.00    -0.646 OA
ATOM     44  O62 IDY d 142       4.625  10.810  15.378  0.00  0.00    -0.646 OA
ATOM     45  C5  IDY d 142       2.735  10.166  13.905  0.00  0.00     0.152 C 
ATOM     46  OS2 IDY d 142      -2.984  10.283  11.845  0.00  0.00    -0.572 OA
ATOM     47  O2  IDY d 142      -0.963  10.565  13.229  0.00  0.00    -0.244 OA
ATOM     48  OS1 IDY d 142      -2.541  12.428  12.909  0.00  0.00    -0.572 OA
ATOM     49  O5  IDY d 142       2.112  10.950  12.845  0.00  0.00    -0.340 OA
ATOM     50  O1  IDY d 142       1.550   9.394  10.995  0.00  0.00    -0.363 OA
ATOM     51  C7  IDY d 142       2.909  10.038  10.704  0.00  0.00     0.007 C 
ATOM     52  OS3 IDY d 142      -1.242  11.678  10.989  0.00  0.00    -0.572 OA
ATOM     53  C4  IDY d 142       1.733   9.325  14.697  0.00  0.00     0.103 C 
ATOM     54  H   IDY d 142       0.724  11.311  11.545  0.00  0.00     0.133 H 
ATOM     55  H   IDY d 142       0.136   9.286  14.525  0.00  0.00     0.091 H 
ATOM     56  H   IDY d 142       1.046   6.973  12.898  0.00  0.00     0.210 HD
ATOM     57  H   IDY d 142      -0.536   8.942  12.076  0.00  0.00     0.097 H 
ATOM     58  H   IDY d 142       3.425   9.503  13.426  0.00  0.00     0.104 H 
ATOM     59  H   IDY d 142       3.436   9.447   9.984  0.00  0.00     0.066 H 
ATOM     60  H   IDY d 142       3.479  10.091  11.608  0.00  0.00     0.066 H 
ATOM     61  H   IDY d 142       2.761  11.024  10.317  0.00  0.00     0.066 H 
ATOM     62  H   IDY d 142       2.538   8.897  15.255  0.00  0.00     0.092 H 
ENDROOT
TORSDOF 19
ENDMDL
MODEL 13
REMARK VINA RESULT:      -6.8      2.869      6.213
REMARK  0 active torsions:
REMARK  status: ('A' for Active; 'I' for Inactive)
REMARK       I    between atoms: O3_1  and  C3_8 
REMARK       I    between atoms: O3_1  and  S3_11 
REMARK       I    between atoms: C1_2  and  O1_36 
REMARK       I    between atoms: C6_3  and  C5_27 
REMARK       I    between atoms: C6_3  and  O6_25 
REMARK       I    between atoms: O3S_4  and  S1_32 
REMARK       I    between atoms: C3_5  and  O3_9 
REMARK       I    between atoms: N_6  and  S1_32 
REMARK       I    between atoms: N_6  and  C2_39 
REMARK       I    between atoms: S_7  and  O2_30 
REMARK       I    between atoms: O4_12  and  C1_29 
REMARK       I    between atoms: O4_12  and  C4_40 
REMARK       I    between atoms: O4_13  and  C4_28 
REMARK       I    between atoms: C2_14  and  O2_30 
REMARK       I    between atoms: C6_15  and  C5_23 
REMARK       I    between atoms: S2_16  and  O6_25 
REMARK       I    between atoms: O1S_22  and  S1_32 
REMARK       I    between atoms: S1_32  and  O2S_33 
REMARK       I    between atoms: O1_36  and  C7_37 
ROOT
ATOM      1  O3  SUS d 141      -0.213   9.303  15.103  0.00  0.00    -0.247 OA
ATOM      2  C6  SUS d 141      -3.344  12.996  15.833  0.00  0.00     0.067 C 
ATOM      3  O3S SUS d 141       0.690   7.102  19.449  0.00  0.00    -0.296 OA
ATOM      4  N   SUS d 141      -0.124   8.908  17.993  0.00  0.00    -0.210 NA
ATOM      5  C3  SUS d 141      -0.598  10.283  16.039  0.00  0.00     0.107 C 
ATOM      6  O6S SUS d 141      -6.625  13.918  15.892  0.00  0.00    -0.572 OA
ATOM      7  S3  SUS d 141       1.087   8.751  14.916  0.00  0.00     0.252 S 
ATOM      8  O4  SUS d 141      -0.989  12.013  14.426  0.00  0.00    -0.390 OA
ATOM      9  S2  SUS d 141      -5.890  12.684  15.627  0.00  0.00     0.251 S 
ATOM     10  O5  SUS d 141      -2.828  11.327  17.473  0.00  0.00    -0.349 OA
ATOM     11  O8S SUS d 141       2.111   8.788  15.935  0.00  0.00    -0.572 OA
ATOM     12  O4S SUS d 141      -5.497  12.565  14.226  0.00  0.00    -0.572 OA
ATOM     13  O1S SUS d 141      -1.683   7.320  19.035  0.00  0.00    -0.296 OA
ATOM     14  O7S SUS d 141       1.620   9.416  13.755  0.00  0.00    -0.572 OA
ATOM     15  O6  SUS d 141      -4.576  12.742  16.468  0.00  0.00    -0.254 OA
ATOM     16  C5  SUS d 141      -2.264  12.120  16.453  0.00  0.00     0.090 C 
ATOM     17  C4  SUS d 141      -1.622  11.218  15.405  0.00  0.00     0.090 C 
ATOM     18  C1  SUS d 141      -1.844  10.621  18.195  0.00  0.00     0.150 C 
ATOM     19  O9S SUS d 141       0.832   7.388  14.505  0.00  0.00    -0.572 OA
ATOM     20  S1  SUS d 141      -0.343   7.394  18.459  0.00  0.00     0.156 S 
ATOM     21  O2S SUS d 141      -0.205   6.562  17.267  0.00  0.00    -0.296 OA
ATOM     22  C2  SUS d 141      -1.173   9.605  17.277  0.00  0.00     0.083 C 
ATOM     23  O5S SUS d 141      -6.625  11.500  16.059  0.00  0.00    -0.572 OA
ATOM     24  H   SUS d 141      -3.428  12.775  14.789  0.00  0.00     0.080 H 
ATOM     25  H   SUS d 141      -3.084  14.026  15.959  0.00  0.00     0.080 H 
ATOM     26  H   SUS d 141       0.566   7.672  20.224  0.00  0.00     0.231 HD
ATOM     27  H   SUS d 141       0.699   8.913  17.389  0.00  0.00     0.140 HD
ATOM     28  H   SUS d 141       0.252  10.862  16.334  0.00  0.00     0.092 H 
ATOM     29  H   SUS d 141      -0.581  11.439  13.758  0.00  0.00     0.210 HD
ATOM     30  H   SUS d 141      -1.728   7.885  19.822  0.00  0.00     0.231 HD
ATOM     31  H   SUS d 141      -1.506  12.756  16.861  0.00  0.00     0.090 H 
ATOM     32  H   SUS d 141      -2.390  10.623  14.955  0.00  0.00     0.091 H 
ATOM     33  H   SUS d 141      -2.302  10.111  19.017  0.00  0.00     0.131 H 
ATOM     34  H   SUS d 141       0.697   6.642  16.919  0.00  0.00     0.231 HD
ATOM     35  H   SUS d 141      -1.913   8.900  16.960  0.00  0.00     0.076 H 
ATOM     36  C1  IDY d 142       1.970  12.566  21.021  0.00  0.00     0.160 C 
ATOM     37  C3  IDY d 142      -0.299  11.791  20.760  0.00  0.00     0.094 C 
ATOM     38  S   IDY d 142       2.939   9.732  20.072  0.00  0.00     0.252 S 
ATOM     39  O3  IDY d 142      -1.264  11.355  21.834  0.00  0.00    -0.390 OA
ATOM     40  O4  IDY d 142      -0.878  11.525  18.680  0.00  0.00    -0.348 OA
ATOM     41  C2  IDY d 142       1.107  11.328  20.943  0.00  0.00     0.134 C 
ATOM     42  C6  IDY d 142       0.132  14.800  18.569  0.00  0.00     0.206 C 
ATOM     43  O61 IDY d 142       0.820  14.470  17.543  0.00  0.00    -0.646 OA
ATOM     44  O62 IDY d 142      -0.614  15.893  18.472  0.00  0.00    -0.646 OA
ATOM     45  C5  IDY d 142       0.231  14.025  19.869  0.00  0.00     0.152 C 
ATOM     46  OS2 IDY d 142       2.682   8.564  20.938  0.00  0.00    -0.572 OA
ATOM     47  O2  IDY d 142       1.612  10.505  19.857  0.00  0.00    -0.244 OA
ATOM     48  OS1 IDY d 142       3.447   9.298  18.745  0.00  0.00    -0.572 OA
ATOM     49  O5  IDY d 142       1.614  13.619  20.089  0.00  0.00    -0.340 OA
ATOM     50  O1  IDY d 142       1.821  12.923  22.462  0.00  0.00    -0.363 OA
ATOM     51  C7  IDY d 142       2.246  14.390  22.338  0.00  0.00     0.007 C 
ATOM     52  OS3 IDY d 142       3.961  10.575  20.755  0.00  0.00    -0.572 OA
ATOM     53  C4  IDY d 142      -0.733  12.841  19.777  0.00  0.00     0.103 C 
ATOM     54  H   IDY d 142       2.984  12.405  20.720  0.00  0.00     0.133 H 
ATOM     55  H   IDY d 142      -0.370  11.276  19.824  0.00  0.00     0.091 H 
ATOM     56  H   IDY d 142      -1.115  11.882  22.636  0.00  0.00     0.210 HD
ATOM     57  H   IDY d 142       1.132  10.722  21.825  0.00  0.00     0.097 H 
ATOM     58  H   IDY d 142      -0.049  14.620  20.712  0.00  0.00     0.104 H 
ATOM     59  H   IDY d 142       2.208  14.855  23.301  0.00  0.00     0.066 H 
ATOM     60  H   IDY d 142       1.582  14.898  21.671  0.00  0.00     0.066 H 
ATOM     61  H   IDY d 142       3.243  14.441  21.956  0.00  0.00     0.066 H 
ATOM     62  H   IDY d 142      -1.556  13.520  19.703  0.00  0.00     0.092 H 
ENDROOT
TORSDOF 19
ENDMDL
MODEL 14
REMARK VINA RESULT:      -6.7      2.291      4.578
REMARK  0 active torsions:
REMARK  status: ('A' for Active; 'I' for Inactive)
REMARK       I    between atoms: O3_1  and  C3_8 
REMARK       I    between atoms: O3_1  and  S3_11 
REMARK       I    between atoms: C1_2  and  O1_36 
REMARK       I    between atoms: C6_3  and  C5_27 
REMARK       I    between atoms: C6_3  and  O6_25 
REMARK       I    between atoms: O3S_4  and  S1_32 
REMARK       I    between atoms: C3_5  and  O3_9 
REMARK       I    between atoms: N_6  and  S1_32 
REMARK       I    between atoms: N_6  and  C2_39 
REMARK       I    between atoms: S_7  and  O2_30 
REMARK       I    between atoms: O4_12  and  C1_29 
REMARK       I    between atoms: O4_12  and  C4_40 
REMARK       I    between atoms: O4_13  and  C4_28 
REMARK       I    between atoms: C2_14  and  O2_30 
REMARK       I    between atoms: C6_15  and  C5_23 
REMARK       I    between atoms: S2_16  and  O6_25 
REMARK       I    between atoms: O1S_22  and  S1_32 
REMARK       I    between atoms: S1_32  and  O2S_33 
REMARK       I    between atoms: O1_36  and  C7_37 
ROOT
ATOM      1  O3  SUS d 141       2.969  11.421  16.647  0.00  0.00    -0.247 OA
ATOM      2  C6  SUS d 141       1.660   9.280  12.443  0.00  0.00     0.067 C 
ATOM      3  O3S SUS d 141       0.008   9.773  20.260  0.00  0.00    -0.296 OA
ATOM      4  N   SUS d 141       0.680  10.140  17.924  0.00  0.00    -0.210 NA
ATOM      5  C3  SUS d 141       1.861  10.915  15.939  0.00  0.00     0.107 C 
ATOM      6  O6S SUS d 141       2.193   6.634  10.361  0.00  0.00    -0.572 OA
ATOM      7  S3  SUS d 141       2.979  12.497  17.582  0.00  0.00     0.252 S 
ATOM      8  O4  SUS d 141       2.573  11.698  13.789  0.00  0.00    -0.390 OA
ATOM      9  S2  SUS d 141       2.742   7.089  11.636  0.00  0.00     0.251 S 
ATOM     10  O5  SUS d 141       0.862   8.607  14.599  0.00  0.00    -0.349 OA
ATOM     11  O8S SUS d 141       1.794  12.947  18.275  0.00  0.00    -0.572 OA
ATOM     12  O4S SUS d 141       3.859   8.013  11.458  0.00  0.00    -0.572 OA
ATOM     13  O1S SUS d 141       0.977   7.951  19.000  0.00  0.00    -0.296 OA
ATOM     14  O7S SUS d 141       3.502  13.626  16.858  0.00  0.00    -0.572 OA
ATOM     15  O6  SUS d 141       1.610   7.874  12.370  0.00  0.00    -0.254 OA
ATOM     16  C5  SUS d 141       1.200   9.734  13.821  0.00  0.00     0.090 C 
ATOM     17  C4  SUS d 141       2.291  10.531  14.528  0.00  0.00     0.090 C 
ATOM     18  C1  SUS d 141       0.269   8.974  15.825  0.00  0.00     0.150 C 
ATOM     19  O9S SUS d 141       4.008  12.126  18.529  0.00  0.00    -0.572 OA
ATOM     20  S1  SUS d 141       1.025   9.381  19.289  0.00  0.00     0.156 S 
ATOM     21  O2S SUS d 141       2.358   9.821  19.690  0.00  0.00    -0.296 OA
ATOM     22  C2  SUS d 141       1.291   9.712  16.682  0.00  0.00     0.083 C 
ATOM     23  O5S SUS d 141       3.125   5.978  12.500  0.00  0.00    -0.572 OA
ATOM     24  H   SUS d 141       2.665   9.610  12.275  0.00  0.00     0.080 H 
ATOM     25  H   SUS d 141       1.018   9.699  11.696  0.00  0.00     0.080 H 
ATOM     26  H   SUS d 141      -0.862   9.464  19.961  0.00  0.00     0.231 HD
ATOM     27  H   SUS d 141       0.939  11.118  18.058  0.00  0.00     0.140 HD
ATOM     28  H   SUS d 141       1.098  11.662  15.870  0.00  0.00     0.092 H 
ATOM     29  H   SUS d 141       3.267  12.206  14.238  0.00  0.00     0.210 HD
ATOM     30  H   SUS d 141       0.076   7.703  18.739  0.00  0.00     0.231 HD
ATOM     31  H   SUS d 141       0.344  10.365  13.700  0.00  0.00     0.090 H 
ATOM     32  H   SUS d 141       3.166   9.919  14.596  0.00  0.00     0.091 H 
ATOM     33  H   SUS d 141      -0.060   8.095  16.339  0.00  0.00     0.131 H 
ATOM     34  H   SUS d 141       2.343  10.774  19.871  0.00  0.00     0.231 HD
ATOM     35  H   SUS d 141       2.095   9.039  16.897  0.00  0.00     0.076 H 
ATOM     36  C1  IDY d 142      -4.131  11.512  16.543  0.00  0.00     0.160 C 
ATOM     37  C3  IDY d 142      -2.881   9.473  16.229  0.00  0.00     0.094 C 
ATOM     38  S   IDY d 142      -2.365  12.083  19.079  0.00  0.00     0.252 S 
ATOM     39  O3  IDY d 142      -3.302   8.063  16.557  0.00  0.00    -0.390 OA
ATOM     40  O4  IDY d 142      -0.833   9.817  15.579  0.00  0.00    -0.348 OA
ATOM     41  C2  IDY d 142      -3.255  10.499  17.244  0.00  0.00     0.134 C 
ATOM     42  C6  IDY d 142      -2.499  11.530  13.120  0.00  0.00     0.206 C 
ATOM     43  O61 IDY d 142      -1.695  12.495  13.359  0.00  0.00    -0.646 OA
ATOM     44  O62 IDY d 142      -2.676  11.190  11.850  0.00  0.00    -0.646 OA
ATOM     45  C5  IDY d 142      -3.281  10.860  14.234  0.00  0.00     0.152 C 
ATOM     46  OS2 IDY d 142      -2.500  11.200  20.254  0.00  0.00    -0.572 OA
ATOM     47  O2  IDY d 142      -2.126  11.213  17.817  0.00  0.00    -0.244 OA
ATOM     48  OS1 IDY d 142      -1.207  12.999  19.241  0.00  0.00    -0.572 OA
ATOM     49  O5  IDY d 142      -3.704  11.865  15.202  0.00  0.00    -0.340 OA
ATOM     50  O1  IDY d 142      -5.461  10.839  16.625  0.00  0.00    -0.363 OA
ATOM     51  C7  IDY d 142      -6.135  11.614  15.489  0.00  0.00     0.007 C 
ATOM     52  OS3 IDY d 142      -3.625  12.873  18.970  0.00  0.00    -0.572 OA
ATOM     53  C4  IDY d 142      -2.387   9.780  14.844  0.00  0.00     0.103 C 
ATOM     54  H   IDY d 142      -4.112  12.484  16.991  0.00  0.00     0.133 H 
ATOM     55  H   IDY d 142      -1.842   9.696  16.353  0.00  0.00     0.091 H 
ATOM     56  H   IDY d 142      -4.257   7.968  16.411  0.00  0.00     0.210 HD
ATOM     57  H   IDY d 142      -3.738   9.990  18.052  0.00  0.00     0.097 H 
ATOM     58  H   IDY d 142      -4.172  10.393  13.872  0.00  0.00     0.104 H 
ATOM     59  H   IDY d 142      -7.142  11.273  15.373  0.00  0.00     0.066 H 
ATOM     60  H   IDY d 142      -5.597  11.454  14.578  0.00  0.00     0.066 H 
ATOM     61  H   IDY d 142      -6.137  12.658  15.722  0.00  0.00     0.066 H 
ATOM     62  H   IDY d 142      -2.377   9.264  13.907  0.00  0.00     0.092 H 
ENDROOT
TORSDOF 19
ENDMDL
MODEL 15
REMARK VINA RESULT:      -6.7      2.670      7.311
REMARK  0 active torsions:
REMARK  status: ('A' for Active; 'I' for Inactive)
REMARK       I    between atoms: O3_1  and  C3_8 
REMARK       I    between atoms: O3_1  and  S3_11 
REMARK       I    between atoms: C1_2  and  O1_36 
REMARK       I    between atoms: C6_3  and  C5_27 
REMARK       I    between atoms: C6_3  and  O6_25 
REMARK       I    between atoms: O3S_4  and  S1_32 
REMARK       I    between atoms: C3_5  and  O3_9 
REMARK       I    between atoms: N_6  and  S1_32 
REMARK       I    between atoms: N_6  and  C2_39 
REMARK       I    between atoms: S_7  and  O2_30 
REMARK       I    between atoms: O4_12  and  C1_29 
REMARK       I    between atoms: O4_12  and  C4_40 
REMARK       I    between atoms: O4_13  and  C4_28 
REMARK       I    between atoms: C2_14  and  O2_30 
REMARK       I    between atoms: C6_15  and  C5_23 
REMARK       I    between atoms: S2_16  and  O6_25 
REMARK       I    between atoms: O1S_22  and  S1_32 
REMARK       I    between atoms: S1_32  and  O2S_33 
REMARK       I    between atoms: O1_36  and  C7_37 
ROOT
ATOM      1  O3  SUS d 141       0.732  12.558  13.550  0.00  0.00    -0.247 OA
ATOM      2  C6  SUS d 141      -3.227  13.353  16.318  0.00  0.00     0.067 C 
ATOM      3  O3S SUS d 141       1.734   7.707  13.563  0.00  0.00    -0.296 OA
ATOM      4  N   SUS d 141       0.654   9.761  14.374  0.00  0.00    -0.210 NA
ATOM      5  C3  SUS d 141       0.047  12.098  14.692  0.00  0.00     0.107 C 
ATOM      6  O6S SUS d 141      -6.625  13.627  16.336  0.00  0.00    -0.572 OA
ATOM      7  S3  SUS d 141       2.137  12.523  13.313  0.00  0.00     0.252 S 
ATOM      8  O4  SUS d 141      -0.592  14.271  15.477  0.00  0.00    -0.390 OA
ATOM      9  S2  SUS d 141      -5.601  13.377  15.326  0.00  0.00     0.251 S 
ATOM     10  O5  SUS d 141      -2.484  11.183  15.628  0.00  0.00    -0.349 OA
ATOM     11  O8S SUS d 141       3.028  11.623  14.006  0.00  0.00    -0.572 OA
ATOM     12  O4S SUS d 141      -5.069  14.613  14.759  0.00  0.00    -0.572 OA
ATOM     13  O1S SUS d 141      -0.577   8.139  12.999  0.00  0.00    -0.296 OA
ATOM     14  O7S SUS d 141       2.600  13.862  13.570  0.00  0.00    -0.572 OA
ATOM     15  O6  SUS d 141      -4.417  12.652  16.039  0.00  0.00    -0.254 OA
ATOM     16  C5  SUS d 141      -2.032  12.446  16.062  0.00  0.00     0.090 C 
ATOM     17  C4  SUS d 141      -1.106  13.044  15.008  0.00  0.00     0.090 C 
ATOM     18  C1  SUS d 141      -1.431  10.250  15.537  0.00  0.00     0.150 C 
ATOM     19  O9S SUS d 141       2.244  12.338  11.882  0.00  0.00    -0.572 OA
ATOM     20  S1  SUS d 141       0.754   8.714  13.169  0.00  0.00     0.156 S 
ATOM     21  O2S SUS d 141       1.188   9.465  11.995  0.00  0.00    -0.296 OA
ATOM     22  C2  SUS d 141      -0.462  10.683  14.443  0.00  0.00     0.083 C 
ATOM     23  O5S SUS d 141      -6.075  12.488  14.269  0.00  0.00    -0.572 OA
ATOM     24  H   SUS d 141      -3.164  14.215  15.686  0.00  0.00     0.080 H 
ATOM     25  H   SUS d 141      -3.227  13.662  17.343  0.00  0.00     0.080 H 
ATOM     26  H   SUS d 141       1.412   7.230  14.344  0.00  0.00     0.231 HD
ATOM     27  H   SUS d 141       1.503  10.327  14.344  0.00  0.00     0.140 HD
ATOM     28  H   SUS d 141       0.709  12.078  15.532  0.00  0.00     0.092 H 
ATOM     29  H   SUS d 141      -0.004  14.652  14.807  0.00  0.00     0.210 HD
ATOM     30  H   SUS d 141      -0.824   7.651  13.800  0.00  0.00     0.231 HD
ATOM     31  H   SUS d 141      -1.484  12.344  16.975  0.00  0.00     0.090 H 
ATOM     32  H   SUS d 141      -1.671  13.201  14.112  0.00  0.00     0.091 H 
ATOM     33  H   SUS d 141      -1.828   9.285  15.301  0.00  0.00     0.131 H 
ATOM     34  H   SUS d 141       2.074   9.829  12.152  0.00  0.00     0.231 HD
ATOM     35  H   SUS d 141      -0.985  10.674  13.510  0.00  0.00     0.076 H 
ATOM     36  C1  IDY d 142       1.557   8.520  19.332  0.00  0.00     0.160 C 
ATOM     37  C3  IDY d 142      -0.436   8.408  17.977  0.00  0.00     0.094 C 
ATOM     38  S   IDY d 142       3.242   8.244  16.694  0.00  0.00     0.252 S 
ATOM     39  O3  IDY d 142      -1.363   7.236  17.780  0.00  0.00    -0.390 OA
ATOM     40  O4  IDY d 142      -0.749  10.190  16.770  0.00  0.00    -0.348 OA
ATOM     41  C2  IDY d 142       1.017   8.073  17.993  0.00  0.00     0.134 C 
ATOM     42  C6  IDY d 142      -0.527  11.642  19.868  0.00  0.00     0.206 C 
ATOM     43  O61 IDY d 142       0.308  12.454  19.340  0.00  0.00    -0.646 OA
ATOM     44  O62 IDY d 142      -1.496  12.166  20.608  0.00  0.00    -0.646 OA
ATOM     45  C5  IDY d 142      -0.366  10.141  19.726  0.00  0.00     0.152 C 
ATOM     46  OS2 IDY d 142       3.189   6.973  15.945  0.00  0.00    -0.572 OA
ATOM     47  O2  IDY d 142       1.795   8.735  16.960  0.00  0.00    -0.244 OA
ATOM     48  OS1 IDY d 142       3.953   9.285  15.910  0.00  0.00    -0.572 OA
ATOM     49  O5  IDY d 142       1.049   9.795  19.801  0.00  0.00    -0.340 OA
ATOM     50  O1  IDY d 142       1.201   7.347  20.184  0.00  0.00    -0.363 OA
ATOM     51  C7  IDY d 142       1.280   8.065  21.536  0.00  0.00     0.007 C 
ATOM     52  OS3 IDY d 142       3.974   7.979  17.966  0.00  0.00    -0.572 OA
ATOM     53  C4  IDY d 142      -1.014   9.728  18.404  0.00  0.00     0.103 C 
ATOM     54  H   IDY d 142       2.603   8.744  19.324  0.00  0.00     0.133 H 
ATOM     55  H   IDY d 142      -0.301   9.052  17.133  0.00  0.00     0.091 H 
ATOM     56  H   IDY d 142      -1.414   6.721  18.601  0.00  0.00     0.210 HD
ATOM     57  H   IDY d 142       1.105   7.021  17.816  0.00  0.00     0.097 H 
ATOM     58  H   IDY d 142      -0.850   9.610  20.518  0.00  0.00     0.104 H 
ATOM     59  H   IDY d 142       1.049   7.375  22.320  0.00  0.00     0.066 H 
ATOM     60  H   IDY d 142       0.578   8.872  21.552  0.00  0.00     0.066 H 
ATOM     61  H   IDY d 142       2.268   8.449  21.678  0.00  0.00     0.066 H 
ATOM     62  H   IDY d 142      -1.963  10.061  18.769  0.00  0.00     0.092 H 
ENDROOT
TORSDOF 19
ENDMDL
MODEL 16
REMARK VINA RESULT:      -6.7      3.061      7.234
REMARK  0 active torsions:
REMARK  status: ('A' for Active; 'I' for Inactive)
REMARK       I    between atoms: O3_1  and  C3_8 
REMARK       I    between atoms: O3_1  and  S3_11 
REMARK       I    between atoms: C1_2  and  O1_36 
REMARK       I    between atoms: C6_3  and  C5_27 
REMARK       I    between atoms: C6_3  and  O6_25 
REMARK       I    between atoms: O3S_4  and  S1_32 
REMARK       I    between atoms: C3_5  and  O3_9 
REMARK       I    between atoms: N_6  and  S1_32 
REMARK       I    between atoms: N_6  and  C2_39 
REMARK       I    between atoms: S_7  and  O2_30 
REMARK       I    between atoms: O4_12  and  C1_29 
REMARK       I    between atoms: O4_12  and  C4_40 
REMARK       I    between atoms: O4_13  and  C4_28 
REMARK       I    between atoms: C2_14  and  O2_30 
REMARK       I    between atoms: C6_15  and  C5_23 
REMARK       I    between atoms: S2_16  and  O6_25 
REMARK       I    between atoms: O1S_22  and  S1_32 
REMARK       I    between atoms: S1_32  and  O2S_33 
REMARK       I    between atoms: O1_36  and  C7_37 
ROOT
ATOM      1  O3  SUS d 141      -3.152  10.875  16.812  0.00  0.00    -0.247 OA
ATOM      2  C6  SUS d 141      -3.821  14.080  13.171  0.00  0.00     0.067 C 
ATOM      3  O3S SUS d 141       1.703  10.492  17.722  0.00  0.00    -0.296 OA
ATOM      4  N   SUS d 141      -0.273  11.131  16.407  0.00  0.00    -0.210 NA
ATOM      5  C3  SUS d 141      -2.569  11.372  15.629  0.00  0.00     0.107 C 
ATOM      6  O6S SUS d 141      -4.391  17.347  12.384  0.00  0.00    -0.572 OA
ATOM      7  S3  SUS d 141      -3.031   9.560  17.348  0.00  0.00     0.252 S 
ATOM      8  O4  SUS d 141      -4.627  11.572  14.416  0.00  0.00    -0.390 OA
ATOM      9  S2  SUS d 141      -4.223  16.582  13.616  0.00  0.00     0.251 S 
ATOM     10  O5  SUS d 141      -1.739  13.760  14.315  0.00  0.00    -0.349 OA
ATOM     11  O8S SUS d 141      -1.951   8.666  17.001  0.00  0.00    -0.572 OA
ATOM     12  O4S SUS d 141      -5.484  16.025  14.097  0.00  0.00    -0.572 OA
ATOM     13  O1S SUS d 141       0.977  12.799  17.707  0.00  0.00    -0.296 OA
ATOM     14  O7S SUS d 141      -4.261   8.894  17.003  0.00  0.00    -0.572 OA
ATOM     15  O6  SUS d 141      -3.286  15.379  13.287  0.00  0.00    -0.254 OA
ATOM     16  C5  SUS d 141      -2.866  13.079  13.809  0.00  0.00     0.090 C 
ATOM     17  C4  SUS d 141      -3.548  12.315  14.937  0.00  0.00     0.090 C 
ATOM     18  C1  SUS d 141      -0.745  12.868  14.765  0.00  0.00     0.150 C 
ATOM     19  O9S SUS d 141      -3.081   9.761  18.780  0.00  0.00    -0.572 OA
ATOM     20  S1  SUS d 141       0.560  11.401  17.745  0.00  0.00     0.156 S 
ATOM     21  O2S SUS d 141      -0.336  11.119  18.863  0.00  0.00    -0.296 OA
ATOM     22  C2  SUS d 141      -1.267  12.089  15.966  0.00  0.00     0.083 C 
ATOM     23  O5S SUS d 141      -3.571  17.361  14.665  0.00  0.00    -0.572 OA
ATOM     24  H   SUS d 141      -4.767  14.038  13.670  0.00  0.00     0.080 H 
ATOM     25  H   SUS d 141      -3.951  13.839  12.137  0.00  0.00     0.080 H 
ATOM     26  H   SUS d 141       2.274  10.710  16.968  0.00  0.00     0.231 HD
ATOM     27  H   SUS d 141      -0.758  10.242  16.536  0.00  0.00     0.140 HD
ATOM     28  H   SUS d 141      -2.349  10.564  14.962  0.00  0.00     0.092 H 
ATOM     29  H   SUS d 141      -5.061  11.085  15.134  0.00  0.00     0.210 HD
ATOM     30  H   SUS d 141       1.569  12.940  16.952  0.00  0.00     0.231 HD
ATOM     31  H   SUS d 141      -2.563  12.378  13.059  0.00  0.00     0.090 H 
ATOM     32  H   SUS d 141      -3.903  13.022  15.658  0.00  0.00     0.091 H 
ATOM     33  H   SUS d 141       0.127  13.419  15.048  0.00  0.00     0.131 H 
ATOM     34  H   SUS d 141      -0.587  10.181  18.848  0.00  0.00     0.231 HD
ATOM     35  H   SUS d 141      -1.462  12.784  16.756  0.00  0.00     0.076 H 
ATOM     36  C1  IDY d 142       1.860   9.423  11.994  0.00  0.00     0.160 C 
ATOM     37  C3  IDY d 142       1.563  11.643  12.891  0.00  0.00     0.094 C 
ATOM     38  S   IDY d 142       1.838   8.341  14.944  0.00  0.00     0.252 S 
ATOM     39  O3  IDY d 142       2.598  12.728  13.053  0.00  0.00    -0.390 OA
ATOM     40  O4  IDY d 142      -0.418  11.969  13.729  0.00  0.00    -0.348 OA
ATOM     41  C2  IDY d 142       2.025  10.268  13.237  0.00  0.00     0.134 C 
ATOM     42  C6  IDY d 142      -1.302  10.962  10.573  0.00  0.00     0.206 C 
ATOM     43  O61 IDY d 142      -2.113  10.154  11.145  0.00  0.00    -0.646 OA
ATOM     44  O62 IDY d 142      -1.778  11.693   9.575  0.00  0.00    -0.646 OA
ATOM     45  C5  IDY d 142       0.162  11.017  10.964  0.00  0.00     0.152 C 
ATOM     46  OS2 IDY d 142       2.955   8.697  15.842  0.00  0.00    -0.572 OA
ATOM     47  O2  IDY d 142       1.270   9.635  14.305  0.00  0.00    -0.244 OA
ATOM     48  OS1 IDY d 142       0.747   7.677  15.703  0.00  0.00    -0.572 OA
ATOM     49  O5  IDY d 142       0.641   9.668  11.246  0.00  0.00    -0.340 OA
ATOM     50  O1  IDY d 142       3.123   9.745  11.266  0.00  0.00    -0.363 OA
ATOM     51  C7  IDY d 142       2.652   9.312   9.874  0.00  0.00     0.007 C 
ATOM     52  OS3 IDY d 142       2.378   7.410  13.912  0.00  0.00    -0.572 OA
ATOM     53  C4  IDY d 142       0.288  11.959  12.162  0.00  0.00     0.103 C 
ATOM     54  H   IDY d 142       1.732   8.380  12.195  0.00  0.00     0.133 H 
ATOM     55  H   IDY d 142       0.801  11.601  13.641  0.00  0.00     0.091 H 
ATOM     56  H   IDY d 142       3.236  12.678  12.324  0.00  0.00     0.210 HD
ATOM     57  H   IDY d 142       3.035  10.347  13.580  0.00  0.00     0.097 H 
ATOM     58  H   IDY d 142       0.774  11.396  10.173  0.00  0.00     0.104 H 
ATOM     59  H   IDY d 142       3.441   9.466   9.167  0.00  0.00     0.066 H 
ATOM     60  H   IDY d 142       1.800   9.893   9.589  0.00  0.00     0.066 H 
ATOM     61  H   IDY d 142       2.387   8.276   9.893  0.00  0.00     0.066 H 
ATOM     62  H   IDY d 142      -0.063  12.769  11.557  0.00  0.00     0.092 H 
ENDROOT
TORSDOF 19
ENDMDL
MODEL 17
REMARK VINA RESULT:      -6.6      2.688      6.562
REMARK  0 active torsions:
REMARK  status: ('A' for Active; 'I' for Inactive)
REMARK       I    between atoms: O3_1  and  C3_8 
REMARK       I    between atoms: O3_1  and  S3_11 
REMARK       I    between atoms: C1_2  and  O1_36 
REMARK       I    between atoms: C6_3  and  C5_27 
REMARK       I    between atoms: C6_3  and  O6_25 
REMARK       I    between atoms: O3S_4  and  S1_32 
REMARK       I    between atoms: C3_5  and  O3_9 
REMARK       I    between atoms: N_6  and  S1_32 
REMARK       I    between atoms: N_6  and  C2_39 
REMARK       I    between atoms: S_7  and  O2_30 
REMARK       I    between atoms: O4_12  and  C1_29 
REMARK       I    between atoms: O4_12  and  C4_40 
REMARK       I    between atoms: O4_13  and  C4_28 
REMARK       I    between atoms: C2_14  and  O2_30 
REMARK       I    between atoms: C6_15  and  C5_23 
REMARK       I    between atoms: S2_16  and  O6_25 
REMARK       I    between atoms: O1S_22  and  S1_32 
REMARK       I    between atoms: S1_32  and  O2S_33 
REMARK       I    between atoms: O1_36  and  C7_37 
ROOT
ATOM      1  O3  SUS d 141      -2.483  10.914  13.691  0.00  0.00    -0.247 OA
ATOM      2  C6  SUS d 141      -1.869  15.478  15.355  0.00  0.00     0.067 C 
ATOM      3  O3S SUS d 141      -2.521   7.806  17.549  0.00  0.00    -0.296 OA
ATOM      4  N   SUS d 141      -2.105   9.950  16.419  0.00  0.00    -0.210 NA
ATOM      5  C3  SUS d 141      -1.864  11.667  14.708  0.00  0.00     0.107 C 
ATOM      6  O6S SUS d 141      -3.442  18.316  16.398  0.00  0.00    -0.572 OA
ATOM      7  S3  SUS d 141      -2.025   9.692  13.119  0.00  0.00     0.252 S 
ATOM      8  O4  SUS d 141      -1.247  13.507  13.300  0.00  0.00    -0.390 OA
ATOM      9  S2  SUS d 141      -3.864  17.003  15.915  0.00  0.00     0.251 S 
ATOM     10  O5  SUS d 141      -2.353  13.592  16.751  0.00  0.00    -0.349 OA
ATOM     11  O8S SUS d 141      -1.093   8.813  13.787  0.00  0.00    -0.572 OA
ATOM     12  O4S SUS d 141      -3.969  16.959  14.459  0.00  0.00    -0.572 OA
ATOM     13  O1S SUS d 141      -4.068   9.638  17.864  0.00  0.00    -0.296 OA
ATOM     14  O7S SUS d 141      -1.434  10.059  11.859  0.00  0.00    -0.572 OA
ATOM     15  O6  SUS d 141      -2.756  15.985  16.326  0.00  0.00    -0.254 OA
ATOM     16  C5  SUS d 141      -1.622  13.998  15.616  0.00  0.00     0.090 C 
ATOM     17  C4  SUS d 141      -2.035  13.154  14.416  0.00  0.00     0.090 C 
ATOM     18  C1  SUS d 141      -2.031  12.275  17.140  0.00  0.00     0.150 C 
ATOM     19  O9S SUS d 141      -3.242   8.982  12.791  0.00  0.00    -0.572 OA
ATOM     20  S1  SUS d 141      -3.223   8.919  16.916  0.00  0.00     0.156 S 
ATOM     21  O2S SUS d 141      -3.959   8.493  15.728  0.00  0.00    -0.296 OA
ATOM     22  C2  SUS d 141      -2.477  11.302  16.055  0.00  0.00     0.083 C 
ATOM     23  O5S SUS d 141      -5.108  16.560  16.536  0.00  0.00    -0.572 OA
ATOM     24  H   SUS d 141      -2.297  15.602  14.381  0.00  0.00     0.080 H 
ATOM     25  H   SUS d 141      -0.941  16.009  15.407  0.00  0.00     0.080 H 
ATOM     26  H   SUS d 141      -2.046   8.127  18.331  0.00  0.00     0.231 HD
ATOM     27  H   SUS d 141      -1.666   9.534  15.597  0.00  0.00     0.140 HD
ATOM     28  H   SUS d 141      -0.817  11.446  14.741  0.00  0.00     0.092 H 
ATOM     29  H   SUS d 141      -1.510  12.970  12.536  0.00  0.00     0.210 HD
ATOM     30  H   SUS d 141      -3.540   9.901  18.633  0.00  0.00     0.231 HD
ATOM     31  H   SUS d 141      -0.575  13.856  15.786  0.00  0.00     0.090 H 
ATOM     32  H   SUS d 141      -3.068  13.341  14.210  0.00  0.00     0.091 H 
ATOM     33  H   SUS d 141      -2.532  12.042  18.057  0.00  0.00     0.131 H 
ATOM     34  H   SUS d 141      -3.360   8.021  15.128  0.00  0.00     0.231 HD
ATOM     35  H   SUS d 141      -3.542  11.364  15.967  0.00  0.00     0.076 H 
ATOM     36  C1  IDY d 142       2.515  10.497  18.718  0.00  0.00     0.160 C 
ATOM     37  C3  IDY d 142       0.372  11.520  19.138  0.00  0.00     0.094 C 
ATOM     38  S   IDY d 142       0.987   8.038  17.497  0.00  0.00     0.252 S 
ATOM     39  O3  IDY d 142      -0.370  11.623  20.447  0.00  0.00    -0.390 OA
ATOM     40  O4  IDY d 142      -0.638  12.168  17.323  0.00  0.00    -0.348 OA
ATOM     41  C2  IDY d 142       1.041  10.211  18.890  0.00  0.00     0.134 C 
ATOM     42  C6  IDY d 142       2.329  13.845  16.947  0.00  0.00     0.206 C 
ATOM     43  O61 IDY d 142       2.354  13.371  15.759  0.00  0.00    -0.646 OA
ATOM     44  O62 IDY d 142       2.569  15.142  17.086  0.00  0.00    -0.646 OA
ATOM     45  C5  IDY d 142       2.119  12.947  18.150  0.00  0.00     0.152 C 
ATOM     46  OS2 IDY d 142       0.170   7.192  18.390  0.00  0.00    -0.572 OA
ATOM     47  O2  IDY d 142       0.583   9.522  17.695  0.00  0.00    -0.244 OA
ATOM     48  OS1 IDY d 142       0.754   7.676  16.075  0.00  0.00    -0.572 OA
ATOM     49  O5  IDY d 142       2.821  11.685  17.944  0.00  0.00    -0.340 OA
ATOM     50  O1  IDY d 142       2.961  10.540  20.141  0.00  0.00    -0.363 OA
ATOM     51  C7  IDY d 142       4.256  11.325  19.910  0.00  0.00     0.007 C 
ATOM     52  OS3 IDY d 142       2.417   7.806  17.852  0.00  0.00    -0.572 OA
ATOM     53  C4  IDY d 142       0.612  12.769  18.339  0.00  0.00     0.103 C 
ATOM     54  H   IDY d 142       3.031   9.769  18.126  0.00  0.00     0.133 H 
ATOM     55  H   IDY d 142      -0.231  11.404  18.262  0.00  0.00     0.091 H 
ATOM     56  H   IDY d 142       0.266  11.726  21.173  0.00  0.00     0.210 HD
ATOM     57  H   IDY d 142       0.814   9.572  19.718  0.00  0.00     0.097 H 
ATOM     58  H   IDY d 142       2.521  13.375  19.044  0.00  0.00     0.104 H 
ATOM     59  H   IDY d 142       4.755  11.474  20.844  0.00  0.00     0.066 H 
ATOM     60  H   IDY d 142       4.024  12.275  19.475  0.00  0.00     0.066 H 
ATOM     61  H   IDY d 142       4.893  10.777  19.248  0.00  0.00     0.066 H 
ATOM     62  H   IDY d 142       0.514  13.819  18.520  0.00  0.00     0.092 H 
ENDROOT
TORSDOF 19
ENDMDL
MODEL 18
REMARK VINA RESULT:      -6.6      2.594      6.134
REMARK  0 active torsions:
REMARK  status: ('A' for Active; 'I' for Inactive)
REMARK       I    between atoms: O3_1  and  C3_8 
REMARK       I    between atoms: O3_1  and  S3_11 
REMARK       I    between atoms: C1_2  and  O1_36 
REMARK       I    between atoms: C6_3  and  C5_27 
REMARK       I    between atoms: C6_3  and  O6_25 
REMARK       I    between atoms: O3S_4  and  S1_32 
REMARK       I    between atoms: C3_5  and  O3_9 
REMARK       I    between atoms: N_6  and  S1_32 
REMARK       I    between atoms: N_6  and  C2_39 
REMARK       I    between atoms: S_7  and  O2_30 
REMARK       I    between atoms: O4_12  and  C1_29 
REMARK       I    between atoms: O4_12  and  C4_40 
REMARK       I    between atoms: O4_13  and  C4_28 
REMARK       I    between atoms: C2_14  and  O2_30 
REMARK       I    between atoms: C6_15  and  C5_23 
REMARK       I    between atoms: S2_16  and  O6_25 
REMARK       I    between atoms: O1S_22  and  S1_32 
REMARK       I    between atoms: S1_32  and  O2S_33 
REMARK       I    between atoms: O1_36  and  C7_37 
ROOT
ATOM      1  O3  SUS d 141      -2.306  12.436  17.952  0.00  0.00    -0.247 OA
ATOM      2  C6  SUS d 141       2.422  11.783  19.044  0.00  0.00     0.067 C 
ATOM      3  O3S SUS d 141      -3.875   8.558  15.298  0.00  0.00    -0.296 OA
ATOM      4  N   SUS d 141      -2.183  10.022  16.318  0.00  0.00    -0.210 NA
ATOM      5  C3  SUS d 141      -1.105  11.879  17.468  0.00  0.00     0.107 C 
ATOM      6  O6S SUS d 141       4.625  10.547  21.333  0.00  0.00    -0.572 OA
ATOM      7  S3  SUS d 141      -3.374  12.986  17.186  0.00  0.00     0.252 S 
ATOM      8  O4  SUS d 141       0.313  13.638  18.269  0.00  0.00    -0.390 OA
ATOM      9  S2  SUS d 141       3.171  10.636  21.222  0.00  0.00     0.251 S 
ATOM     10  O5  SUS d 141       1.010  10.084  18.116  0.00  0.00    -0.349 OA
ATOM     11  O8S SUS d 141      -3.589  12.666  15.794  0.00  0.00    -0.572 OA
ATOM     12  O4S SUS d 141       2.653  11.893  21.754  0.00  0.00    -0.572 OA
ATOM     13  O1S SUS d 141      -2.763   7.859  17.329  0.00  0.00    -0.296 OA
ATOM     14  O7S SUS d 141      -3.209  14.414  17.274  0.00  0.00    -0.572 OA
ATOM     15  O6  SUS d 141       2.823  10.603  19.702  0.00  0.00    -0.254 OA
ATOM     16  C5  SUS d 141       1.300  11.463  18.066  0.00  0.00     0.090 C 
ATOM     17  C4  SUS d 141       0.043  12.260  18.396  0.00  0.00     0.090 C 
ATOM     18  C1  SUS d 141       0.098   9.702  17.112  0.00  0.00     0.150 C 
ATOM     19  O9S SUS d 141      -4.555  12.678  17.963  0.00  0.00    -0.572 OA
ATOM     20  S1  SUS d 141      -3.358   8.974  16.599  0.00  0.00     0.156 S 
ATOM     21  O2S SUS d 141      -4.368   9.676  17.387  0.00  0.00    -0.296 OA
ATOM     22  C2  SUS d 141      -1.250  10.365  17.372  0.00  0.00     0.083 C 
ATOM     23  O5S SUS d 141       2.500   9.498  21.842  0.00  0.00    -0.572 OA
ATOM     24  H   SUS d 141       2.075  12.493  19.766  0.00  0.00     0.080 H 
ATOM     25  H   SUS d 141       3.254  12.194  18.511  0.00  0.00     0.080 H 
ATOM     26  H   SUS d 141      -3.178   8.097  14.806  0.00  0.00     0.231 HD
ATOM     27  H   SUS d 141      -2.629  10.892  16.024  0.00  0.00     0.140 HD
ATOM     28  H   SUS d 141      -0.893  12.262  16.491  0.00  0.00     0.092 H 
ATOM     29  H   SUS d 141      -0.487  14.145  18.478  0.00  0.00     0.210 HD
ATOM     30  H   SUS d 141      -2.101   7.423  16.770  0.00  0.00     0.231 HD
ATOM     31  H   SUS d 141       1.623  11.733  17.082  0.00  0.00     0.090 H 
ATOM     32  H   SUS d 141      -0.246  12.034  19.402  0.00  0.00     0.091 H 
ATOM     33  H   SUS d 141      -0.020   8.639  17.123  0.00  0.00     0.131 H 
ATOM     34  H   SUS d 141      -4.736  10.406  16.865  0.00  0.00     0.231 HD
ATOM     35  H   SUS d 141      -1.625  10.004  18.307  0.00  0.00     0.076 H 
ATOM     36  C1  IDY d 142       0.738   9.971  12.029  0.00  0.00     0.160 C 
ATOM     37  C3  IDY d 142       0.949   8.822  14.139  0.00  0.00     0.094 C 
ATOM     38  S   IDY d 142      -2.360  10.110  12.531  0.00  0.00     0.252 S 
ATOM     39  O3  IDY d 142       1.154   7.348  14.381  0.00  0.00    -0.390 OA
ATOM     40  O4  IDY d 142       0.586  10.110  15.854  0.00  0.00    -0.348 OA
ATOM     41  C2  IDY d 142      -0.018   9.160  13.055  0.00  0.00     0.134 C 
ATOM     42  C6  IDY d 142       3.063  11.912  14.312  0.00  0.00     0.206 C 
ATOM     43  O61 IDY d 142       2.299  12.928  14.450  0.00  0.00    -0.646 OA
ATOM     44  O62 IDY d 142       4.331  12.053  14.675  0.00  0.00    -0.646 OA
ATOM     45  C5  IDY d 142       2.561  10.627  13.681  0.00  0.00     0.152 C 
ATOM     46  OS2 IDY d 142      -3.140   8.857  12.524  0.00  0.00    -0.572 OA
ATOM     47  O2  IDY d 142      -1.155   9.952  13.494  0.00  0.00    -0.244 OA
ATOM     48  OS1 IDY d 142      -3.194  11.243  13.008  0.00  0.00    -0.572 OA
ATOM     49  O5  IDY d 142       1.660  10.947  12.579  0.00  0.00    -0.340 OA
ATOM     50  O1  IDY d 142       1.374   8.886  11.225  0.00  0.00    -0.363 OA
ATOM     51  C7  IDY d 142       2.482   9.739  10.599  0.00  0.00     0.007 C 
ATOM     52  OS3 IDY d 142      -1.915  10.363  11.130  0.00  0.00    -0.572 OA
ATOM     53  C4  IDY d 142       1.892   9.800  14.780  0.00  0.00     0.103 C 
ATOM     54  H   IDY d 142       0.118  10.626  11.453  0.00  0.00     0.133 H 
ATOM     55  H   IDY d 142       0.355   9.341  14.862  0.00  0.00     0.091 H 
ATOM     56  H   IDY d 142       1.703   6.977  13.672  0.00  0.00     0.210 HD
ATOM     57  H   IDY d 142      -0.413   8.239  12.679  0.00  0.00     0.097 H 
ATOM     58  H   IDY d 142       3.357  10.048  13.264  0.00  0.00     0.104 H 
ATOM     59  H   IDY d 142       3.083   9.129   9.958  0.00  0.00     0.066 H 
ATOM     60  H   IDY d 142       3.094  10.153  11.373  0.00  0.00     0.066 H 
ATOM     61  H   IDY d 142       2.043  10.531  10.030  0.00  0.00     0.066 H 
ATOM     62  H   IDY d 142       2.828   9.732  15.293  0.00  0.00     0.092 H 
ENDROOT
TORSDOF 19
ENDMDL
MODEL 19
REMARK VINA RESULT:      -6.5      2.801      6.538
REMARK  0 active torsions:
REMARK  status: ('A' for Active; 'I' for Inactive)
REMARK       I    between atoms: O3_1  and  C3_8 
REMARK       I    between atoms: O3_1  and  S3_11 
REMARK       I    between atoms: C1_2  and  O1_36 
REMARK       I    between atoms: C6_3  and  C5_27 
REMARK       I    between atoms: C6_3  and  O6_25 
REMARK       I    between atoms: O3S_4  and  S1_32 
REMARK       I    between atoms: C3_5  and  O3_9 
REMARK       I    between atoms: N_6  and  S1_32 
REMARK       I    between atoms: N_6  and  C2_39 
REMARK       I    between atoms: S_7  and  O2_30 
REMARK       I    between atoms: O4_12  and  C1_29 
REMARK       I    between atoms: O4_12  and  C4_40 
REMARK       I    between atoms: O4_13  and  C4_28 
REMARK       I    between atoms: C2_14  and  O2_30 
REMARK       I    between atoms: C6_15  and  C5_23 
REMARK       I    between atoms: S2_16  and  O6_25 
REMARK       I    between atoms: O1S_22  and  S1_32 
REMARK       I    between atoms: S1_32  and  O2S_33 
REMARK       I    between atoms: O1_36  and  C7_37 
ROOT
ATOM      1  O3  SUS d 141       1.919   8.907  13.847  0.00  0.00    -0.247 OA
ATOM      2  C6  SUS d 141       0.310   8.597  18.460  0.00  0.00     0.067 C 
ATOM      3  O3S SUS d 141       1.137  13.512  12.195  0.00  0.00    -0.296 OA
ATOM      4  N   SUS d 141       0.843  11.616  13.733  0.00  0.00    -0.210 NA
ATOM      5  C3  SUS d 141       0.938   9.397  14.731  0.00  0.00     0.107 C 
ATOM      6  O6S SUS d 141       1.157   8.892  21.749  0.00  0.00    -0.572 OA
ATOM      7  S3  SUS d 141       1.799   8.724  12.439  0.00  0.00     0.252 S 
ATOM      8  O4  SUS d 141       0.572   7.313  15.858  0.00  0.00    -0.390 OA
ATOM      9  S2  SUS d 141       1.852   9.036  20.473  0.00  0.00     0.251 S 
ATOM     10  O5  SUS d 141       0.559  10.655  17.259  0.00  0.00    -0.349 OA
ATOM     11  O8S SUS d 141       0.815   9.414  11.638  0.00  0.00    -0.572 OA
ATOM     12  O4S SUS d 141       2.400   7.770  19.995  0.00  0.00    -0.572 OA
ATOM     13  O1S SUS d 141       2.295  13.510  14.318  0.00  0.00    -0.296 OA
ATOM     14  O7S SUS d 141       1.581   7.312  12.255  0.00  0.00    -0.572 OA
ATOM     15  O6  SUS d 141       0.796   9.504  19.424  0.00  0.00    -0.254 OA
ATOM     16  C5  SUS d 141       0.166   9.308  17.122  0.00  0.00     0.090 C 
ATOM     17  C4  SUS d 141       1.018   8.637  16.051  0.00  0.00     0.090 C 
ATOM     18  C1  SUS d 141       0.287  11.404  16.096  0.00  0.00     0.150 C 
ATOM     19  O9S SUS d 141       3.131   8.985  11.938  0.00  0.00    -0.572 OA
ATOM     20  S1  SUS d 141       1.867  12.711  13.174  0.00  0.00     0.156 S 
ATOM     21  O2S SUS d 141       2.972  11.979  12.563  0.00  0.00    -0.296 OA
ATOM     22  C2  SUS d 141       1.150  10.890  14.949  0.00  0.00     0.083 C 
ATOM     23  O5S SUS d 141       2.891  10.060  20.523  0.00  0.00    -0.572 OA
ATOM     24  H   SUS d 141       0.997   7.782  18.360  0.00  0.00     0.080 H 
ATOM     25  H   SUS d 141      -0.643   8.224  18.771  0.00  0.00     0.080 H 
ATOM     26  H   SUS d 141       0.413  13.982  12.637  0.00  0.00     0.231 HD
ATOM     27  H   SUS d 141       0.725  10.921  12.996  0.00  0.00     0.140 HD
ATOM     28  H   SUS d 141      -0.037   9.250  14.314  0.00  0.00     0.092 H 
ATOM     29  H   SUS d 141       1.114   6.885  15.177  0.00  0.00     0.210 HD
ATOM     30  H   SUS d 141       1.532  13.977  14.691  0.00  0.00     0.231 HD
ATOM     31  H   SUS d 141      -0.860   9.256  16.821  0.00  0.00     0.090 H 
ATOM     32  H   SUS d 141       2.037   8.637  16.380  0.00  0.00     0.091 H 
ATOM     33  H   SUS d 141       0.509  12.435  16.275  0.00  0.00     0.131 H 
ATOM     34  H   SUS d 141       2.642  11.463  11.810  0.00  0.00     0.231 HD
ATOM     35  H   SUS d 141       2.177  11.049  15.205  0.00  0.00     0.076 H 
ATOM     36  C1  IDY d 142      -4.289  12.352  13.979  0.00  0.00     0.160 C 
ATOM     37  C3  IDY d 142      -2.506  12.885  15.514  0.00  0.00     0.094 C 
ATOM     38  S   IDY d 142      -2.191  12.522  11.646  0.00  0.00     0.252 S 
ATOM     39  O3  IDY d 142      -2.214  14.206  16.181  0.00  0.00    -0.390 OA
ATOM     40  O4  IDY d 142      -1.074  11.266  15.757  0.00  0.00    -0.348 OA
ATOM     41  C2  IDY d 142      -2.914  12.973  14.083  0.00  0.00     0.134 C 
ATOM     42  C6  IDY d 142      -3.957   9.591  16.558  0.00  0.00     0.206 C 
ATOM     43  O61 IDY d 142      -3.566   8.690  15.739  0.00  0.00    -0.646 OA
ATOM     44  O62 IDY d 142      -4.375   9.188  17.750  0.00  0.00    -0.646 OA
ATOM     45  C5  IDY d 142      -4.021  11.051  16.151  0.00  0.00     0.152 C 
ATOM     46  OS2 IDY d 142      -1.593  13.831  11.319  0.00  0.00    -0.572 OA
ATOM     47  O2  IDY d 142      -2.039  12.261  13.167  0.00  0.00    -0.244 OA
ATOM     48  OS1 IDY d 142      -1.498  11.431  10.913  0.00  0.00    -0.572 OA
ATOM     49  O5  IDY d 142      -4.479  11.151  14.769  0.00  0.00    -0.340 OA
ATOM     50  O1  IDY d 142      -5.149  13.508  14.372  0.00  0.00    -0.363 OA
ATOM     51  C7  IDY d 142      -6.392  12.697  14.750  0.00  0.00     0.007 C 
ATOM     52  OS3 IDY d 142      -3.625  12.574  11.239  0.00  0.00    -0.572 OA
ATOM     53  C4  IDY d 142      -2.633  11.655  16.367  0.00  0.00     0.103 C 
ATOM     54  H   IDY d 142      -4.513  11.958  13.010  0.00  0.00     0.133 H 
ATOM     55  H   IDY d 142      -1.656  12.287  15.259  0.00  0.00     0.091 H 
ATOM     56  H   IDY d 142      -3.049  14.666  16.368  0.00  0.00     0.210 HD
ATOM     57  H   IDY d 142      -2.879  14.004  13.801  0.00  0.00     0.097 H 
ATOM     58  H   IDY d 142      -4.723  11.601  16.743  0.00  0.00     0.104 H 
ATOM     59  H   IDY d 142      -7.166  13.361  15.075  0.00  0.00     0.066 H 
ATOM     60  H   IDY d 142      -6.149  12.019  15.541  0.00  0.00     0.066 H 
ATOM     61  H   IDY d 142      -6.731  12.145  13.899  0.00  0.00     0.066 H 
ATOM     62  H   IDY d 142      -2.716  11.460  17.416  0.00  0.00     0.092 H 
ENDROOT
TORSDOF 19
ENDMDL
MODEL 20
REMARK VINA RESULT:      -6.5      2.478      4.052
REMARK  0 active torsions:
REMARK  status: ('A' for Active; 'I' for Inactive)
REMARK       I    between atoms: O3_1  and  C3_8 
REMARK       I    between atoms: O3_1  and  S3_11 
REMARK       I    between atoms: C1_2  and  O1_36 
REMARK       I    between atoms: C6_3  and  C5_27 
REMARK       I    between atoms: C6_3  and  O6_25 
REMARK       I    between atoms: O3S_4  and  S1_32 
REMARK       I    between atoms: C3_5  and  O3_9 
REMARK       I    between atoms: N_6  and  S1_32 
REMARK       I    between atoms: N_6  and  C2_39 
REMARK       I    between atoms: S_7  and  O2_30 
REMARK       I    between atoms: O4_12  and  C1_29 
REMARK       I    between atoms: O4_12  and  C4_40 
REMARK       I    between atoms: O4_13  and  C4_28 
REMARK       I    between atoms: C2_14  and  O2_30 
REMARK       I    between atoms: C6_15  and  C5_23 
REMARK       I    between atoms: S2_16  and  O6_25 
REMARK       I    between atoms: O1S_22  and  S1_32 
REMARK       I    between atoms: S1_32  and  O2S_33 
REMARK       I    between atoms: O1_36  and  C7_37 
ROOT
ATOM      1  O3  SUS d 141       1.274   9.100  15.655  0.00  0.00    -0.247 OA
ATOM      2  C6  SUS d 141      -0.902  12.239  12.593  0.00  0.00     0.067 C 
ATOM      3  O3S SUS d 141      -1.750   8.263  19.489  0.00  0.00    -0.296 OA
ATOM      4  N   SUS d 141      -0.957   9.469  17.499  0.00  0.00    -0.210 NA
ATOM      5  C3  SUS d 141       0.395  10.199  15.609  0.00  0.00     0.107 C 
ATOM      6  O6S SUS d 141      -2.901  12.547   9.849  0.00  0.00    -0.572 OA
ATOM      7  S3  SUS d 141       2.177   8.759  16.704  0.00  0.00     0.252 S 
ATOM      8  O4  SUS d 141       1.566  11.367  13.873  0.00  0.00    -0.390 OA
ATOM      9  S2  SUS d 141      -2.350  11.438  10.622  0.00  0.00     0.251 S 
ATOM     10  O5  SUS d 141      -2.011  11.157  14.421  0.00  0.00    -0.349 OA
ATOM     11  O8S SUS d 141       2.021   9.232  18.059  0.00  0.00    -0.572 OA
ATOM     12  O4S SUS d 141      -1.026  11.040  10.152  0.00  0.00    -0.572 OA
ATOM     13  O1S SUS d 141      -2.880   7.944  17.375  0.00  0.00    -0.296 OA
ATOM     14  O7S SUS d 141       3.472   9.193  16.248  0.00  0.00    -0.572 OA
ATOM     15  O6  SUS d 141      -2.184  11.938  12.091  0.00  0.00    -0.254 OA
ATOM     16  C5  SUS d 141      -0.794  11.754  14.032  0.00  0.00     0.090 C 
ATOM     17  C4  SUS d 141       0.339  10.746  14.187  0.00  0.00     0.090 C 
ATOM     18  C1  SUS d 141      -2.027  10.843  15.795  0.00  0.00     0.150 C 
ATOM     19  O9S SUS d 141       2.215   7.312  16.675  0.00  0.00    -0.572 OA
ATOM     20  S1  SUS d 141      -1.594   8.107  18.046  0.00  0.00     0.156 S 
ATOM     21  O2S SUS d 141      -0.655   7.040  17.712  0.00  0.00    -0.296 OA
ATOM     22  C2  SUS d 141      -0.988   9.765  16.081  0.00  0.00     0.083 C 
ATOM     23  O5S SUS d 141      -3.250  10.289  10.658  0.00  0.00    -0.572 OA
ATOM     24  H   SUS d 141      -0.161  11.750  11.994  0.00  0.00     0.080 H 
ATOM     25  H   SUS d 141      -0.746  13.297  12.560  0.00  0.00     0.080 H 
ATOM     26  H   SUS d 141      -2.379   8.978  19.671  0.00  0.00     0.231 HD
ATOM     27  H   SUS d 141       0.024   9.468  17.778  0.00  0.00     0.140 HD
ATOM     28  H   SUS d 141       0.746  10.976  16.257  0.00  0.00     0.092 H 
ATOM     29  H   SUS d 141       2.287  10.726  13.971  0.00  0.00     0.210 HD
ATOM     30  H   SUS d 141      -3.470   8.672  17.625  0.00  0.00     0.231 HD
ATOM     31  H   SUS d 141      -0.585  12.597  14.657  0.00  0.00     0.090 H 
ATOM     32  H   SUS d 141       0.159   9.930  13.518  0.00  0.00     0.091 H 
ATOM     33  H   SUS d 141      -2.998  10.484  16.067  0.00  0.00     0.131 H 
ATOM     34  H   SUS d 141       0.183   7.189  18.178  0.00  0.00     0.231 HD
ATOM     35  H   SUS d 141      -1.264   8.883  15.541  0.00  0.00     0.076 H 
ATOM     36  C1  IDY d 142      -1.685  14.085  19.756  0.00  0.00     0.160 C 
ATOM     37  C3  IDY d 142      -2.960  12.877  18.102  0.00  0.00     0.094 C 
ATOM     38  S   IDY d 142      -0.602  11.322  20.788  0.00  0.00     0.252 S 
ATOM     39  O3  IDY d 142      -4.435  12.563  18.111  0.00  0.00    -0.390 OA
ATOM     40  O4  IDY d 142      -1.723  11.997  16.544  0.00  0.00    -0.348 OA
ATOM     41  C2  IDY d 142      -2.273  12.734  19.418  0.00  0.00     0.134 C 
ATOM     42  C6  IDY d 142      -0.714  15.264  16.285  0.00  0.00     0.206 C 
ATOM     43  O61 IDY d 142       0.483  14.813  16.320  0.00  0.00    -0.646 OA
ATOM     44  O62 IDY d 142      -1.002  16.146  15.337  0.00  0.00    -0.646 OA
ATOM     45  C5  IDY d 142      -1.735  14.872  17.336  0.00  0.00     0.152 C 
ATOM     46  OS2 IDY d 142      -1.542  10.384  21.434  0.00  0.00    -0.572 OA
ATOM     47  O2  IDY d 142      -1.188  11.767  19.423  0.00  0.00    -0.244 OA
ATOM     48  OS1 IDY d 142       0.708  10.665  20.542  0.00  0.00    -0.572 OA
ATOM     49  O5  IDY d 142      -1.085  14.788  18.638  0.00  0.00    -0.340 OA
ATOM     50  O1  IDY d 142      -2.869  14.762  20.364  0.00  0.00    -0.363 OA
ATOM     51  C7  IDY d 142      -2.375  16.201  20.184  0.00  0.00     0.007 C 
ATOM     52  OS3 IDY d 142      -0.424  12.478  21.712  0.00  0.00    -0.572 OA
ATOM     53  C4  IDY d 142      -2.369  13.551  16.896  0.00  0.00     0.103 C 
ATOM     54  H   IDY d 142      -0.836  14.036  20.405  0.00  0.00     0.133 H 
ATOM     55  H   IDY d 142      -2.322  12.140  17.662  0.00  0.00     0.091 H 
ATOM     56  H   IDY d 142      -4.920  13.292  18.528  0.00  0.00     0.210 HD
ATOM     57  H   IDY d 142      -2.998  12.385  20.122  0.00  0.00     0.097 H 
ATOM     58  H   IDY d 142      -2.512  15.601  17.431  0.00  0.00     0.104 H 
ATOM     59  H   IDY d 142      -3.107  16.879  20.571  0.00  0.00     0.066 H 
ATOM     60  H   IDY d 142      -2.221  16.398  19.144  0.00  0.00     0.066 H 
ATOM     61  H   IDY d 142      -1.454  16.331  20.712  0.00  0.00     0.066 H 
ATOM     62  H   IDY d 142      -2.760  14.032  16.025  0.00  0.00     0.092 H 
ENDROOT
TORSDOF 19
ENDMDL
MODEL 21
REMARK VINA RESULT:      -6.5      1.477      1.949
REMARK  0 active torsions:
REMARK  status: ('A' for Active; 'I' for Inactive)
REMARK       I    between atoms: O3_1  and  C3_8 
REMARK       I    between atoms: O3_1  and  S3_11 
REMARK       I    between atoms: C1_2  and  O1_36 
REMARK       I    between atoms: C6_3  and  C5_27 
REMARK       I    between atoms: C6_3  and  O6_25 
REMARK       I    between atoms: O3S_4  and  S1_32 
REMARK       I    between atoms: C3_5  and  O3_9 
REMARK       I    between atoms: N_6  and  S1_32 
REMARK       I    between atoms: N_6  and  C2_39 
REMARK       I    between atoms: S_7  and  O2_30 
REMARK       I    between atoms: O4_12  and  C1_29 
REMARK       I    between atoms: O4_12  and  C4_40 
REMARK       I    between atoms: O4_13  and  C4_28 
REMARK       I    between atoms: C2_14  and  O2_30 
REMARK       I    between atoms: C6_15  and  C5_23 
REMARK       I    between atoms: S2_16  and  O6_25 
REMARK       I    between atoms: O1S_22  and  S1_32 
REMARK       I    between atoms: S1_32  and  O2S_33 
REMARK       I    between atoms: O1_36  and  C7_37 
ROOT
ATOM      1  O3  SUS d 141       2.673   7.964  18.655  0.00  0.00    -0.247 OA
ATOM      2  C6  SUS d 141       3.560   9.136  13.984  0.00  0.00     0.067 C 
ATOM      3  O3S SUS d 141      -2.125   8.748  19.608  0.00  0.00    -0.296 OA
ATOM      4  N   SUS d 141      -0.049   8.957  18.308  0.00  0.00    -0.210 NA
ATOM      5  C3  SUS d 141       2.286   8.840  17.621  0.00  0.00     0.107 C 
ATOM      6  O6S SUS d 141       3.720   7.971  10.785  0.00  0.00    -0.572 OA
ATOM      7  S3  SUS d 141       2.666   8.224  20.056  0.00  0.00     0.252 S 
ATOM      8  O4  SUS d 141       4.493   9.165  16.745  0.00  0.00    -0.390 OA
ATOM      9  S2  SUS d 141       3.422   7.396  12.094  0.00  0.00     0.251 S 
ATOM     10  O5  SUS d 141       1.365   8.935  14.927  0.00  0.00    -0.349 OA
ATOM     11  O8S SUS d 141       1.855   9.256  20.659  0.00  0.00    -0.572 OA
ATOM     12  O4S SUS d 141       4.625   6.937  12.784  0.00  0.00    -0.572 OA
ATOM     13  O1S SUS d 141      -1.818   7.394  17.628  0.00  0.00    -0.296 OA
ATOM     14  O7S SUS d 141       4.036   8.504  20.399  0.00  0.00    -0.572 OA
ATOM     15  O6  SUS d 141       2.799   8.531  12.964  0.00  0.00    -0.254 OA
ATOM     16  C5  SUS d 141       2.674   9.383  15.198  0.00  0.00     0.090 C 
ATOM     17  C4  SUS d 141       3.215   8.659  16.426  0.00  0.00     0.090 C 
ATOM     18  C1  SUS d 141       0.464   9.292  15.950  0.00  0.00     0.150 C 
ATOM     19  O9S SUS d 141       2.367   6.938  20.648  0.00  0.00    -0.572 OA
ATOM     20  S1  SUS d 141      -1.187   7.955  18.818  0.00  0.00     0.156 S 
ATOM     21  O2S SUS d 141      -0.520   6.937  19.626  0.00  0.00    -0.296 OA
ATOM     22  C2  SUS d 141       0.838   8.559  17.234  0.00  0.00     0.083 C 
ATOM     23  O5S SUS d 141       2.434   6.324  12.013  0.00  0.00    -0.572 OA
ATOM     24  H   SUS d 141       4.368   8.489  14.257  0.00  0.00     0.080 H 
ATOM     25  H   SUS d 141       3.951  10.067  13.632  0.00  0.00     0.080 H 
ATOM     26  H   SUS d 141      -2.547   9.411  19.039  0.00  0.00     0.231 HD
ATOM     27  H   SUS d 141       0.541   9.167  19.114  0.00  0.00     0.140 HD
ATOM     28  H   SUS d 141       2.356   9.854  17.956  0.00  0.00     0.092 H 
ATOM     29  H   SUS d 141       4.837   8.705  17.526  0.00  0.00     0.210 HD
ATOM     30  H   SUS d 141      -2.247   8.103  17.124  0.00  0.00     0.231 HD
ATOM     31  H   SUS d 141       2.666  10.434  15.401  0.00  0.00     0.090 H 
ATOM     32  H   SUS d 141       3.279   7.615  16.202  0.00  0.00     0.091 H 
ATOM     33  H   SUS d 141      -0.530   9.020  15.661  0.00  0.00     0.131 H 
ATOM     34  H   SUS d 141      -0.116   7.354  20.403  0.00  0.00     0.231 HD
ATOM     35  H   SUS d 141       0.735   7.508  17.061  0.00  0.00     0.076 H 
ATOM     36  C1  IDY d 142      -0.848  14.015  17.464  0.00  0.00     0.160 C 
ATOM     37  C3  IDY d 142      -1.136  12.078  16.056  0.00  0.00     0.094 C 
ATOM     38  S   IDY d 142      -1.283  12.144  19.950  0.00  0.00     0.252 S 
ATOM     39  O3  IDY d 142      -2.352  11.681  15.255  0.00  0.00    -0.390 OA
ATOM     40  O4  IDY d 142       0.529  10.683  16.168  0.00  0.00    -0.348 OA
ATOM     41  C2  IDY d 142      -1.421  12.617  17.417  0.00  0.00     0.134 C 
ATOM     42  C6  IDY d 142       2.237  13.530  15.311  0.00  0.00     0.206 C 
ATOM     43  O61 IDY d 142       3.030  13.248  16.274  0.00  0.00    -0.646 OA
ATOM     44  O62 IDY d 142       2.787  13.845  14.146  0.00  0.00    -0.646 OA
ATOM     45  C5  IDY d 142       0.735  13.585  15.517  0.00  0.00     0.152 C 
ATOM     46  OS2 IDY d 142      -2.612  11.538  20.161  0.00  0.00    -0.572 OA
ATOM     47  O2  IDY d 142      -0.819  11.857  18.499  0.00  0.00    -0.244 OA
ATOM     48  OS1 IDY d 142      -0.286  11.560  20.884  0.00  0.00    -0.572 OA
ATOM     49  O5  IDY d 142       0.444  14.168  16.822  0.00  0.00    -0.340 OA
ATOM     50  O1  IDY d 142      -1.958  14.795  16.841  0.00  0.00    -0.363 OA
ATOM     51  C7  IDY d 142      -1.129  16.023  16.451  0.00  0.00     0.007 C 
ATOM     52  OS3 IDY d 142      -1.418  13.608  20.204  0.00  0.00    -0.572 OA
ATOM     53  C4  IDY d 142       0.193  12.163  15.362  0.00  0.00     0.103 C 
ATOM     54  H   IDY d 142      -0.590  14.343  18.449  0.00  0.00     0.133 H 
ATOM     55  H   IDY d 142      -0.561  11.276  16.469  0.00  0.00     0.091 H 
ATOM     56  H   IDY d 142      -2.799  12.478  14.928  0.00  0.00     0.210 HD
ATOM     57  H   IDY d 142      -2.480  12.575  17.563  0.00  0.00     0.097 H 
ATOM     58  H   IDY d 142       0.255  14.208  14.792  0.00  0.00     0.104 H 
ATOM     59  H   IDY d 142      -1.759  16.740  15.967  0.00  0.00     0.066 H 
ATOM     60  H   IDY d 142      -0.347  15.728  15.782  0.00  0.00     0.066 H 
ATOM     61  H   IDY d 142      -0.701  16.459  17.329  0.00  0.00     0.066 H 
ATOM     62  H   IDY d 142       0.523  12.152  14.344  0.00  0.00     0.092 H 
ENDROOT
TORSDOF 19
ENDMDL
MODEL 22
REMARK VINA RESULT:      -6.5      2.685      7.706
REMARK  0 active torsions:
REMARK  status: ('A' for Active; 'I' for Inactive)
REMARK       I    between atoms: O3_1  and  C3_8 
REMARK       I    between atoms: O3_1  and  S3_11 
REMARK       I    between atoms: C1_2  and  O1_36 
REMARK       I    between atoms: C6_3  and  C5_27 
REMARK       I    between atoms: C6_3  and  O6_25 
REMARK       I    between atoms: O3S_4  and  S1_32 
REMARK       I    between atoms: C3_5  and  O3_9 
REMARK       I    between atoms: N_6  and  S1_32 
REMARK       I    between atoms: N_6  and  C2_39 
REMARK       I    between atoms: S_7  and  O2_30 
REMARK       I    between atoms: O4_12  and  C1_29 
REMARK       I    between atoms: O4_12  and  C4_40 
REMARK       I    between atoms: O4_13  and  C4_28 
REMARK       I    between atoms: C2_14  and  O2_30 
REMARK       I    between atoms: C6_15  and  C5_23 
REMARK       I    between atoms: S2_16  and  O6_25 
REMARK       I    between atoms: O1S_22  and  S1_32 
REMARK       I    between atoms: S1_32  and  O2S_33 
REMARK       I    between atoms: O1_36  and  C7_37 
ROOT
ATOM      1  O3  SUS d 141      -1.107  13.670  13.836  0.00  0.00    -0.247 OA
ATOM      2  C6  SUS d 141      -3.046  14.602  18.234  0.00  0.00     0.067 C 
ATOM      3  O3S SUS d 141      -1.501   8.818  12.920  0.00  0.00    -0.296 OA
ATOM      4  N   SUS d 141      -1.529  10.827  14.336  0.00  0.00    -0.210 NA
ATOM      5  C3  SUS d 141      -1.300  13.122  15.120  0.00  0.00     0.107 C 
ATOM      6  O6S SUS d 141      -5.873  15.489  19.919  0.00  0.00    -0.572 OA
ATOM      7  S3  SUS d 141      -0.021  13.426  12.947  0.00  0.00     0.252 S 
ATOM      8  O4  SUS d 141      -0.932  15.169  16.311  0.00  0.00    -0.390 OA
ATOM      9  S2  SUS d 141      -5.516  15.265  18.521  0.00  0.00     0.251 S 
ATOM     10  O5  SUS d 141      -3.282  12.518  17.075  0.00  0.00    -0.349 OA
ATOM     11  O8S SUS d 141       0.820  12.254  13.036  0.00  0.00    -0.572 OA
ATOM     12  O4S SUS d 141      -4.994  16.470  17.884  0.00  0.00    -0.572 OA
ATOM     13  O1S SUS d 141      -3.619   9.775  13.587  0.00  0.00    -0.296 OA
ATOM     14  O7S SUS d 141       0.839  14.575  13.069  0.00  0.00    -0.572 OA
ATOM     15  O6  SUS d 141      -4.371  14.205  18.503  0.00  0.00    -0.254 OA
ATOM     16  C5  SUS d 141      -2.374  13.561  17.349  0.00  0.00     0.090 C 
ATOM     17  C4  SUS d 141      -1.900  14.180  16.039  0.00  0.00     0.090 C 
ATOM     18  C1  SUS d 141      -2.664  11.445  16.401  0.00  0.00     0.150 C 
ATOM     19  O9S SUS d 141      -0.618  13.519  11.632  0.00  0.00    -0.572 OA
ATOM     20  S1  SUS d 141      -2.255  10.047  13.143  0.00  0.00     0.156 S 
ATOM     21  O2S SUS d 141      -2.216  10.929  11.980  0.00  0.00    -0.296 OA
ATOM     22  C2  SUS d 141      -2.213  11.906  15.020  0.00  0.00     0.083 C 
ATOM     23  O5S SUS d 141      -6.625  14.713  17.750  0.00  0.00    -0.572 OA
ATOM     24  H   SUS d 141      -3.052  15.547  17.732  0.00  0.00     0.080 H 
ATOM     25  H   SUS d 141      -2.507  14.690  19.154  0.00  0.00     0.080 H 
ATOM     26  H   SUS d 141      -1.550   8.260  13.712  0.00  0.00     0.231 HD
ATOM     27  H   SUS d 141      -0.670  11.221  13.950  0.00  0.00     0.140 HD
ATOM     28  H   SUS d 141      -0.362  12.809  15.529  0.00  0.00     0.092 H 
ATOM     29  H   SUS d 141      -0.629  15.564  15.478  0.00  0.00     0.210 HD
ATOM     30  H   SUS d 141      -3.597   9.188  14.358  0.00  0.00     0.231 HD
ATOM     31  H   SUS d 141      -1.522  13.176  17.870  0.00  0.00     0.090 H 
ATOM     32  H   SUS d 141      -2.743  14.617  15.547  0.00  0.00     0.091 H 
ATOM     33  H   SUS d 141      -3.360  10.639  16.300  0.00  0.00     0.131 H 
ATOM     34  H   SUS d 141      -1.293  11.082  11.721  0.00  0.00     0.231 HD
ATOM     35  H   SUS d 141      -3.082  12.184  14.460  0.00  0.00     0.076 H 
ATOM     36  C1  IDY d 142       1.145   8.458  18.101  0.00  0.00     0.160 C 
ATOM     37  C3  IDY d 142      -1.196   8.994  17.876  0.00  0.00     0.094 C 
ATOM     38  S   IDY d 142       1.332   8.418  14.964  0.00  0.00     0.252 S 
ATOM     39  O3  IDY d 142      -2.382   8.078  18.046  0.00  0.00    -0.390 OA
ATOM     40  O4  IDY d 142      -1.544  11.011  17.139  0.00  0.00    -0.348 OA
ATOM     41  C2  IDY d 142      -0.033   8.400  17.155  0.00  0.00     0.134 C 
ATOM     42  C6  IDY d 142       0.412  11.736  19.861  0.00  0.00     0.206 C 
ATOM     43  O61 IDY d 142       1.100  12.470  19.071  0.00  0.00    -0.646 OA
ATOM     44  O62 IDY d 142       0.051  12.268  21.021  0.00  0.00    -0.646 OA
ATOM     45  C5  IDY d 142       0.097  10.291  19.522  0.00  0.00     0.152 C 
ATOM     46  OS2 IDY d 142       0.621   7.359  14.222  0.00  0.00    -0.572 OA
ATOM     47  O2  IDY d 142       0.341   9.104  15.941  0.00  0.00    -0.244 OA
ATOM     48  OS1 IDY d 142       1.858   9.448  14.032  0.00  0.00    -0.572 OA
ATOM     49  O5  IDY d 142       1.252   9.682  18.871  0.00  0.00    -0.340 OA
ATOM     50  O1  IDY d 142       0.919   7.223  18.908  0.00  0.00    -0.363 OA
ATOM     51  C7  IDY d 142       1.779   7.623  20.111  0.00  0.00     0.007 C 
ATOM     52  OS3 IDY d 142       2.460   7.769  15.693  0.00  0.00    -0.572 OA
ATOM     53  C4  IDY d 142      -1.157  10.283  18.648  0.00  0.00     0.103 C 
ATOM     54  H   IDY d 142       2.094   8.482  17.607  0.00  0.00     0.133 H 
ATOM     55  H   IDY d 142      -1.293   9.760  17.135  0.00  0.00     0.091 H 
ATOM     56  H   IDY d 142      -2.190   7.426  18.738  0.00  0.00     0.210 HD
ATOM     57  H   IDY d 142      -0.310   7.409  16.863  0.00  0.00     0.097 H 
ATOM     58  H   IDY d 142      -0.100   9.709  20.397  0.00  0.00     0.104 H 
ATOM     59  H   IDY d 142       1.754   6.843  20.842  0.00  0.00     0.066 H 
ATOM     60  H   IDY d 142       1.395   8.526  20.539  0.00  0.00     0.066 H 
ATOM     61  H   IDY d 142       2.787   7.782  19.791  0.00  0.00     0.066 H 
ATOM     62  H   IDY d 142      -1.719  10.704  19.455  0.00  0.00     0.092 H 
ENDROOT
TORSDOF 19
ENDMDL
MODEL 23
REMARK VINA RESULT:      -6.4      2.297      6.993
REMARK  0 active torsions:
REMARK  status: ('A' for Active; 'I' for Inactive)
REMARK       I    between atoms: O3_1  and  C3_8 
REMARK       I    between atoms: O3_1  and  S3_11 
REMARK       I    between atoms: C1_2  and  O1_36 
REMARK       I    between atoms: C6_3  and  C5_27 
REMARK       I    between atoms: C6_3  and  O6_25 
REMARK       I    between atoms: O3S_4  and  S1_32 
REMARK       I    between atoms: C3_5  and  O3_9 
REMARK       I    between atoms: N_6  and  S1_32 
REMARK       I    between atoms: N_6  and  C2_39 
REMARK       I    between atoms: S_7  and  O2_30 
REMARK       I    between atoms: O4_12  and  C1_29 
REMARK       I    between atoms: O4_12  and  C4_40 
REMARK       I    between atoms: O4_13  and  C4_28 
REMARK       I    between atoms: C2_14  and  O2_30 
REMARK       I    between atoms: C6_15  and  C5_23 
REMARK       I    between atoms: S2_16  and  O6_25 
REMARK       I    between atoms: O1S_22  and  S1_32 
REMARK       I    between atoms: S1_32  and  O2S_33 
REMARK       I    between atoms: O1_36  and  C7_37 
ROOT
ATOM      1  O3  SUS d 141      -1.140   8.829  19.120  0.00  0.00    -0.247 OA
ATOM      2  C6  SUS d 141      -1.546  13.709  19.136  0.00  0.00     0.067 C 
ATOM      3  O3S SUS d 141       3.656   7.633  18.781  0.00  0.00    -0.296 OA
ATOM      4  N   SUS d 141       1.722   9.144  18.643  0.00  0.00    -0.210 NA
ATOM      5  C3  SUS d 141      -0.556  10.009  18.617  0.00  0.00     0.107 C 
ATOM      6  O6S SUS d 141      -1.698  16.501  21.085  0.00  0.00    -0.572 OA
ATOM      7  S3  SUS d 141      -1.175   7.548  18.497  0.00  0.00     0.252 S 
ATOM      8  O4  SUS d 141      -2.626  11.156  18.237  0.00  0.00    -0.390 OA
ATOM      9  S2  SUS d 141      -1.575  15.066  21.322  0.00  0.00     0.251 S 
ATOM     10  O5  SUS d 141       0.528  12.531  19.378  0.00  0.00    -0.349 OA
ATOM     11  O8S SUS d 141      -0.248   7.152  17.463  0.00  0.00    -0.572 OA
ATOM     12  O4S SUS d 141      -2.875  14.405  21.407  0.00  0.00    -0.572 OA
ATOM     13  O1S SUS d 141       3.256   9.220  20.561  0.00  0.00    -0.296 OA
ATOM     14  O7S SUS d 141      -2.500   7.428  17.948  0.00  0.00    -0.572 OA
ATOM     15  O6  SUS d 141      -0.831  14.458  20.092  0.00  0.00    -0.254 OA
ATOM     16  C5  SUS d 141      -0.707  12.516  18.696  0.00  0.00     0.090 C 
ATOM     17  C4  SUS d 141      -1.429  11.204  18.981  0.00  0.00     0.090 C 
ATOM     18  C1  SUS d 141       1.411  11.549  18.888  0.00  0.00     0.150 C 
ATOM     19  O9S SUS d 141      -1.122   6.620  19.605  0.00  0.00    -0.572 OA
ATOM     20  S1  SUS d 141       2.652   8.283  19.619  0.00  0.00     0.156 S 
ATOM     21  O2S SUS d 141       1.784   7.312  20.280  0.00  0.00    -0.296 OA
ATOM     22  C2  SUS d 141       0.848  10.164  19.189  0.00  0.00     0.083 C 
ATOM     23  O5S SUS d 141      -0.769  14.769  22.502  0.00  0.00    -0.572 OA
ATOM     24  H   SUS d 141      -2.462  13.361  19.567  0.00  0.00     0.080 H 
ATOM     25  H   SUS d 141      -1.761  14.325  18.289  0.00  0.00     0.080 H 
ATOM     26  H   SUS d 141       4.212   8.308  18.360  0.00  0.00     0.231 HD
ATOM     27  H   SUS d 141       1.126   8.483  18.145  0.00  0.00     0.140 HD
ATOM     28  H   SUS d 141      -0.483   9.955  17.550  0.00  0.00     0.092 H 
ATOM     29  H   SUS d 141      -3.086  10.321  18.418  0.00  0.00     0.210 HD
ATOM     30  H   SUS d 141       3.822   9.843  20.081  0.00  0.00     0.231 HD
ATOM     31  H   SUS d 141      -0.542  12.590  17.642  0.00  0.00     0.090 H 
ATOM     32  H   SUS d 141      -1.645  11.158  20.028  0.00  0.00     0.091 H 
ATOM     33  H   SUS d 141       2.364  11.657  19.361  0.00  0.00     0.131 H 
ATOM     34  H   SUS d 141       1.406   6.713  19.617  0.00  0.00     0.231 HD
ATOM     35  H   SUS d 141       0.792  10.050  20.251  0.00  0.00     0.076 H 
ATOM     36  C1  IDY d 142       3.369  11.174  14.160  0.00  0.00     0.160 C 
ATOM     37  C3  IDY d 142       3.428  12.002  16.425  0.00  0.00     0.094 C 
ATOM     38  S   IDY d 142       3.349   8.260  15.335  0.00  0.00     0.252 S 
ATOM     39  O3  IDY d 142       4.610  12.547  17.187  0.00  0.00    -0.390 OA
ATOM     40  O4  IDY d 142       1.557  11.702  17.494  0.00  0.00    -0.348 OA
ATOM     41  C2  IDY d 142       3.713  10.803  15.584  0.00  0.00     0.134 C 
ATOM     42  C6  IDY d 142       0.381  13.428  14.774  0.00  0.00     0.206 C 
ATOM     43  O61 IDY d 142      -0.503  12.509  14.674  0.00  0.00    -0.646 OA
ATOM     44  O62 IDY d 142      -0.040  14.684  14.711  0.00  0.00    -0.646 OA
ATOM     45  C5  IDY d 142       1.857  13.094  14.874  0.00  0.00     0.152 C 
ATOM     46  OS2 IDY d 142       4.549   7.768  16.040  0.00  0.00    -0.572 OA
ATOM     47  O2  IDY d 142       2.934   9.628  15.935  0.00  0.00    -0.244 OA
ATOM     48  OS1 IDY d 142       2.217   7.312  15.503  0.00  0.00    -0.572 OA
ATOM     49  O5  IDY d 142       2.159  11.960  14.008  0.00  0.00    -0.340 OA
ATOM     50  O1  IDY d 142       4.625  11.862  13.738  0.00  0.00    -0.363 OA
ATOM     51  C7  IDY d 142       4.028  12.635  12.557  0.00  0.00     0.007 C 
ATOM     52  OS3 IDY d 142       3.701   8.379  13.890  0.00  0.00    -0.572 OA
ATOM     53  C4  IDY d 142       2.173  12.824  16.346  0.00  0.00     0.103 C 
ATOM     54  H   IDY d 142       3.109  10.337  13.546  0.00  0.00     0.133 H 
ATOM     55  H   IDY d 142       2.707  11.457  16.998  0.00  0.00     0.091 H 
ATOM     56  H   IDY d 142       5.197  13.022  16.577  0.00  0.00     0.210 HD
ATOM     57  H   IDY d 142       4.741  10.545  15.732  0.00  0.00     0.097 H 
ATOM     58  H   IDY d 142       2.474  13.902  14.542  0.00  0.00     0.104 H 
ATOM     59  H   IDY d 142       4.793  13.220  12.092  0.00  0.00     0.066 H 
ATOM     60  H   IDY d 142       3.251  13.280  12.910  0.00  0.00     0.066 H 
ATOM     61  H   IDY d 142       3.624  11.945  11.847  0.00  0.00     0.066 H 
ATOM     62  H   IDY d 142       1.907  13.832  16.585  0.00  0.00     0.092 H 
ENDROOT
TORSDOF 19
ENDMDL
MODEL 24
REMARK VINA RESULT:      -6.4      2.807      6.452
REMARK  0 active torsions:
REMARK  status: ('A' for Active; 'I' for Inactive)
REMARK       I    between atoms: O3_1  and  C3_8 
REMARK       I    between atoms: O3_1  and  S3_11 
REMARK       I    between atoms: C1_2  and  O1_36 
REMARK       I    between atoms: C6_3  and  C5_27 
REMARK       I    between atoms: C6_3  and  O6_25 
REMARK       I    between atoms: O3S_4  and  S1_32 
REMARK       I    between atoms: C3_5  and  O3_9 
REMARK       I    between atoms: N_6  and  S1_32 
REMARK       I    between atoms: N_6  and  C2_39 
REMARK       I    between atoms: S_7  and  O2_30 
REMARK       I    between atoms: O4_12  and  C1_29 
REMARK       I    between atoms: O4_12  and  C4_40 
REMARK       I    between atoms: O4_13  and  C4_28 
REMARK       I    between atoms: C2_14  and  O2_30 
REMARK       I    between atoms: C6_15  and  C5_23 
REMARK       I    between atoms: S2_16  and  O6_25 
REMARK       I    between atoms: O1S_22  and  S1_32 
REMARK       I    between atoms: S1_32  and  O2S_33 
REMARK       I    between atoms: O1_36  and  C7_37 
ROOT
ATOM      1  O3  SUS d 141       2.012  10.025  13.457  0.00  0.00    -0.247 OA
ATOM      2  C6  SUS d 141       0.566   8.136  17.736  0.00  0.00     0.067 C 
ATOM      3  O3S SUS d 141       0.754  14.815  13.327  0.00  0.00    -0.296 OA
ATOM      4  N   SUS d 141       0.682  12.515  14.193  0.00  0.00    -0.210 NA
ATOM      5  C3  SUS d 141       1.014  10.116  14.447  0.00  0.00     0.107 C 
ATOM      6  O6S SUS d 141       1.471   7.472  20.955  0.00  0.00    -0.572 OA
ATOM      7  S3  SUS d 141       1.872  10.279  12.062  0.00  0.00     0.252 S 
ATOM      8  O4  SUS d 141       0.878   7.759  14.864  0.00  0.00    -0.390 OA
ATOM      9  S2  SUS d 141       2.114   8.075  19.791  0.00  0.00     0.251 S 
ATOM     10  O5  SUS d 141       0.587  10.480  17.240  0.00  0.00    -0.349 OA
ATOM     11  O8S SUS d 141       0.805  11.085  11.514  0.00  0.00    -0.572 OA
ATOM     12  O4S SUS d 141       2.766   7.081  18.943  0.00  0.00    -0.572 OA
ATOM     13  O1S SUS d 141       1.964  14.265  15.347  0.00  0.00    -0.296 OA
ATOM     14  O7S SUS d 141       1.783   8.981  11.445  0.00  0.00    -0.572 OA
ATOM     15  O6  SUS d 141       0.990   8.740  18.937  0.00  0.00    -0.254 OA
ATOM     16  C5  SUS d 141       0.319   9.211  16.687  0.00  0.00     0.090 C 
ATOM     17  C4  SUS d 141       1.202   8.994  15.463  0.00  0.00     0.090 C 
ATOM     18  C1  SUS d 141       0.214  11.523  16.369  0.00  0.00     0.150 C 
ATOM     19  O9S SUS d 141       3.159  10.813  11.673  0.00  0.00    -0.572 OA
ATOM     20  S1  SUS d 141       1.582  13.825  14.009  0.00  0.00     0.156 S 
ATOM     21  O2S SUS d 141       2.735  13.432  13.203  0.00  0.00    -0.296 OA
ATOM     22  C2  SUS d 141       1.089  11.480  15.122  0.00  0.00     0.083 C 
ATOM     23  O5S SUS d 141       3.052   9.129  20.163  0.00  0.00    -0.572 OA
ATOM     24  H   SUS d 141       1.324   7.464  17.388  0.00  0.00     0.080 H 
ATOM     25  H   SUS d 141      -0.339   7.593  17.911  0.00  0.00     0.080 H 
ATOM     26  H   SUS d 141       0.001  15.050  13.891  0.00  0.00     0.231 HD
ATOM     27  H   SUS d 141       0.610  12.076  13.275  0.00  0.00     0.140 HD
ATOM     28  H   SUS d 141       0.046  10.011  14.001  0.00  0.00     0.092 H 
ATOM     29  H   SUS d 141       1.439   7.620  14.085  0.00  0.00     0.210 HD
ATOM     30  H   SUS d 141       1.171  14.515  15.845  0.00  0.00     0.231 HD
ATOM     31  H   SUS d 141      -0.705   9.154  16.381  0.00  0.00     0.090 H 
ATOM     32  H   SUS d 141       2.224   8.992  15.779  0.00  0.00     0.091 H 
ATOM     33  H   SUS d 141       0.341  12.464  16.863  0.00  0.00     0.131 H 
ATOM     34  H   SUS d 141       2.435  13.147  12.326  0.00  0.00     0.231 HD
ATOM     35  H   SUS d 141       2.103  11.652  15.419  0.00  0.00     0.076 H 
ATOM     36  C1  IDY d 142      -4.488  12.629  14.638  0.00  0.00     0.160 C 
ATOM     37  C3  IDY d 142      -2.722  12.829  16.269  0.00  0.00     0.094 C 
ATOM     38  S   IDY d 142      -2.480  13.723  12.483  0.00  0.00     0.252 S 
ATOM     39  O3  IDY d 142      -2.539  13.899  17.317  0.00  0.00    -0.390 OA
ATOM     40  O4  IDY d 142      -1.137  11.364  15.998  0.00  0.00    -0.348 OA
ATOM     41  C2  IDY d 142      -3.176  13.318  14.935  0.00  0.00     0.134 C 
ATOM     42  C6  IDY d 142      -3.826   9.249  16.224  0.00  0.00     0.206 C 
ATOM     43  O61 IDY d 142      -3.374   8.690  15.166  0.00  0.00    -0.646 OA
ATOM     44  O62 IDY d 142      -4.171   8.454  17.229  0.00  0.00    -0.646 OA
ATOM     45  C5  IDY d 142      -4.039  10.749  16.294  0.00  0.00     0.152 C 
ATOM     46  OS2 IDY d 142      -2.017  15.121  12.585  0.00  0.00    -0.572 OA
ATOM     47  O2  IDY d 142      -2.262  13.017  13.846  0.00  0.00    -0.244 OA
ATOM     48  OS1 IDY d 142      -1.707  12.989  11.448  0.00  0.00    -0.572 OA
ATOM     49  O5  IDY d 142      -4.541  11.229  15.012  0.00  0.00    -0.340 OA
ATOM     50  O1  IDY d 142      -5.442  13.514  15.369  0.00  0.00    -0.363 OA
ATOM     51  C7  IDY d 142      -6.593  12.508  15.470  0.00  0.00     0.007 C 
ATOM     52  OS3 IDY d 142      -3.923  13.759  12.107  0.00  0.00    -0.572 OA
ATOM     53  C4  IDY d 142      -2.709  11.388  16.694  0.00  0.00     0.103 C 
ATOM     54  H   IDY d 142      -4.700  12.537  13.593  0.00  0.00     0.133 H 
ATOM     55  H   IDY d 142      -1.827  12.427  15.843  0.00  0.00     0.091 H 
ATOM     56  H   IDY d 142      -3.407  14.193  17.635  0.00  0.00     0.210 HD
ATOM     57  H   IDY d 142      -3.245  14.384  14.991  0.00  0.00     0.097 H 
ATOM     58  H   IDY d 142      -4.773  11.015  17.026  0.00  0.00     0.104 H 
ATOM     59  H   IDY d 142      -7.416  12.958  15.984  0.00  0.00     0.066 H 
ATOM     60  H   IDY d 142      -6.265  11.644  16.010  0.00  0.00     0.066 H 
ATOM     61  H   IDY d 142      -6.900  12.218  14.487  0.00  0.00     0.066 H 
ATOM     62  H   IDY d 142      -2.744  10.870  17.629  0.00  0.00     0.092 H 
ENDROOT
TORSDOF 19
ENDMDL
MODEL 25
REMARK VINA RESULT:      -6.4      3.040      6.291
REMARK  0 active torsions:
REMARK  status: ('A' for Active; 'I' for Inactive)
REMARK       I    between atoms: O3_1  and  C3_8 
REMARK       I    between atoms: O3_1  and  S3_11 
REMARK       I    between atoms: C1_2  and  O1_36 
REMARK       I    between atoms: C6_3  and  C5_27 
REMARK       I    between atoms: C6_3  and  O6_25 
REMARK       I    between atoms: O3S_4  and  S1_32 
REMARK       I    between atoms: C3_5  and  O3_9 
REMARK       I    between atoms: N_6  and  S1_32 
REMARK       I    between atoms: N_6  and  C2_39 
REMARK       I    between atoms: S_7  and  O2_30 
REMARK       I    between atoms: O4_12  and  C1_29 
REMARK       I    between atoms: O4_12  and  C4_40 
REMARK       I    between atoms: O4_13  and  C4_28 
REMARK       I    between atoms: C2_14  and  O2_30 
REMARK       I    between atoms: C6_15  and  C5_23 
REMARK       I    between atoms: S2_16  and  O6_25 
REMARK       I    between atoms: O1S_22  and  S1_32 
REMARK       I    between atoms: S1_32  and  O2S_33 
REMARK       I    between atoms: O1_36  and  C7_37 
ROOT
ATOM      1  O3  SUS d 141      -2.952  13.686  17.889  0.00  0.00    -0.247 OA
ATOM      2  C6  SUS d 141       0.274  10.010  18.129  0.00  0.00     0.067 C 
ATOM      3  O3S SUS d 141      -6.230  12.693  14.310  0.00  0.00    -0.296 OA
ATOM      4  N   SUS d 141      -4.125  12.403  15.546  0.00  0.00    -0.210 NA
ATOM      5  C3  SUS d 141      -2.283  12.723  17.108  0.00  0.00     0.107 C 
ATOM      6  O6S SUS d 141       1.017   7.026  19.598  0.00  0.00    -0.572 OA
ATOM      7  S3  SUS d 141      -3.381  14.982  17.482  0.00  0.00     0.252 S 
ATOM      8  O4  SUS d 141      -0.193  12.883  18.269  0.00  0.00    -0.390 OA
ATOM      9  S2  SUS d 141      -0.066   8.000  19.698  0.00  0.00     0.251 S 
ATOM     10  O5  SUS d 141      -1.762   9.932  16.867  0.00  0.00    -0.349 OA
ATOM     11  O8S SUS d 141      -3.588  15.343  16.099  0.00  0.00    -0.572 OA
ATOM     12  O4S SUS d 141       0.220   9.048  20.674  0.00  0.00    -0.572 OA
ATOM     13  O1S SUS d 141      -5.998  10.840  15.845  0.00  0.00    -0.296 OA
ATOM     14  O7S SUS d 141      -2.402  15.893  18.016  0.00  0.00    -0.572 OA
ATOM     15  O6  SUS d 141      -0.192   8.692  18.306  0.00  0.00    -0.254 OA
ATOM     16  C5  SUS d 141      -0.697  10.777  17.242  0.00  0.00     0.090 C 
ATOM     17  C4  SUS d 141      -1.250  12.001  17.965  0.00  0.00     0.090 C 
ATOM     18  C1  SUS d 141      -2.602  10.537  15.910  0.00  0.00     0.150 C 
ATOM     19  O9S SUS d 141      -4.587  15.208  18.249  0.00  0.00    -0.572 OA
ATOM     20  S1  SUS d 141      -5.717  12.251  15.603  0.00  0.00     0.156 S 
ATOM     21  O2S SUS d 141      -6.181  13.105  16.693  0.00  0.00    -0.296 OA
ATOM     22  C2  SUS d 141      -3.298  11.740  16.534  0.00  0.00     0.083 C 
ATOM     23  O5S SUS d 141      -1.351   7.368  19.983  0.00  0.00    -0.572 OA
ATOM     24  H   SUS d 141       0.346  10.494  19.082  0.00  0.00     0.080 H 
ATOM     25  H   SUS d 141       1.238   9.988  17.666  0.00  0.00     0.080 H 
ATOM     26  H   SUS d 141      -5.901  12.104  13.613  0.00  0.00     0.231 HD
ATOM     27  H   SUS d 141      -3.922  13.400  15.612  0.00  0.00     0.140 HD
ATOM     28  H   SUS d 141      -1.776  13.199  16.295  0.00  0.00     0.092 H 
ATOM     29  H   SUS d 141      -0.544  13.662  18.729  0.00  0.00     0.210 HD
ATOM     30  H   SUS d 141      -5.673  10.312  15.099  0.00  0.00     0.231 HD
ATOM     31  H   SUS d 141      -0.170  11.108  16.371  0.00  0.00     0.090 H 
ATOM     32  H   SUS d 141      -1.727  11.674  18.866  0.00  0.00     0.091 H 
ATOM     33  H   SUS d 141      -3.335   9.830  15.582  0.00  0.00     0.131 H 
ATOM     34  H   SUS d 141      -5.974  14.031  16.490  0.00  0.00     0.231 HD
ATOM     35  H   SUS d 141      -3.916  11.391  17.335  0.00  0.00     0.076 H 
ATOM     36  C1  IDY d 142      -1.366  12.045  11.164  0.00  0.00     0.160 C 
ATOM     37  C3  IDY d 142      -2.126  10.378  12.734  0.00  0.00     0.094 C 
ATOM     38  S   IDY d 142      -3.790  13.837  12.051  0.00  0.00     0.252 S 
ATOM     39  O3  IDY d 142      -2.878   9.102  12.448  0.00  0.00    -0.390 OA
ATOM     40  O4  IDY d 142      -1.830  10.960  14.809  0.00  0.00    -0.348 OA
ATOM     41  C2  IDY d 142      -2.567  11.566  11.947  0.00  0.00     0.134 C 
ATOM     42  C6  IDY d 142       1.385  11.299  13.665  0.00  0.00     0.206 C 
ATOM     43  O61 IDY d 142       1.377  12.450  14.222  0.00  0.00    -0.646 OA
ATOM     44  O62 IDY d 142       2.433  10.520  13.900  0.00  0.00    -0.646 OA
ATOM     45  C5  IDY d 142       0.285  10.877  12.710  0.00  0.00     0.152 C 
ATOM     46  OS2 IDY d 142      -5.160  13.395  11.724  0.00  0.00    -0.572 OA
ATOM     47  O2  IDY d 142      -3.039  12.677  12.756  0.00  0.00    -0.244 OA
ATOM     48  OS1 IDY d 142      -3.821  15.002  12.973  0.00  0.00    -0.572 OA
ATOM     49  O5  IDY d 142      -0.112  12.017  11.892  0.00  0.00    -0.340 OA
ATOM     50  O1  IDY d 142      -1.427  11.142   9.977  0.00  0.00    -0.363 OA
ATOM     51  C7  IDY d 142       0.032  11.307   9.541  0.00  0.00     0.007 C 
ATOM     52  OS3 IDY d 142      -3.129  14.221  10.771  0.00  0.00    -0.572 OA
ATOM     53  C4  IDY d 142      -0.863  10.310  13.545  0.00  0.00     0.103 C 
ATOM     54  H   IDY d 142      -1.399  13.085  10.916  0.00  0.00     0.133 H 
ATOM     55  H   IDY d 142      -2.365  10.870  13.654  0.00  0.00     0.091 H 
ATOM     56  H   IDY d 142      -2.587   8.740  11.596  0.00  0.00     0.210 HD
ATOM     57  H   IDY d 142      -3.391  11.258  11.338  0.00  0.00     0.097 H 
ATOM     58  H   IDY d 142       0.614  10.117  12.032  0.00  0.00     0.104 H 
ATOM     59  H   IDY d 142       0.212  10.717   8.667  0.00  0.00     0.066 H 
ATOM     60  H   IDY d 142       0.679  10.982  10.329  0.00  0.00     0.066 H 
ATOM     61  H   IDY d 142       0.225  12.336   9.322  0.00  0.00     0.066 H 
ATOM     62  H   IDY d 142      -0.221   9.527  13.890  0.00  0.00     0.092 H 
ENDROOT
TORSDOF 19
ENDMDL
MODEL 26
REMARK VINA RESULT:      -6.4      3.125      7.948
REMARK  0 active torsions:
REMARK  status: ('A' for Active; 'I' for Inactive)
REMARK       I    between atoms: O3_1  and  C3_8 
REMARK       I    between atoms: O3_1  and  S3_11 
REMARK       I    between atoms: C1_2  and  O1_36 
REMARK       I    between atoms: C6_3  and  C5_27 
REMARK       I    between atoms: C6_3  and  O6_25 
REMARK       I    between atoms: O3S_4  and  S1_32 
REMARK       I    between atoms: C3_5  and  O3_9 
REMARK       I    between atoms: N_6  and  S1_32 
REMARK       I    between atoms: N_6  and  C2_39 
REMARK       I    between atoms: S_7  and  O2_30 
REMARK       I    between atoms: O4_12  and  C1_29 
REMARK       I    between atoms: O4_12  and  C4_40 
REMARK       I    between atoms: O4_13  and  C4_28 
REMARK       I    between atoms: C2_14  and  O2_30 
REMARK       I    between atoms: C6_15  and  C5_23 
REMARK       I    between atoms: S2_16  and  O6_25 
REMARK       I    between atoms: O1S_22  and  S1_32 
REMARK       I    between atoms: S1_32  and  O2S_33 
REMARK       I    between atoms: O1_36  and  C7_37 
ROOT
ATOM      1  O3  SUS d 141      -2.137  13.365  16.187  0.00  0.00    -0.247 OA
ATOM      2  C6  SUS d 141      -2.049  15.216  20.719  0.00  0.00     0.067 C 
ATOM      3  O3S SUS d 141      -2.676   8.449  16.487  0.00  0.00    -0.296 OA
ATOM      4  N   SUS d 141      -2.183  10.694  17.360  0.00  0.00    -0.210 NA
ATOM      5  C3  SUS d 141      -1.740  13.084  17.509  0.00  0.00     0.107 C 
ATOM      6  O6S SUS d 141      -3.920  16.538  23.242  0.00  0.00    -0.572 OA
ATOM      7  S3  SUS d 141      -1.526  12.904  14.985  0.00  0.00     0.252 S 
ATOM      8  O4  SUS d 141      -0.986  15.305  18.007  0.00  0.00    -0.390 OA
ATOM      9  S2  SUS d 141      -4.185  16.032  21.898  0.00  0.00     0.251 S 
ATOM     10  O5  SUS d 141      -2.668  12.960  20.200  0.00  0.00    -0.349 OA
ATOM     11  O8S SUS d 141      -0.678  11.735  14.932  0.00  0.00    -0.572 OA
ATOM     12  O4S SUS d 141      -4.038  17.067  20.879  0.00  0.00    -0.572 OA
ATOM     13  O1S SUS d 141      -4.345   9.611  17.795  0.00  0.00    -0.296 OA
ATOM     14  O7S SUS d 141      -0.747  14.015  14.503  0.00  0.00    -0.572 OA
ATOM     15  O6  SUS d 141      -3.113  14.938  21.599  0.00  0.00    -0.254 OA
ATOM     16  C5  SUS d 141      -1.775  13.994  19.852  0.00  0.00     0.090 C 
ATOM     17  C4  SUS d 141      -1.933  14.326  18.372  0.00  0.00     0.090 C 
ATOM     18  C1  SUS d 141      -2.351  11.751  19.549  0.00  0.00     0.150 C 
ATOM     19  O9S SUS d 141      -2.631  12.768  14.061  0.00  0.00    -0.572 OA
ATOM     20  S1  SUS d 141      -3.315   9.731  16.768  0.00  0.00     0.156 S 
ATOM     21  O2S SUS d 141      -3.815  10.369  15.553  0.00  0.00    -0.296 OA
ATOM     22  C2  SUS d 141      -2.555  11.914  18.047  0.00  0.00     0.083 C 
ATOM     23  O5S SUS d 141      -5.493  15.392  21.798  0.00  0.00    -0.572 OA
ATOM     24  H   SUS d 141      -2.310  16.046  20.094  0.00  0.00     0.080 H 
ATOM     25  H   SUS d 141      -1.172  15.456  21.283  0.00  0.00     0.080 H 
ATOM     26  H   SUS d 141      -2.358   8.058  17.316  0.00  0.00     0.231 HD
ATOM     27  H   SUS d 141      -1.589  10.966  16.576  0.00  0.00     0.140 HD
ATOM     28  H   SUS d 141      -0.704  12.815  17.531  0.00  0.00     0.092 H 
ATOM     29  H   SUS d 141      -1.086  15.516  17.066  0.00  0.00     0.210 HD
ATOM     30  H   SUS d 141      -3.971   9.185  18.581  0.00  0.00     0.231 HD
ATOM     31  H   SUS d 141      -0.767  13.679  20.022  0.00  0.00     0.090 H 
ATOM     32  H   SUS d 141      -2.925  14.697  18.213  0.00  0.00     0.091 H 
ATOM     33  H   SUS d 141      -2.989  10.972  19.913  0.00  0.00     0.131 H 
ATOM     34  H   SUS d 141      -3.099  10.428  14.900  0.00  0.00     0.231 HD
ATOM     35  H   SUS d 141      -3.590  12.117  17.870  0.00  0.00     0.076 H 
ATOM     36  C1  IDY d 142       1.943   8.980  20.002  0.00  0.00     0.160 C 
ATOM     37  C3  IDY d 142      -0.290   9.568  20.699  0.00  0.00     0.094 C 
ATOM     38  S   IDY d 142       0.772   8.326  17.160  0.00  0.00     0.252 S 
ATOM     39  O3  IDY d 142      -1.250   8.756  21.534  0.00  0.00    -0.390 OA
ATOM     40  O4  IDY d 142      -1.006  11.418  19.806  0.00  0.00    -0.348 OA
ATOM     41  C2  IDY d 142       0.477   8.793  19.681  0.00  0.00     0.134 C 
ATOM     42  C6  IDY d 142       1.892  12.566  21.234  0.00  0.00     0.206 C 
ATOM     43  O61 IDY d 142       2.144  13.101  20.100  0.00  0.00    -0.646 OA
ATOM     44  O62 IDY d 142       2.039  13.328  22.310  0.00  0.00    -0.646 OA
ATOM     45  C5  IDY d 142       1.525  11.099  21.349  0.00  0.00     0.152 C 
ATOM     46  OS2 IDY d 142      -0.141   7.176  17.013  0.00  0.00    -0.572 OA
ATOM     47  O2  IDY d 142       0.266   9.232  18.312  0.00  0.00    -0.244 OA
ATOM     48  OS1 IDY d 142       0.806   9.131  15.912  0.00  0.00    -0.572 OA
ATOM     49  O5  IDY d 142       2.316  10.324  20.399  0.00  0.00    -0.340 OA
ATOM     50  O1  IDY d 142       2.136   7.936  21.051  0.00  0.00    -0.363 OA
ATOM     51  C7  IDY d 142       3.410   8.522  21.668  0.00  0.00     0.007 C 
ATOM     52  OS3 IDY d 142       2.130   7.780  17.447  0.00  0.00    -0.572 OA
ATOM     53  C4  IDY d 142       0.019  10.978  21.114  0.00  0.00     0.103 C 
ATOM     54  H   IDY d 142       2.588   8.865  19.156  0.00  0.00     0.133 H 
ATOM     55  H   IDY d 142      -0.728  10.179  19.937  0.00  0.00     0.091 H 
ATOM     56  H   IDY d 142      -0.753   8.242  22.190  0.00  0.00     0.210 HD
ATOM     57  H   IDY d 142       0.145   7.778  19.733  0.00  0.00     0.097 H 
ATOM     58  H   IDY d 142       1.746  10.706  22.319  0.00  0.00     0.104 H 
ATOM     59  H   IDY d 142       3.733   7.900  22.476  0.00  0.00     0.066 H 
ATOM     60  H   IDY d 142       3.207   9.507  22.035  0.00  0.00     0.066 H 
ATOM     61  H   IDY d 142       4.177   8.570  20.925  0.00  0.00     0.066 H 
ATOM     62  H   IDY d 142      -0.161  11.572  21.985  0.00  0.00     0.092 H 
ENDROOT
TORSDOF 19
ENDMDL
MODEL 27
REMARK VINA RESULT:      -6.4      2.329      3.013
REMARK  0 active torsions:
REMARK  status: ('A' for Active; 'I' for Inactive)
REMARK       I    between atoms: O3_1  and  C3_8 
REMARK       I    between atoms: O3_1  and  S3_11 
REMARK       I    between atoms: C1_2  and  O1_36 
REMARK       I    between atoms: C6_3  and  C5_27 
REMARK       I    between atoms: C6_3  and  O6_25 
REMARK       I    between atoms: O3S_4  and  S1_32 
REMARK       I    between atoms: C3_5  and  O3_9 
REMARK       I    between atoms: N_6  and  S1_32 
REMARK       I    between atoms: N_6  and  C2_39 
REMARK       I    between atoms: S_7  and  O2_30 
REMARK       I    between atoms: O4_12  and  C1_29 
REMARK       I    between atoms: O4_12  and  C4_40 
REMARK       I    between atoms: O4_13  and  C4_28 
REMARK       I    between atoms: C2_14  and  O2_30 
REMARK       I    between atoms: C6_15  and  C5_23 
REMARK       I    between atoms: S2_16  and  O6_25 
REMARK       I    between atoms: O1S_22  and  S1_32 
REMARK       I    between atoms: S1_32  and  O2S_33 
REMARK       I    between atoms: O1_36  and  C7_37 
ROOT
ATOM      1  O3  SUS d 141       0.081  10.209  18.047  0.00  0.00    -0.247 OA
ATOM      2  C6  SUS d 141       2.810  10.022  13.986  0.00  0.00     0.067 C 
ATOM      3  O3S SUS d 141      -4.700  10.227  16.750  0.00  0.00    -0.296 OA
ATOM      4  N   SUS d 141      -2.284  10.450  16.355  0.00  0.00    -0.210 NA
ATOM      5  C3  SUS d 141       0.122  10.617  16.699  0.00  0.00     0.107 C 
ATOM      6  O6S SUS d 141       4.395   7.976  11.767  0.00  0.00    -0.572 OA
ATOM      7  S3  SUS d 141      -0.541  10.886  19.136  0.00  0.00     0.252 S 
ATOM      8  O4  SUS d 141       2.468  11.107  16.669  0.00  0.00    -0.390 OA
ATOM      9  S2  SUS d 141       3.600   7.790  12.978  0.00  0.00     0.251 S 
ATOM     10  O5  SUS d 141       0.441   9.670  14.031  0.00  0.00    -0.349 OA
ATOM     11  O8S SUS d 141      -1.591  11.861  18.957  0.00  0.00    -0.572 OA
ATOM     12  O4S SUS d 141       4.416   7.833  14.187  0.00  0.00    -0.572 OA
ATOM     13  O1S SUS d 141      -3.495   8.418  15.690  0.00  0.00    -0.296 OA
ATOM     14  O7S SUS d 141       0.531  11.540  19.840  0.00  0.00    -0.572 OA
ATOM     15  O6  SUS d 141       2.597   8.983  13.058  0.00  0.00    -0.254 OA
ATOM     16  C5  SUS d 141       1.478  10.444  14.589  0.00  0.00     0.090 C 
ATOM     17  C4  SUS d 141       1.482  10.271  16.104  0.00  0.00     0.090 C 
ATOM     18  C1  SUS d 141      -0.832  10.131  14.425  0.00  0.00     0.150 C 
ATOM     19  O9S SUS d 141      -0.987   9.817  20.002  0.00  0.00    -0.572 OA
ATOM     20  S1  SUS d 141      -3.469   9.443  16.729  0.00  0.00     0.156 S 
ATOM     21  O2S SUS d 141      -3.153   8.892  18.044  0.00  0.00    -0.296 OA
ATOM     22  C2  SUS d 141      -1.000   9.932  15.927  0.00  0.00     0.083 C 
ATOM     23  O5S SUS d 141       2.808   6.565  12.934  0.00  0.00    -0.572 OA
ATOM     24  H   SUS d 141       3.461   9.677  14.764  0.00  0.00     0.080 H 
ATOM     25  H   SUS d 141       3.259  10.857  13.490  0.00  0.00     0.080 H 
ATOM     26  H   SUS d 141      -4.877  10.576  15.862  0.00  0.00     0.231 HD
ATOM     27  H   SUS d 141      -2.110  11.021  17.183  0.00  0.00     0.140 HD
ATOM     28  H   SUS d 141      -0.018  11.676  16.632  0.00  0.00     0.092 H 
ATOM     29  H   SUS d 141       2.472  10.997  17.633  0.00  0.00     0.210 HD
ATOM     30  H   SUS d 141      -3.708   8.828  14.837  0.00  0.00     0.231 HD
ATOM     31  H   SUS d 141       1.321  11.480  14.367  0.00  0.00     0.090 H 
ATOM     32  H   SUS d 141       1.698   9.246  16.326  0.00  0.00     0.091 H 
ATOM     33  H   SUS d 141      -1.588   9.581  13.905  0.00  0.00     0.131 H 
ATOM     34  H   SUS d 141      -3.146   9.606  18.701  0.00  0.00     0.231 HD
ATOM     35  H   SUS d 141      -0.957   8.883  16.132  0.00  0.00     0.076 H 
ATOM     36  C1  IDY d 142      -2.945  14.705  13.458  0.00  0.00     0.160 C 
ATOM     37  C3  IDY d 142      -2.486  12.410  12.875  0.00  0.00     0.094 C 
ATOM     38  S   IDY d 142      -4.290  13.658  16.097  0.00  0.00     0.252 S 
ATOM     39  O3  IDY d 142      -3.216  11.537  11.884  0.00  0.00    -0.390 OA
ATOM     40  O4  IDY d 142      -0.950  11.502  14.118  0.00  0.00    -0.348 OA
ATOM     41  C2  IDY d 142      -3.358  13.275  13.720  0.00  0.00     0.134 C 
ATOM     42  C6  IDY d 142       0.787  14.230  12.979  0.00  0.00     0.206 C 
ATOM     43  O61 IDY d 142       1.107  14.436  14.201  0.00  0.00    -0.646 OA
ATOM     44  O62 IDY d 142       1.763  14.274  12.082  0.00  0.00    -0.646 OA
ATOM     45  C5  IDY d 142      -0.658  14.030  12.565  0.00  0.00     0.152 C 
ATOM     46  OS2 IDY d 142      -5.543  12.883  15.999  0.00  0.00    -0.572 OA
ATOM     47  O2  IDY d 142      -3.234  13.035  15.148  0.00  0.00    -0.244 OA
ATOM     48  OS1 IDY d 142      -3.756  13.617  17.483  0.00  0.00    -0.572 OA
ATOM     49  O5  IDY d 142      -1.514  14.917  13.345  0.00  0.00    -0.340 OA
ATOM     50  O1  IDY d 142      -3.725  15.001  12.220  0.00  0.00    -0.363 OA
ATOM     51  C7  IDY d 142      -2.884  16.190  11.747  0.00  0.00     0.007 C 
ATOM     52  OS3 IDY d 142      -4.608  15.065  15.717  0.00  0.00    -0.572 OA
ATOM     53  C4  IDY d 142      -0.995  12.551  12.757  0.00  0.00     0.103 C 
ATOM     54  H   IDY d 142      -3.154  15.371  14.269  0.00  0.00     0.133 H 
ATOM     55  H   IDY d 142      -2.096  11.917  13.740  0.00  0.00     0.091 H 
ATOM     56  H   IDY d 142      -3.526  12.080  11.141  0.00  0.00     0.210 HD
ATOM     57  H   IDY d 142      -4.373  13.060  13.460  0.00  0.00     0.097 H 
ATOM     58  H   IDY d 142      -0.818  14.281  11.538  0.00  0.00     0.104 H 
ATOM     59  H   IDY d 142      -3.289  16.571  10.832  0.00  0.00     0.066 H 
ATOM     60  H   IDY d 142      -1.875  15.872  11.585  0.00  0.00     0.066 H 
ATOM     61  H   IDY d 142      -2.901  16.958  12.491  0.00  0.00     0.066 H 
ATOM     62  H   IDY d 142      -0.261  12.292  12.023  0.00  0.00     0.092 H 
ENDROOT
TORSDOF 19
ENDMDL
MODEL 28
REMARK VINA RESULT:      -6.3      2.760      5.690
REMARK  0 active torsions:
REMARK  status: ('A' for Active; 'I' for Inactive)
REMARK       I    between atoms: O3_1  and  C3_8 
REMARK       I    between atoms: O3_1  and  S3_11 
REMARK       I    between atoms: C1_2  and  O1_36 
REMARK       I    between atoms: C6_3  and  C5_27 
REMARK       I    between atoms: C6_3  and  O6_25 
REMARK       I    between atoms: O3S_4  and  S1_32 
REMARK       I    between atoms: C3_5  and  O3_9 
REMARK       I    between atoms: N_6  and  S1_32 
REMARK       I    between atoms: N_6  and  C2_39 
REMARK       I    between atoms: S_7  and  O2_30 
REMARK       I    between atoms: O4_12  and  C1_29 
REMARK       I    between atoms: O4_12  and  C4_40 
REMARK       I    between atoms: O4_13  and  C4_28 
REMARK       I    between atoms: C2_14  and  O2_30 
REMARK       I    between atoms: C6_15  and  C5_23 
REMARK       I    between atoms: S2_16  and  O6_25 
REMARK       I    between atoms: O1S_22  and  S1_32 
REMARK       I    between atoms: S1_32  and  O2S_33 
REMARK       I    between atoms: O1_36  and  C7_37 
ROOT
ATOM      1  O3  SUS d 141      -0.217   8.555  19.142  0.00  0.00    -0.247 OA
ATOM      2  C6  SUS d 141       1.076  12.863  21.076  0.00  0.00     0.067 C 
ATOM      3  O3S SUS d 141      -0.711   9.096  14.242  0.00  0.00    -0.296 OA
ATOM      4  N   SUS d 141      -0.504   9.886  16.561  0.00  0.00    -0.210 NA
ATOM      5  C3  SUS d 141      -0.372   9.948  18.992  0.00  0.00     0.107 C 
ATOM      6  O6S SUS d 141       3.688  14.850  21.998  0.00  0.00    -0.572 OA
ATOM      7  S3  SUS d 141      -1.157   7.540  18.803  0.00  0.00     0.252 S 
ATOM      8  O4  SUS d 141      -0.499  10.426  21.338  0.00  0.00    -0.390 OA
ATOM      9  S2  SUS d 141       3.541  13.521  21.411  0.00  0.00     0.251 S 
ATOM     10  O5  SUS d 141       1.063  12.395  18.726  0.00  0.00    -0.349 OA
ATOM     11  O8S SUS d 141      -2.230   7.746  17.858  0.00  0.00    -0.572 OA
ATOM     12  O4S SUS d 141       3.408  12.480  22.427  0.00  0.00    -0.572 OA
ATOM     13  O1S SUS d 141       1.413   9.949  15.024  0.00  0.00    -0.296 OA
ATOM     14  O7S SUS d 141      -1.760   7.147  20.050  0.00  0.00    -0.572 OA
ATOM     15  O6  SUS d 141       2.218  13.527  20.584  0.00  0.00    -0.254 OA
ATOM     16  C5  SUS d 141       0.363  12.162  19.928  0.00  0.00     0.090 C 
ATOM     17  C4  SUS d 141       0.268  10.661  20.178  0.00  0.00     0.090 C 
ATOM     18  C1  SUS d 141       0.357  11.911  17.605  0.00  0.00     0.150 C 
ATOM     19  O9S SUS d 141      -0.333   6.423  18.395  0.00  0.00    -0.572 OA
ATOM     20  S1  SUS d 141       0.238   9.147  15.351  0.00  0.00     0.156 S 
ATOM     21  O2S SUS d 141       0.591   7.812  15.827  0.00  0.00    -0.296 OA
ATOM     22  C2  SUS d 141       0.264  10.392  17.681  0.00  0.00     0.083 C 
ATOM     23  O5S SUS d 141       4.625  13.203  20.487  0.00  0.00    -0.572 OA
ATOM     24  H   SUS d 141       1.371  12.140  21.808  0.00  0.00     0.080 H 
ATOM     25  H   SUS d 141       0.416  13.576  21.524  0.00  0.00     0.080 H 
ATOM     26  H   SUS d 141      -0.921   9.998  13.954  0.00  0.00     0.231 HD
ATOM     27  H   SUS d 141      -1.178   9.221  16.942  0.00  0.00     0.140 HD
ATOM     28  H   SUS d 141      -1.412  10.199  18.967  0.00  0.00     0.092 H 
ATOM     29  H   SUS d 141      -0.560   9.471  21.498  0.00  0.00     0.210 HD
ATOM     30  H   SUS d 141       1.132  10.823  14.714  0.00  0.00     0.231 HD
ATOM     31  H   SUS d 141      -0.629  12.556  19.856  0.00  0.00     0.090 H 
ATOM     32  H   SUS d 141       1.259  10.277  20.309  0.00  0.00     0.091 H 
ATOM     33  H   SUS d 141       0.873  12.194  16.711  0.00  0.00     0.131 H 
ATOM     34  H   SUS d 141      -0.218   7.317  16.031  0.00  0.00     0.231 HD
ATOM     35  H   SUS d 141       1.257   9.993  17.637  0.00  0.00     0.076 H 
ATOM     36  C1  IDY d 142      -4.237  13.429  15.901  0.00  0.00     0.160 C 
ATOM     37  C3  IDY d 142      -1.834  13.612  15.980  0.00  0.00     0.094 C 
ATOM     38  S   IDY d 142      -3.876  10.464  14.927  0.00  0.00     0.252 S 
ATOM     39  O3  IDY d 142      -0.918  14.291  14.991  0.00  0.00    -0.390 OA
ATOM     40  O4  IDY d 142      -0.941  12.461  17.595  0.00  0.00    -0.348 OA
ATOM     41  C2  IDY d 142      -2.952  12.832  15.377  0.00  0.00     0.134 C 
ATOM     42  C6  IDY d 142      -3.143  14.362  19.410  0.00  0.00     0.206 C 
ATOM     43  O61 IDY d 142      -3.510  13.267  19.961  0.00  0.00    -0.646 OA
ATOM     44  O62 IDY d 142      -2.885  15.386  20.212  0.00  0.00    -0.646 OA
ATOM     45  C5  IDY d 142      -3.088  14.506  17.901  0.00  0.00     0.152 C 
ATOM     46  OS2 IDY d 142      -3.289  10.218  13.595  0.00  0.00    -0.572 OA
ATOM     47  O2  IDY d 142      -2.949  11.420  15.721  0.00  0.00    -0.244 OA
ATOM     48  OS1 IDY d 142      -4.000   9.194  15.687  0.00  0.00    -0.572 OA
ATOM     49  O5  IDY d 142      -4.214  13.796  17.304  0.00  0.00    -0.340 OA
ATOM     50  O1  IDY d 142      -4.424  14.569  14.955  0.00  0.00    -0.363 OA
ATOM     51  C7  IDY d 142      -5.376  15.388  15.832  0.00  0.00     0.007 C 
ATOM     52  OS3 IDY d 142      -5.226  11.061  14.713  0.00  0.00    -0.572 OA
ATOM     53  C4  IDY d 142      -1.731  13.979  17.433  0.00  0.00     0.103 C 
ATOM     54  H   IDY d 142      -5.058  12.743  15.916  0.00  0.00     0.133 H 
ATOM     55  H   IDY d 142      -1.447  12.736  16.456  0.00  0.00     0.091 H 
ATOM     56  H   IDY d 142      -1.362  15.070  14.621  0.00  0.00     0.210 HD
ATOM     57  H   IDY d 142      -2.846  12.889  14.314  0.00  0.00     0.097 H 
ATOM     58  H   IDY d 142      -3.176  15.526  17.593  0.00  0.00     0.104 H 
ATOM     59  H   IDY d 142      -5.646  16.288  15.321  0.00  0.00     0.066 H 
ATOM     60  H   IDY d 142      -4.890  15.634  16.753  0.00  0.00     0.066 H 
ATOM     61  H   IDY d 142      -6.256  14.815  16.036  0.00  0.00     0.066 H 
ATOM     62  H   IDY d 142      -1.243  14.749  17.992  0.00  0.00     0.092 H 
ENDROOT
TORSDOF 19
ENDMDL
MODEL 29
REMARK VINA RESULT:      -6.3      2.467      5.422
REMARK  0 active torsions:
REMARK  status: ('A' for Active; 'I' for Inactive)
REMARK       I    between atoms: O3_1  and  C3_8 
REMARK       I    between atoms: O3_1  and  S3_11 
REMARK       I    between atoms: C1_2  and  O1_36 
REMARK       I    between atoms: C6_3  and  C5_27 
REMARK       I    between atoms: C6_3  and  O6_25 
REMARK       I    between atoms: O3S_4  and  S1_32 
REMARK       I    between atoms: C3_5  and  O3_9 
REMARK       I    between atoms: N_6  and  S1_32 
REMARK       I    between atoms: N_6  and  C2_39 
REMARK       I    between atoms: S_7  and  O2_30 
REMARK       I    between atoms: O4_12  and  C1_29 
REMARK       I    between atoms: O4_12  and  C4_40 
REMARK       I    between atoms: O4_13  and  C4_28 
REMARK       I    between atoms: C2_14  and  O2_30 
REMARK       I    between atoms: C6_15  and  C5_23 
REMARK       I    between atoms: S2_16  and  O6_25 
REMARK       I    between atoms: O1S_22  and  S1_32 
REMARK       I    between atoms: S1_32  and  O2S_33 
REMARK       I    between atoms: O1_36  and  C7_37 
ROOT
ATOM      1  O3  SUS d 141      -2.715  10.281  15.545  0.00  0.00    -0.247 OA
ATOM      2  C6  SUS d 141       1.426  11.091  13.061  0.00  0.00     0.067 C 
ATOM      3  O3S SUS d 141      -2.081  11.778  20.224  0.00  0.00    -0.296 OA
ATOM      4  N   SUS d 141      -1.338  11.136  17.971  0.00  0.00    -0.210 NA
ATOM      5  C3  SUS d 141      -1.312  10.318  15.676  0.00  0.00     0.107 C 
ATOM      6  O6S SUS d 141       3.137  13.302  11.110  0.00  0.00    -0.572 OA
ATOM      7  S3  SUS d 141      -3.629   9.462  16.267  0.00  0.00     0.252 S 
ATOM      8  O4  SUS d 141      -0.847   9.332  13.542  0.00  0.00    -0.390 OA
ATOM      9  S2  SUS d 141       1.834  13.279  11.770  0.00  0.00     0.251 S 
ATOM     10  O5  SUS d 141       0.984  11.951  15.253  0.00  0.00    -0.349 OA
ATOM     11  O8S SUS d 141      -3.309   8.862  17.542  0.00  0.00    -0.572 OA
ATOM     12  O4S SUS d 141       0.802  12.672  10.935  0.00  0.00    -0.572 OA
ATOM     13  O1S SUS d 141      -1.449  13.497  18.645  0.00  0.00    -0.296 OA
ATOM     14  O7S SUS d 141      -3.973   8.390  15.369  0.00  0.00    -0.572 OA
ATOM     15  O6  SUS d 141       1.979  12.387  13.042  0.00  0.00    -0.254 OA
ATOM     16  C5  SUS d 141       0.809  10.822  14.427  0.00  0.00     0.090 C 
ATOM     17  C4  SUS d 141      -0.677  10.507  14.303  0.00  0.00     0.090 C 
ATOM     18  C1  SUS d 141       0.583  11.697  16.581  0.00  0.00     0.150 C 
ATOM     19  O9S SUS d 141      -4.818  10.279  16.378  0.00  0.00    -0.572 OA
ATOM     20  S1  SUS d 141      -2.134  12.222  18.835  0.00  0.00     0.156 S 
ATOM     21  O2S SUS d 141      -3.502  12.245  18.323  0.00  0.00    -0.296 OA
ATOM     22  C2  SUS d 141      -0.920  11.450  16.619  0.00  0.00     0.083 C 
ATOM     23  O5S SUS d 141       1.420  14.605  12.219  0.00  0.00    -0.572 OA
ATOM     24  H   SUS d 141       0.671  11.015  12.306  0.00  0.00     0.080 H 
ATOM     25  H   SUS d 141       2.196  10.373  12.869  0.00  0.00     0.080 H 
ATOM     26  H   SUS d 141      -1.160  11.776  20.528  0.00  0.00     0.231 HD
ATOM     27  H   SUS d 141      -1.936  10.312  17.910  0.00  0.00     0.140 HD
ATOM     28  H   SUS d 141      -0.960   9.396  16.089  0.00  0.00     0.092 H 
ATOM     29  H   SUS d 141      -1.792   9.131  13.463  0.00  0.00     0.210 HD
ATOM     30  H   SUS d 141      -0.548  13.436  18.998  0.00  0.00     0.231 HD
ATOM     31  H   SUS d 141       1.300   9.974  14.857  0.00  0.00     0.090 H 
ATOM     32  H   SUS d 141      -1.158  11.331  13.819  0.00  0.00     0.091 H 
ATOM     33  H   SUS d 141       0.822  12.542  17.193  0.00  0.00     0.131 H 
ATOM     34  H   SUS d 141      -3.917  11.380  18.469  0.00  0.00     0.231 HD
ATOM     35  H   SUS d 141      -1.414  12.342  16.295  0.00  0.00     0.076 H 
ATOM     36  C1  IDY d 142       2.563   8.276  19.852  0.00  0.00     0.160 C 
ATOM     37  C3  IDY d 142       2.508  10.466  18.843  0.00  0.00     0.094 C 
ATOM     38  S   IDY d 142      -0.414   8.727  20.750  0.00  0.00     0.252 S 
ATOM     39  O3  IDY d 142       3.102  11.749  19.369  0.00  0.00    -0.390 OA
ATOM     40  O4  IDY d 142       1.258  10.558  17.065  0.00  0.00    -0.348 OA
ATOM     41  C2  IDY d 142       1.847   9.607  19.867  0.00  0.00     0.134 C 
ATOM     42  C6  IDY d 142       3.349   7.998  16.152  0.00  0.00     0.206 C 
ATOM     43  O61 IDY d 142       2.290   7.353  15.838  0.00  0.00    -0.646 OA
ATOM     44  O62 IDY d 142       4.335   8.012  15.266  0.00  0.00    -0.646 OA
ATOM     45  C5  IDY d 142       3.502   8.647  17.515  0.00  0.00     0.152 C 
ATOM     46  OS2 IDY d 142      -0.704   9.762  21.762  0.00  0.00    -0.572 OA
ATOM     47  O2  IDY d 142       0.438   9.353  19.615  0.00  0.00    -0.244 OA
ATOM     48  OS1 IDY d 142      -1.673   8.208  20.157  0.00  0.00    -0.572 OA
ATOM     49  O5  IDY d 142       2.912   7.784  18.532  0.00  0.00    -0.340 OA
ATOM     50  O1  IDY d 142       3.724   8.571  20.742  0.00  0.00    -0.363 OA
ATOM     51  C7  IDY d 142       4.625   7.429  20.262  0.00  0.00     0.007 C 
ATOM     52  OS3 IDY d 142       0.315   7.624  21.439  0.00  0.00    -0.572 OA
ATOM     53  C4  IDY d 142       2.848  10.027  17.447  0.00  0.00     0.103 C 
ATOM     54  H   IDY d 142       1.961   7.457  20.187  0.00  0.00     0.133 H 
ATOM     55  H   IDY d 142       1.592  10.559  18.297  0.00  0.00     0.091 H 
ATOM     56  H   IDY d 142       3.925  11.553  19.845  0.00  0.00     0.210 HD
ATOM     57  H   IDY d 142       1.903  10.122  20.803  0.00  0.00     0.097 H 
ATOM     58  H   IDY d 142       4.529   8.775  17.784  0.00  0.00     0.104 H 
ATOM     59  H   IDY d 142       5.552   7.458  20.795  0.00  0.00     0.066 H 
ATOM     60  H   IDY d 142       4.813   7.538  19.214  0.00  0.00     0.066 H 
ATOM     61  H   IDY d 142       4.139   6.493  20.441  0.00  0.00     0.066 H 
ATOM     62  H   IDY d 142       3.561  10.325  16.708  0.00  0.00     0.092 H 
ENDROOT
TORSDOF 19
ENDMDL
MODEL 30
REMARK VINA RESULT:      -6.3      2.160      6.887
REMARK  0 active torsions:
REMARK  status: ('A' for Active; 'I' for Inactive)
REMARK       I    between atoms: O3_1  and  C3_8 
REMARK       I    between atoms: O3_1  and  S3_11 
REMARK       I    between atoms: C1_2  and  O1_36 
REMARK       I    between atoms: C6_3  and  C5_27 
REMARK       I    between atoms: C6_3  and  O6_25 
REMARK       I    between atoms: O3S_4  and  S1_32 
REMARK       I    between atoms: C3_5  and  O3_9 
REMARK       I    between atoms: N_6  and  S1_32 
REMARK       I    between atoms: N_6  and  C2_39 
REMARK       I    between atoms: S_7  and  O2_30 
REMARK       I    between atoms: O4_12  and  C1_29 
REMARK       I    between atoms: O4_12  and  C4_40 
REMARK       I    between atoms: O4_13  and  C4_28 
REMARK       I    between atoms: C2_14  and  O2_30 
REMARK       I    between atoms: C6_15  and  C5_23 
REMARK       I    between atoms: S2_16  and  O6_25 
REMARK       I    between atoms: O1S_22  and  S1_32 
REMARK       I    between atoms: S1_32  and  O2S_33 
REMARK       I    between atoms: O1_36  and  C7_37 
ROOT
ATOM      1  O3  SUS d 141      -3.358  10.383  17.682  0.00  0.00    -0.247 OA
ATOM      2  C6  SUS d 141      -1.489  14.381  19.802  0.00  0.00     0.067 C 
ATOM      3  O3S SUS d 141       0.284   7.096  16.995  0.00  0.00    -0.296 OA
ATOM      4  N   SUS d 141      -0.649   9.320  17.471  0.00  0.00    -0.210 NA
ATOM      5  C3  SUS d 141      -2.198  11.179  17.757  0.00  0.00     0.107 C 
ATOM      6  O6S SUS d 141      -0.829  15.934  22.764  0.00  0.00    -0.572 OA
ATOM      7  S3  SUS d 141      -3.818   9.628  16.564  0.00  0.00     0.252 S 
ATOM      8  O4  SUS d 141      -3.354  13.277  17.854  0.00  0.00    -0.390 OA
ATOM      9  S2  SUS d 141      -1.435  14.668  22.358  0.00  0.00     0.251 S 
ATOM     10  O5  SUS d 141      -0.310  12.308  19.568  0.00  0.00    -0.349 OA
ATOM     11  O8S SUS d 141      -2.950   9.212  15.487  0.00  0.00    -0.572 OA
ATOM     12  O4S SUS d 141      -2.868  14.796  22.111  0.00  0.00    -0.572 OA
ATOM     13  O1S SUS d 141       0.225   7.899  19.275  0.00  0.00    -0.296 OA
ATOM     14  O7S SUS d 141      -4.872  10.416  15.979  0.00  0.00    -0.572 OA
ATOM     15  O6  SUS d 141      -0.772  14.252  21.008  0.00  0.00    -0.254 OA
ATOM     16  C5  SUS d 141      -1.205  13.178  18.912  0.00  0.00     0.090 C 
ATOM     17  C4  SUS d 141      -2.491  12.429  18.579  0.00  0.00     0.090 C 
ATOM     18  C1  SUS d 141       0.119  11.263  18.725  0.00  0.00     0.150 C 
ATOM     19  O9S SUS d 141      -4.469   8.482  17.161  0.00  0.00    -0.572 OA
ATOM     20  S1  SUS d 141      -0.485   7.820  18.002  0.00  0.00     0.156 S 
ATOM     21  O2S SUS d 141      -1.833   7.277  18.152  0.00  0.00    -0.296 OA
ATOM     22  C2  SUS d 141      -1.066  10.369  18.380  0.00  0.00     0.083 C 
ATOM     23  O5S SUS d 141      -1.171  13.599  23.315  0.00  0.00    -0.572 OA
ATOM     24  H   SUS d 141      -2.537  14.430  20.013  0.00  0.00     0.080 H 
ATOM     25  H   SUS d 141      -1.184  15.275  19.300  0.00  0.00     0.080 H 
ATOM     26  H   SUS d 141       1.170   7.485  16.924  0.00  0.00     0.231 HD
ATOM     27  H   SUS d 141      -1.337   9.292  16.718  0.00  0.00     0.140 HD
ATOM     28  H   SUS d 141      -1.898  11.481  16.775  0.00  0.00     0.092 H 
ATOM     29  H   SUS d 141      -4.172  12.801  17.641  0.00  0.00     0.210 HD
ATOM     30  H   SUS d 141       1.112   8.263  19.129  0.00  0.00     0.231 HD
ATOM     31  H   SUS d 141      -0.771  13.528  17.999  0.00  0.00     0.090 H 
ATOM     32  H   SUS d 141      -2.955  12.130  19.496  0.00  0.00     0.091 H 
ATOM     33  H   SUS d 141       0.868  10.685  19.226  0.00  0.00     0.131 H 
ATOM     34  H   SUS d 141      -2.266   7.244  17.284  0.00  0.00     0.231 HD
ATOM     35  H   SUS d 141      -1.428   9.929  19.285  0.00  0.00     0.076 H 
ATOM     36  C1  IDY d 142       2.789  11.653  14.361  0.00  0.00     0.160 C 
ATOM     37  C3  IDY d 142       2.658  11.455  16.762  0.00  0.00     0.094 C 
ATOM     38  S   IDY d 142       1.156   8.977  14.154  0.00  0.00     0.252 S 
ATOM     39  O3  IDY d 142       3.730  10.995  17.718  0.00  0.00    -0.390 OA
ATOM     40  O4  IDY d 142       0.657  11.806  17.541  0.00  0.00    -0.348 OA
ATOM     41  C2  IDY d 142       2.563  10.677  15.493  0.00  0.00     0.134 C 
ATOM     42  C6  IDY d 142       1.107  14.730  15.807  0.00  0.00     0.206 C 
ATOM     43  O61 IDY d 142      -0.043  14.508  15.293  0.00  0.00    -0.646 OA
ATOM     44  O62 IDY d 142       1.333  15.947  16.282  0.00  0.00    -0.646 OA
ATOM     45  C5  IDY d 142       2.193  13.671  15.794  0.00  0.00     0.152 C 
ATOM     46  OS2 IDY d 142       1.785   7.722  14.611  0.00  0.00    -0.572 OA
ATOM     47  O2  IDY d 142       1.275  10.040  15.277  0.00  0.00    -0.244 OA
ATOM     48  OS1 IDY d 142      -0.285   8.765  13.862  0.00  0.00    -0.572 OA
ATOM     49  O5  IDY d 142       2.149  12.944  14.531  0.00  0.00    -0.340 OA
ATOM     50  O1  IDY d 142       4.280  11.690  14.315  0.00  0.00    -0.363 OA
ATOM     51  C7  IDY d 142       4.413  13.023  13.570  0.00  0.00     0.007 C 
ATOM     52  OS3 IDY d 142       1.867   9.404  12.915  0.00  0.00    -0.572 OA
ATOM     53  C4  IDY d 142       1.978  12.771  17.012  0.00  0.00     0.103 C 
ATOM     54  H   IDY d 142       2.336  11.357  13.438  0.00  0.00     0.133 H 
ATOM     55  H   IDY d 142       1.652  11.198  17.021  0.00  0.00     0.091 H 
ATOM     56  H   IDY d 142       4.598  11.279  17.392  0.00  0.00     0.210 HD
ATOM     57  H   IDY d 142       3.289   9.892  15.543  0.00  0.00     0.097 H 
ATOM     58  H   IDY d 142       3.171  14.100  15.863  0.00  0.00     0.104 H 
ATOM     59  H   IDY d 142       5.448  13.249  13.427  0.00  0.00     0.066 H 
ATOM     60  H   IDY d 142       3.954  13.800  14.146  0.00  0.00     0.066 H 
ATOM     61  H   IDY d 142       3.928  12.950  12.620  0.00  0.00     0.066 H 
ATOM     62  H   IDY d 142       2.150  13.607  17.656  0.00  0.00     0.092 H 
ENDROOT
TORSDOF 19
ENDMDL
MODEL 31
REMARK VINA RESULT:      -6.3      2.878      5.354
REMARK  0 active torsions:
REMARK  status: ('A' for Active; 'I' for Inactive)
REMARK       I    between atoms: O3_1  and  C3_8 
REMARK       I    between atoms: O3_1  and  S3_11 
REMARK       I    between atoms: C1_2  and  O1_36 
REMARK       I    between atoms: C6_3  and  C5_27 
REMARK       I    between atoms: C6_3  and  O6_25 
REMARK       I    between atoms: O3S_4  and  S1_32 
REMARK       I    between atoms: C3_5  and  O3_9 
REMARK       I    between atoms: N_6  and  S1_32 
REMARK       I    between atoms: N_6  and  C2_39 
REMARK       I    between atoms: S_7  and  O2_30 
REMARK       I    between atoms: O4_12  and  C1_29 
REMARK       I    between atoms: O4_12  and  C4_40 
REMARK       I    between atoms: O4_13  and  C4_28 
REMARK       I    between atoms: C2_14  and  O2_30 
REMARK       I    between atoms: C6_15  and  C5_23 
REMARK       I    between atoms: S2_16  and  O6_25 
REMARK       I    between atoms: O1S_22  and  S1_32 
REMARK       I    between atoms: S1_32  and  O2S_33 
REMARK       I    between atoms: O1_36  and  C7_37 
ROOT
ATOM      1  O3  SUS d 141      -3.029  11.589  16.073  0.00  0.00    -0.247 OA
ATOM      2  C6  SUS d 141       0.537   8.237  15.944  0.00  0.00     0.067 C 
ATOM      3  O3S SUS d 141      -1.231  15.749  18.073  0.00  0.00    -0.296 OA
ATOM      4  N   SUS d 141      -1.217  13.351  17.529  0.00  0.00    -0.210 NA
ATOM      5  C3  SUS d 141      -1.883  11.139  16.757  0.00  0.00     0.107 C 
ATOM      6  O6S SUS d 141       3.062   6.902  14.083  0.00  0.00    -0.572 OA
ATOM      7  S3  SUS d 141      -4.188  12.197  16.636  0.00  0.00     0.252 S 
ATOM      8  O4  SUS d 141      -2.286   8.805  16.390  0.00  0.00    -0.390 OA
ATOM      9  S2  SUS d 141       2.070   7.957  13.896  0.00  0.00     0.251 S 
ATOM     10  O5  SUS d 141       0.888  10.555  16.441  0.00  0.00    -0.349 OA
ATOM     11  O8S SUS d 141      -4.187  12.843  17.929  0.00  0.00    -0.572 OA
ATOM     12  O4S SUS d 141       0.814   7.445  13.355  0.00  0.00    -0.572 OA
ATOM     13  O1S SUS d 141       0.172  14.944  16.275  0.00  0.00    -0.296 OA
ATOM     14  O7S SUS d 141      -5.182  11.156  16.683  0.00  0.00    -0.572 OA
ATOM     15  O6  SUS d 141       1.755   8.547  15.306  0.00  0.00    -0.254 OA
ATOM     16  C5  SUS d 141       0.000   9.478  16.644  0.00  0.00     0.090 C 
ATOM     17  C4  SUS d 141      -1.380   9.851  16.115  0.00  0.00     0.090 C 
ATOM     18  C1  SUS d 141       0.529  11.683  17.206  0.00  0.00     0.150 C 
ATOM     19  O9S SUS d 141      -4.631  13.118  15.612  0.00  0.00    -0.572 OA
ATOM     20  S1  SUS d 141      -1.123  14.836  16.940  0.00  0.00     0.156 S 
ATOM     21  O2S SUS d 141      -2.239  14.989  16.009  0.00  0.00    -0.296 OA
ATOM     22  C2  SUS d 141      -0.811  12.222  16.718  0.00  0.00     0.083 C 
ATOM     23  O5S SUS d 141       2.576   9.051  13.074  0.00  0.00    -0.572 OA
ATOM     24  H   SUS d 141      -0.173   7.903  15.216  0.00  0.00     0.080 H 
ATOM     25  H   SUS d 141       0.700   7.463  16.665  0.00  0.00     0.080 H 
ATOM     26  H   SUS d 141      -0.475  15.618  18.667  0.00  0.00     0.231 HD
ATOM     27  H   SUS d 141      -2.193  13.196  17.782  0.00  0.00     0.140 HD
ATOM     28  H   SUS d 141      -2.123  10.937  17.780  0.00  0.00     0.092 H 
ATOM     29  H   SUS d 141      -3.164   9.041  16.053  0.00  0.00     0.210 HD
ATOM     30  H   SUS d 141       0.881  14.837  16.929  0.00  0.00     0.231 HD
ATOM     31  H   SUS d 141      -0.083   9.266  17.690  0.00  0.00     0.090 H 
ATOM     32  H   SUS d 141      -1.307  10.005  15.059  0.00  0.00     0.091 H 
ATOM     33  H   SUS d 141       1.279  12.440  17.099  0.00  0.00     0.131 H 
ATOM     34  H   SUS d 141      -3.076  14.910  16.492  0.00  0.00     0.231 HD
ATOM     35  H   SUS d 141      -0.693  12.540  15.703  0.00  0.00     0.076 H 
ATOM     36  C1  IDY d 142       0.318  12.067  22.318  0.00  0.00     0.160 C 
ATOM     37  C3  IDY d 142       1.507  12.205  20.224  0.00  0.00     0.094 C 
ATOM     38  S   IDY d 142      -1.699  14.198  21.194  0.00  0.00     0.252 S 
ATOM     39  O3  IDY d 142       2.796  12.932  19.930  0.00  0.00    -0.390 OA
ATOM     40  O4  IDY d 142       0.420  11.316  18.562  0.00  0.00    -0.348 OA
ATOM     41  C2  IDY d 142       0.552  12.937  21.104  0.00  0.00     0.134 C 
ATOM     42  C6  IDY d 142       0.464   8.638  20.704  0.00  0.00     0.206 C 
ATOM     43  O61 IDY d 142      -0.792   8.541  20.480  0.00  0.00    -0.646 OA
ATOM     44  O62 IDY d 142       1.181   7.525  20.622  0.00  0.00    -0.646 OA
ATOM     45  C5  IDY d 142       1.090   9.952  21.128  0.00  0.00     0.152 C 
ATOM     46  OS2 IDY d 142      -1.221  15.574  20.953  0.00  0.00    -0.572 OA
ATOM     47  O2  IDY d 142      -0.741  13.199  20.494  0.00  0.00    -0.244 OA
ATOM     48  OS1 IDY d 142      -3.061  14.011  20.632  0.00  0.00    -0.572 OA
ATOM     49  O5  IDY d 142       0.188  10.649  22.038  0.00  0.00    -0.340 OA
ATOM     50  O1  IDY d 142       1.493  12.438  23.160  0.00  0.00    -0.363 OA
ATOM     51  C7  IDY d 142       1.481  11.198  24.059  0.00  0.00     0.007 C 
ATOM     52  OS3 IDY d 142      -1.726  13.989  22.670  0.00  0.00    -0.572 OA
ATOM     53  C4  IDY d 142       1.396  10.751  19.860  0.00  0.00     0.103 C 
ATOM     54  H   IDY d 142      -0.624  12.235  22.795  0.00  0.00     0.133 H 
ATOM     55  H   IDY d 142       0.791  12.176  19.430  0.00  0.00     0.091 H 
ATOM     56  H   IDY d 142       3.372  12.898  20.711  0.00  0.00     0.210 HD
ATOM     57  H   IDY d 142       0.985  13.889  21.326  0.00  0.00     0.097 H 
ATOM     58  H   IDY d 142       2.005   9.806  21.661  0.00  0.00     0.104 H 
ATOM     59  H   IDY d 142       2.279  11.263  24.767  0.00  0.00     0.066 H 
ATOM     60  H   IDY d 142       1.608  10.321  23.459  0.00  0.00     0.066 H 
ATOM     61  H   IDY d 142       0.547  11.143  24.577  0.00  0.00     0.066 H 
ATOM     62  H   IDY d 142       2.079   9.989  19.549  0.00  0.00     0.092 H 
ENDROOT
TORSDOF 19
ENDMDL
MODEL 32
REMARK VINA RESULT:      -6.3      2.689      6.532
REMARK  0 active torsions:
REMARK  status: ('A' for Active; 'I' for Inactive)
REMARK       I    between atoms: O3_1  and  C3_8 
REMARK       I    between atoms: O3_1  and  S3_11 
REMARK       I    between atoms: C1_2  and  O1_36 
REMARK       I    between atoms: C6_3  and  C5_27 
REMARK       I    between atoms: C6_3  and  O6_25 
REMARK       I    between atoms: O3S_4  and  S1_32 
REMARK       I    between atoms: C3_5  and  O3_9 
REMARK       I    between atoms: N_6  and  S1_32 
REMARK       I    between atoms: N_6  and  C2_39 
REMARK       I    between atoms: S_7  and  O2_30 
REMARK       I    between atoms: O4_12  and  C1_29 
REMARK       I    between atoms: O4_12  and  C4_40 
REMARK       I    between atoms: O4_13  and  C4_28 
REMARK       I    between atoms: C2_14  and  O2_30 
REMARK       I    between atoms: C6_15  and  C5_23 
REMARK       I    between atoms: S2_16  and  O6_25 
REMARK       I    between atoms: O1S_22  and  S1_32 
REMARK       I    between atoms: S1_32  and  O2S_33 
REMARK       I    between atoms: O1_36  and  C7_37 
ROOT
ATOM      1  O3  SUS d 141      -2.337   9.420  18.448  0.00  0.00    -0.247 OA
ATOM      2  C6  SUS d 141      -0.588  12.866  21.454  0.00  0.00     0.067 C 
ATOM      3  O3S SUS d 141       1.337   7.851  15.518  0.00  0.00    -0.296 OA
ATOM      4  N   SUS d 141       0.252   9.386  17.103  0.00  0.00    -0.210 NA
ATOM      5  C3  SUS d 141      -1.397  10.466  18.535  0.00  0.00     0.107 C 
ATOM      6  O6S SUS d 141       0.814  13.479  24.500  0.00  0.00    -0.572 OA
ATOM      7  S3  SUS d 141      -3.027   8.973  17.284  0.00  0.00     0.252 S 
ATOM      8  O4  SUS d 141      -2.800  11.944  19.796  0.00  0.00    -0.390 OA
ATOM      9  S2  SUS d 141       0.344  12.296  23.783  0.00  0.00     0.251 S 
ATOM     10  O5  SUS d 141       0.781  11.462  20.077  0.00  0.00    -0.349 OA
ATOM     11  O8S SUS d 141      -2.553   9.227  15.943  0.00  0.00    -0.572 OA
ATOM     12  O4S SUS d 141      -1.078  12.045  24.002  0.00  0.00    -0.572 OA
ATOM     13  O1S SUS d 141       1.971   7.796  17.851  0.00  0.00    -0.296 OA
ATOM     14  O7S SUS d 141      -4.347   9.540  17.382  0.00  0.00    -0.572 OA
ATOM     15  O6  SUS d 141       0.531  12.577  22.260  0.00  0.00    -0.254 OA
ATOM     16  C5  SUS d 141      -0.435  12.175  20.106  0.00  0.00     0.090 C 
ATOM     17  C4  SUS d 141      -1.592  11.218  19.846  0.00  0.00     0.090 C 
ATOM     18  C1  SUS d 141       1.056  10.942  18.796  0.00  0.00     0.150 C 
ATOM     19  O9S SUS d 141      -3.193   7.552  17.500  0.00  0.00    -0.572 OA
ATOM     20  S1  SUS d 141       0.871   7.925  16.900  0.00  0.00     0.156 S 
ATOM     21  O2S SUS d 141      -0.204   6.972  17.163  0.00  0.00    -0.296 OA
ATOM     22  C2  SUS d 141       0.012   9.891  18.440  0.00  0.00     0.083 C 
ATOM     23  O5S SUS d 141       1.131  11.109  24.102  0.00  0.00    -0.572 OA
ATOM     24  H   SUS d 141      -1.476  12.514  21.937  0.00  0.00     0.080 H 
ATOM     25  H   SUS d 141      -0.658  13.924  21.307  0.00  0.00     0.080 H 
ATOM     26  H   SUS d 141       2.049   8.496  15.382  0.00  0.00     0.231 HD
ATOM     27  H   SUS d 141      -0.646   9.395  16.619  0.00  0.00     0.140 HD
ATOM     28  H   SUS d 141      -1.538  11.152  17.726  0.00  0.00     0.092 H 
ATOM     29  H   SUS d 141      -3.537  11.335  19.631  0.00  0.00     0.210 HD
ATOM     30  H   SUS d 141       2.659   8.445  17.639  0.00  0.00     0.231 HD
ATOM     31  H   SUS d 141      -0.437  12.924  19.341  0.00  0.00     0.090 H 
ATOM     32  H   SUS d 141      -1.625  10.504  20.643  0.00  0.00     0.091 H 
ATOM     33  H   SUS d 141       2.029  10.495  18.794  0.00  0.00     0.131 H 
ATOM     34  H   SUS d 141      -0.911   7.093  16.509  0.00  0.00     0.231 HD
ATOM     35  H   SUS d 141       0.094   9.087  19.142  0.00  0.00     0.076 H 
ATOM     36  C1  IDY d 142       1.823  13.561  14.451  0.00  0.00     0.160 C 
ATOM     37  C3  IDY d 142       2.619  12.552  16.493  0.00  0.00     0.094 C 
ATOM     38  S   IDY d 142       0.748  10.735  13.595  0.00  0.00     0.252 S 
ATOM     39  O3  IDY d 142       4.031  12.160  16.850  0.00  0.00    -0.390 OA
ATOM     40  O4  IDY d 142       1.014  11.985  17.848  0.00  0.00    -0.348 OA
ATOM     41  C2  IDY d 142       2.211  12.247  15.091  0.00  0.00     0.134 C 
ATOM     42  C6  IDY d 142       0.254  15.303  17.432  0.00  0.00     0.206 C 
ATOM     43  O61 IDY d 142      -0.943  14.916  17.199  0.00  0.00    -0.646 OA
ATOM     44  O62 IDY d 142       0.412  16.301  18.291  0.00  0.00    -0.646 OA
ATOM     45  C5  IDY d 142       1.434  14.701  16.694  0.00  0.00     0.152 C 
ATOM     46  OS2 IDY d 142       1.719   9.662  13.304  0.00  0.00    -0.572 OA
ATOM     47  O2  IDY d 142       1.073  11.350  14.981  0.00  0.00    -0.244 OA
ATOM     48  OS1 IDY d 142      -0.635  10.194  13.635  0.00  0.00    -0.572 OA
ATOM     49  O5  IDY d 142       1.065  14.456  15.304  0.00  0.00    -0.340 OA
ATOM     50  O1  IDY d 142       3.161  14.073  14.030  0.00  0.00    -0.363 OA
ATOM     51  C7  IDY d 142       2.765  15.548  13.899  0.00  0.00     0.007 C 
ATOM     52  OS3 IDY d 142       0.865  11.746  12.505  0.00  0.00    -0.572 OA
ATOM     53  C4  IDY d 142       1.849  13.431  17.437  0.00  0.00     0.103 C 
ATOM     54  H   IDY d 142       1.127  13.460  13.645  0.00  0.00     0.133 H 
ATOM     55  H   IDY d 142       1.843  11.924  16.879  0.00  0.00     0.091 H 
ATOM     56  H   IDY d 142       4.652  12.791  16.452  0.00  0.00     0.210 HD
ATOM     57  H   IDY d 142       3.035  11.757  14.616  0.00  0.00     0.097 H 
ATOM     58  H   IDY d 142       2.273  15.365  16.672  0.00  0.00     0.104 H 
ATOM     59  H   IDY d 142       3.615  16.119  13.593  0.00  0.00     0.066 H 
ATOM     60  H   IDY d 142       2.414  15.908  14.844  0.00  0.00     0.066 H 
ATOM     61  H   IDY d 142       1.988  15.645  13.171  0.00  0.00     0.066 H 
ATOM     62  H   IDY d 142       2.089  14.017  18.299  0.00  0.00     0.092 H 
ENDROOT
TORSDOF 19
ENDMDL
MODEL 33
REMARK VINA RESULT:      -6.2      1.999      3.123
REMARK  0 active torsions:
REMARK  status: ('A' for Active; 'I' for Inactive)
REMARK       I    between atoms: O3_1  and  C3_8 
REMARK       I    between atoms: O3_1  and  S3_11 
REMARK       I    between atoms: C1_2  and  O1_36 
REMARK       I    between atoms: C6_3  and  C5_27 
REMARK       I    between atoms: C6_3  and  O6_25 
REMARK       I    between atoms: O3S_4  and  S1_32 
REMARK       I    between atoms: C3_5  and  O3_9 
REMARK       I    between atoms: N_6  and  S1_32 
REMARK       I    between atoms: N_6  and  C2_39 
REMARK       I    between atoms: S_7  and  O2_30 
REMARK       I    between atoms: O4_12  and  C1_29 
REMARK       I    between atoms: O4_12  and  C4_40 
REMARK       I    between atoms: O4_13  and  C4_28 
REMARK       I    between atoms: C2_14  and  O2_30 
REMARK       I    between atoms: C6_15  and  C5_23 
REMARK       I    between atoms: S2_16  and  O6_25 
REMARK       I    between atoms: O1S_22  and  S1_32 
REMARK       I    between atoms: S1_32  and  O2S_33 
REMARK       I    between atoms: O1_36  and  C7_37 
ROOT
ATOM      1  O3  SUS d 141       3.172   9.187  18.157  0.00  0.00    -0.247 OA
ATOM      2  C6  SUS d 141       2.794   9.267  13.276  0.00  0.00     0.067 C 
ATOM      3  O3S SUS d 141      -1.299   8.273  20.084  0.00  0.00    -0.296 OA
ATOM      4  N   SUS d 141       0.272   8.904  18.302  0.00  0.00    -0.210 NA
ATOM      5  C3  SUS d 141       2.300   9.519  17.102  0.00  0.00     0.107 C 
ATOM      6  O6S SUS d 141       3.000   7.419  10.420  0.00  0.00    -0.572 OA
ATOM      7  S3  SUS d 141       3.248   9.801  19.441  0.00  0.00     0.252 S 
ATOM      8  O4  SUS d 141       3.996  10.421  15.667  0.00  0.00    -0.390 OA
ATOM      9  S2  SUS d 141       3.169   7.161  11.847  0.00  0.00     0.251 S 
ATOM     10  O5  SUS d 141       1.065   8.498  14.746  0.00  0.00    -0.349 OA
ATOM     11  O8S SUS d 141       2.161  10.560  20.014  0.00  0.00    -0.572 OA
ATOM     12  O4S SUS d 141       4.535   7.417  12.297  0.00  0.00    -0.572 OA
ATOM     13  O1S SUS d 141      -0.711   6.654  18.387  0.00  0.00    -0.296 OA
ATOM     14  O7S SUS d 141       4.390  10.676  19.379  0.00  0.00    -0.572 OA
ATOM     15  O6  SUS d 141       2.240   8.157  12.608  0.00  0.00    -0.254 OA
ATOM     16  C5  SUS d 141       2.070   9.476  14.599  0.00  0.00     0.090 C 
ATOM     17  C4  SUS d 141       3.038   9.391  15.773  0.00  0.00     0.090 C 
ATOM     18  C1  SUS d 141       0.252   8.744  15.871  0.00  0.00     0.150 C 
ATOM     19  O9S SUS d 141       3.629   8.719  20.323  0.00  0.00    -0.572 OA
ATOM     20  S1  SUS d 141      -0.230   7.723  19.257  0.00  0.00     0.156 S 
ATOM     21  O2S SUS d 141       0.921   7.312  20.057  0.00  0.00    -0.296 OA
ATOM     22  C2  SUS d 141       1.084   8.602  17.140  0.00  0.00     0.083 C 
ATOM     23  O5S SUS d 141       2.750   5.813  12.217  0.00  0.00    -0.572 OA
ATOM     24  H   SUS d 141       3.833   9.089  13.463  0.00  0.00     0.080 H 
ATOM     25  H   SUS d 141       2.685  10.140  12.668  0.00  0.00     0.080 H 
ATOM     26  H   SUS d 141      -2.043   8.534  19.519  0.00  0.00     0.231 HD
ATOM     27  H   SUS d 141       0.816   9.542  18.884  0.00  0.00     0.140 HD
ATOM     28  H   SUS d 141       1.966  10.531  17.207  0.00  0.00     0.092 H 
ATOM     29  H   SUS d 141       4.613  10.368  16.414  0.00  0.00     0.210 HD
ATOM     30  H   SUS d 141      -1.472   6.970  17.877  0.00  0.00     0.231 HD
ATOM     31  H   SUS d 141       1.630  10.452  14.592  0.00  0.00     0.090 H 
ATOM     32  H   SUS d 141       3.521   8.436  15.745  0.00  0.00     0.091 H 
ATOM     33  H   SUS d 141      -0.553   8.039  15.891  0.00  0.00     0.131 H 
ATOM     34  H   SUS d 141       1.206   8.051  20.617  0.00  0.00     0.231 HD
ATOM     35  H   SUS d 141       1.428   7.591  17.203  0.00  0.00     0.076 H 
ATOM     36  C1  IDY d 142      -2.769  12.802  16.723  0.00  0.00     0.160 C 
ATOM     37  C3  IDY d 142      -2.375  10.598  15.827  0.00  0.00     0.094 C 
ATOM     38  S   IDY d 142      -1.990  11.679  19.552  0.00  0.00     0.252 S 
ATOM     39  O3  IDY d 142      -3.392   9.554  15.439  0.00  0.00    -0.390 OA
ATOM     40  O4  IDY d 142      -0.269  10.052  15.795  0.00  0.00    -0.348 OA
ATOM     41  C2  IDY d 142      -2.673  11.338  17.087  0.00  0.00     0.134 C 
ATOM     42  C6  IDY d 142      -0.118  12.980  14.017  0.00  0.00     0.206 C 
ATOM     43  O61 IDY d 142       0.844  13.308  14.794  0.00  0.00    -0.646 OA
ATOM     44  O62 IDY d 142       0.070  13.148  12.715  0.00  0.00    -0.646 OA
ATOM     45  C5  IDY d 142      -1.447  12.501  14.569  0.00  0.00     0.152 C 
ATOM     46  OS2 IDY d 142      -2.875  10.688  20.194  0.00  0.00    -0.572 OA
ATOM     47  O2  IDY d 142      -1.655  11.204  18.115  0.00  0.00    -0.244 OA
ATOM     48  OS1 IDY d 142      -0.718  11.813  20.309  0.00  0.00    -0.572 OA
ATOM     49  O5  IDY d 142      -1.779  13.261  15.768  0.00  0.00    -0.340 OA
ATOM     50  O1  IDY d 142      -4.184  12.883  16.253  0.00  0.00    -0.363 OA
ATOM     51  C7  IDY d 142      -4.040  14.176  15.444  0.00  0.00     0.007 C 
ATOM     52  OS3 IDY d 142      -2.715  12.983  19.545  0.00  0.00    -0.572 OA
ATOM     53  C4  IDY d 142      -1.328  10.998  14.826  0.00  0.00     0.103 C 
ATOM     54  H   IDY d 142      -2.547  13.464  17.534  0.00  0.00     0.133 H 
ATOM     55  H   IDY d 142      -1.455  10.232  16.233  0.00  0.00     0.091 H 
ATOM     56  H   IDY d 142      -4.184   9.990  15.085  0.00  0.00     0.210 HD
ATOM     57  H   IDY d 142      -3.575  10.929  17.493  0.00  0.00     0.097 H 
ATOM     58  H   IDY d 142      -2.248  12.660  13.878  0.00  0.00     0.104 H 
ATOM     59  H   IDY d 142      -4.981  14.426  15.001  0.00  0.00     0.066 H 
ATOM     60  H   IDY d 142      -3.309  14.036  14.674  0.00  0.00     0.066 H 
ATOM     61  H   IDY d 142      -3.728  14.969  16.091  0.00  0.00     0.066 H 
ATOM     62  H   IDY d 142      -1.172  10.835  13.781  0.00  0.00     0.092 H 
ENDROOT
TORSDOF 19
ENDMDL
MODEL 34
REMARK VINA RESULT:      -6.2      2.105      2.676
REMARK  0 active torsions:
REMARK  status: ('A' for Active; 'I' for Inactive)
REMARK       I    between atoms: O3_1  and  C3_8 
REMARK       I    between atoms: O3_1  and  S3_11 
REMARK       I    between atoms: C1_2  and  O1_36 
REMARK       I    between atoms: C6_3  and  C5_27 
REMARK       I    between atoms: C6_3  and  O6_25 
REMARK       I    between atoms: O3S_4  and  S1_32 
REMARK       I    between atoms: C3_5  and  O3_9 
REMARK       I    between atoms: N_6  and  S1_32 
REMARK       I    between atoms: N_6  and  C2_39 
REMARK       I    between atoms: S_7  and  O2_30 
REMARK       I    between atoms: O4_12  and  C1_29 
REMARK       I    between atoms: O4_12  and  C4_40 
REMARK       I    between atoms: O4_13  and  C4_28 
REMARK       I    between atoms: C2_14  and  O2_30 
REMARK       I    between atoms: C6_15  and  C5_23 
REMARK       I    between atoms: S2_16  and  O6_25 
REMARK       I    between atoms: O1S_22  and  S1_32 
REMARK       I    between atoms: S1_32  and  O2S_33 
REMARK       I    between atoms: O1_36  and  C7_37 
ROOT
ATOM      1  O3  SUS d 141       2.094   8.127  19.593  0.00  0.00    -0.247 OA
ATOM      2  C6  SUS d 141       2.845   9.250  14.887  0.00  0.00     0.067 C 
ATOM      3  O3S SUS d 141      -1.916  10.559  21.188  0.00  0.00    -0.296 OA
ATOM      4  N   SUS d 141      -0.070  10.084  19.636  0.00  0.00    -0.210 NA
ATOM      5  C3  SUS d 141       1.957   9.163  18.647  0.00  0.00     0.107 C 
ATOM      6  O6S SUS d 141       2.203   8.364  11.658  0.00  0.00    -0.572 OA
ATOM      7  S3  SUS d 141       2.338   8.260  20.990  0.00  0.00     0.252 S 
ATOM      8  O4  SUS d 141       4.014   8.713  17.501  0.00  0.00    -0.390 OA
ATOM      9  S2  SUS d 141       1.854   7.840  12.975  0.00  0.00     0.251 S 
ATOM     10  O5  SUS d 141       0.854   9.805  16.100  0.00  0.00    -0.349 OA
ATOM     11  O8S SUS d 141       2.050   9.469  21.727  0.00  0.00    -0.572 OA
ATOM     12  O4S SUS d 141       2.862   6.915  13.487  0.00  0.00    -0.572 OA
ATOM     13  O1S SUS d 141      -2.362   9.349  19.143  0.00  0.00    -0.296 OA
ATOM     14  O7S SUS d 141       3.741   7.984  21.161  0.00  0.00    -0.572 OA
ATOM     15  O6  SUS d 141       1.805   9.054  13.955  0.00  0.00    -0.254 OA
ATOM     16  C5  SUS d 141       2.257   9.712  16.213  0.00  0.00     0.090 C 
ATOM     17  C4  SUS d 141       2.613   8.745  17.336  0.00  0.00     0.090 C 
ATOM     18  C1  SUS d 141       0.272  10.389  17.243  0.00  0.00     0.150 C 
ATOM     19  O9S SUS d 141       1.642   7.134  21.575  0.00  0.00    -0.572 OA
ATOM     20  S1  SUS d 141      -1.439   9.540  20.258  0.00  0.00     0.156 S 
ATOM     21  O2S SUS d 141      -1.124   8.287  20.939  0.00  0.00    -0.296 OA
ATOM     22  C2  SUS d 141       0.479   9.471  18.443  0.00  0.00     0.083 C 
ATOM     23  O5S SUS d 141       0.532   7.222  12.990  0.00  0.00    -0.572 OA
ATOM     24  H   SUS d 141       3.373   8.330  15.031  0.00  0.00     0.080 H 
ATOM     25  H   SUS d 141       3.519   9.994  14.517  0.00  0.00     0.080 H 
ATOM     26  H   SUS d 141      -2.115  11.374  20.701  0.00  0.00     0.231 HD
ATOM     27  H   SUS d 141       0.640   9.996  20.365  0.00  0.00     0.140 HD
ATOM     28  H   SUS d 141       2.442  10.049  19.002  0.00  0.00     0.092 H 
ATOM     29  H   SUS d 141       4.241   8.098  18.216  0.00  0.00     0.210 HD
ATOM     30  H   SUS d 141      -2.543  10.203  18.722  0.00  0.00     0.231 HD
ATOM     31  H   SUS d 141       2.668  10.671  16.448  0.00  0.00     0.090 H 
ATOM     32  H   SUS d 141       2.252   7.772  17.072  0.00  0.00     0.091 H 
ATOM     33  H   SUS d 141      -0.776  10.530  17.078  0.00  0.00     0.131 H 
ATOM     34  H   SUS d 141      -0.510   8.462  21.669  0.00  0.00     0.231 HD
ATOM     35  H   SUS d 141      -0.033   8.551  18.252  0.00  0.00     0.076 H 
ATOM     36  C1  IDY d 142       1.017  15.127  19.065  0.00  0.00     0.160 C 
ATOM     37  C3  IDY d 142      -0.134  13.553  17.646  0.00  0.00     0.094 C 
ATOM     38  S   IDY d 142       0.180  13.362  21.526  0.00  0.00     0.252 S 
ATOM     39  O3  IDY d 142      -1.489  13.700  16.998  0.00  0.00    -0.390 OA
ATOM     40  O4  IDY d 142       0.881  11.635  17.495  0.00  0.00    -0.348 OA
ATOM     41  C2  IDY d 142      -0.044  14.050  19.049  0.00  0.00     0.134 C 
ATOM     42  C6  IDY d 142       3.435  13.702  16.514  0.00  0.00     0.206 C 
ATOM     43  O61 IDY d 142       4.162  13.071  17.357  0.00  0.00    -0.646 OA
ATOM     44  O62 IDY d 142       3.933  13.881  15.298  0.00  0.00    -0.646 OA
ATOM     45  C5  IDY d 142       2.098  14.294  16.916  0.00  0.00     0.152 C 
ATOM     46  OS2 IDY d 142      -1.248  13.277  21.889  0.00  0.00    -0.572 OA
ATOM     47  O2  IDY d 142       0.339  13.038  20.018  0.00  0.00    -0.244 OA
ATOM     48  OS1 IDY d 142       0.977  12.378  22.303  0.00  0.00    -0.572 OA
ATOM     49  O5  IDY d 142       2.193  14.839  18.265  0.00  0.00    -0.340 OA
ATOM     50  O1  IDY d 142       0.224  16.310  18.618  0.00  0.00    -0.363 OA
ATOM     51  C7  IDY d 142       1.408  17.169  18.162  0.00  0.00     0.007 C 
ATOM     52  OS3 IDY d 142       0.637  14.746  21.842  0.00  0.00    -0.572 OA
ATOM     53  C4  IDY d 142       1.045  13.193  16.787  0.00  0.00     0.103 C 
ATOM     54  H   IDY d 142       1.485  15.257  20.018  0.00  0.00     0.133 H 
ATOM     55  H   IDY d 142       0.137  12.565  17.954  0.00  0.00     0.091 H 
ATOM     56  H   IDY d 142      -1.633  14.629  16.758  0.00  0.00     0.210 HD
ATOM     57  H   IDY d 142      -1.017  14.392  19.331  0.00  0.00     0.097 H 
ATOM     58  H   IDY d 142       1.813  15.106  16.280  0.00  0.00     0.104 H 
ATOM     59  H   IDY d 142       1.047  18.104  17.789  0.00  0.00     0.066 H 
ATOM     60  H   IDY d 142       1.943  16.658  17.389  0.00  0.00     0.066 H 
ATOM     61  H   IDY d 142       2.062  17.344  18.991  0.00  0.00     0.066 H 
ATOM     62  H   IDY d 142       1.234  13.140  15.736  0.00  0.00     0.092 H 
ENDROOT
TORSDOF 19
ENDMDL
MODEL 35
REMARK VINA RESULT:      -6.2      2.854      5.816
REMARK  0 active torsions:
REMARK  status: ('A' for Active; 'I' for Inactive)
REMARK       I    between atoms: O3_1  and  C3_8 
REMARK       I    between atoms: O3_1  and  S3_11 
REMARK       I    between atoms: C1_2  and  O1_36 
REMARK       I    between atoms: C6_3  and  C5_27 
REMARK       I    between atoms: C6_3  and  O6_25 
REMARK       I    between atoms: O3S_4  and  S1_32 
REMARK       I    between atoms: C3_5  and  O3_9 
REMARK       I    between atoms: N_6  and  S1_32 
REMARK       I    between atoms: N_6  and  C2_39 
REMARK       I    between atoms: S_7  and  O2_30 
REMARK       I    between atoms: O4_12  and  C1_29 
REMARK       I    between atoms: O4_12  and  C4_40 
REMARK       I    between atoms: O4_13  and  C4_28 
REMARK       I    between atoms: C2_14  and  O2_30 
REMARK       I    between atoms: C6_15  and  C5_23 
REMARK       I    between atoms: S2_16  and  O6_25 
REMARK       I    between atoms: O1S_22  and  S1_32 
REMARK       I    between atoms: S1_32  and  O2S_33 
REMARK       I    between atoms: O1_36  and  C7_37 
ROOT
ATOM      1  O3  SUS d 141      -1.982   8.476  18.247  0.00  0.00    -0.247 OA
ATOM      2  C6  SUS d 141      -3.749  11.671  14.985  0.00  0.00     0.067 C 
ATOM      3  O3S SUS d 141       0.698  10.946  21.602  0.00  0.00    -0.296 OA
ATOM      4  N   SUS d 141      -0.484  10.663  19.465  0.00  0.00    -0.210 NA
ATOM      5  C3  SUS d 141      -1.694   9.688  17.589  0.00  0.00     0.107 C 
ATOM      6  O6S SUS d 141      -6.373  13.693  14.182  0.00  0.00    -0.572 OA
ATOM      7  S3  SUS d 141      -1.052   7.494  18.696  0.00  0.00     0.252 S 
ATOM      8  O4  SUS d 141      -2.609   9.034  15.472  0.00  0.00    -0.390 OA
ATOM      9  S2  SUS d 141      -6.057  12.773  15.271  0.00  0.00     0.251 S 
ATOM     10  O5  SUS d 141      -2.706  12.296  17.050  0.00  0.00    -0.349 OA
ATOM     11  O8S SUS d 141       0.342   7.785  18.939  0.00  0.00    -0.572 OA
ATOM     12  O4S SUS d 141      -6.458  11.401  14.969  0.00  0.00    -0.572 OA
ATOM     13  O1S SUS d 141      -1.495  11.924  21.317  0.00  0.00    -0.296 OA
ATOM     14  O7S SUS d 141      -1.101   6.444  17.712  0.00  0.00    -0.572 OA
ATOM     15  O6  SUS d 141      -4.506  12.772  15.436  0.00  0.00    -0.254 OA
ATOM     16  C5  SUS d 141      -2.639  11.375  15.984  0.00  0.00     0.090 C 
ATOM     17  C4  SUS d 141      -2.756   9.957  16.529  0.00  0.00     0.090 C 
ATOM     18  C1  SUS d 141      -1.602  12.177  17.918  0.00  0.00     0.150 C 
ATOM     19  O9S SUS d 141      -1.669   6.947  19.885  0.00  0.00    -0.572 OA
ATOM     20  S1  SUS d 141      -0.643  10.768  21.054  0.00  0.00     0.156 S 
ATOM     21  O2S SUS d 141      -1.252   9.517  21.499  0.00  0.00    -0.296 OA
ATOM     22  C2  SUS d 141      -1.643  10.819  18.609  0.00  0.00     0.083 C 
ATOM     23  O5S SUS d 141      -6.625  13.208  16.543  0.00  0.00    -0.572 OA
ATOM     24  H   SUS d 141      -4.385  10.815  14.894  0.00  0.00     0.080 H 
ATOM     25  H   SUS d 141      -3.321  11.900  14.032  0.00  0.00     0.080 H 
ATOM     26  H   SUS d 141       1.069  11.785  21.285  0.00  0.00     0.231 HD
ATOM     27  H   SUS d 141      -0.095   9.740  19.269  0.00  0.00     0.140 HD
ATOM     28  H   SUS d 141      -0.741   9.624  17.106  0.00  0.00     0.092 H 
ATOM     29  H   SUS d 141      -2.684   8.131  15.818  0.00  0.00     0.210 HD
ATOM     30  H   SUS d 141      -1.053  12.729  21.006  0.00  0.00     0.231 HD
ATOM     31  H   SUS d 141      -1.699  11.468  15.480  0.00  0.00     0.090 H 
ATOM     32  H   SUS d 141      -3.720   9.847  16.981  0.00  0.00     0.091 H 
ATOM     33  H   SUS d 141      -1.641  12.954  18.653  0.00  0.00     0.131 H 
ATOM     34  H   SUS d 141      -0.653   8.779  21.304  0.00  0.00     0.231 HD
ATOM     35  H   SUS d 141      -2.531  10.774  19.205  0.00  0.00     0.076 H 
ATOM     36  C1  IDY d 142       3.349  12.941  16.810  0.00  0.00     0.160 C 
ATOM     37  C3  IDY d 142       1.183  13.733  17.518  0.00  0.00     0.094 C 
ATOM     38  S   IDY d 142       3.291  10.934  19.227  0.00  0.00     0.252 S 
ATOM     39  O3  IDY d 142       0.854  15.001  18.266  0.00  0.00    -0.390 OA
ATOM     40  O4  IDY d 142      -0.408  12.290  17.176  0.00  0.00    -0.348 OA
ATOM     41  C2  IDY d 142       2.405  13.018  17.988  0.00  0.00     0.134 C 
ATOM     42  C6  IDY d 142       0.848  12.506  13.993  0.00  0.00     0.206 C 
ATOM     43  O61 IDY d 142       0.862  11.227  13.997  0.00  0.00    -0.646 OA
ATOM     44  O62 IDY d 142       0.318  13.103  12.933  0.00  0.00    -0.646 OA
ATOM     45  C5  IDY d 142       1.488  13.305  15.112  0.00  0.00     0.152 C 
ATOM     46  OS2 IDY d 142       3.353  11.471  20.600  0.00  0.00    -0.572 OA
ATOM     47  O2  IDY d 142       2.163  11.662  18.449  0.00  0.00    -0.244 OA
ATOM     48  OS1 IDY d 142       2.983   9.481  19.246  0.00  0.00    -0.572 OA
ATOM     49  O5  IDY d 142       2.718  12.646  15.538  0.00  0.00    -0.340 OA
ATOM     50  O1  IDY d 142       4.009  14.278  16.892  0.00  0.00    -0.363 OA
ATOM     51  C7  IDY d 142       4.511  14.329  15.445  0.00  0.00     0.007 C 
ATOM     52  OS3 IDY d 142       4.625  11.161  18.600  0.00  0.00    -0.572 OA
ATOM     53  C4  IDY d 142       0.459  13.438  16.235  0.00  0.00     0.103 C 
ATOM     54  H   IDY d 142       4.033  12.120  16.857  0.00  0.00     0.133 H 
ATOM     55  H   IDY d 142       0.573  12.882  17.738  0.00  0.00     0.091 H 
ATOM     56  H   IDY d 142       1.463  15.705  17.993  0.00  0.00     0.210 HD
ATOM     57  H   IDY d 142       2.793  13.562  18.824  0.00  0.00     0.097 H 
ATOM     58  H   IDY d 142       1.766  14.288  14.793  0.00  0.00     0.104 H 
ATOM     59  H   IDY d 142       5.035  15.246  15.281  0.00  0.00     0.066 H 
ATOM     60  H   IDY d 142       3.677  14.271  14.776  0.00  0.00     0.066 H 
ATOM     61  H   IDY d 142       5.168  13.505  15.266  0.00  0.00     0.066 H 
ATOM     62  H   IDY d 142      -0.182  13.987  15.579  0.00  0.00     0.092 H 
ENDROOT
TORSDOF 19
ENDMDL
MODEL 36
REMARK VINA RESULT:      -6.2      1.407      1.628
REMARK  0 active torsions:
REMARK  status: ('A' for Active; 'I' for Inactive)
REMARK       I    between atoms: O3_1  and  C3_8 
REMARK       I    between atoms: O3_1  and  S3_11 
REMARK       I    between atoms: C1_2  and  O1_36 
REMARK       I    between atoms: C6_3  and  C5_27 
REMARK       I    between atoms: C6_3  and  O6_25 
REMARK       I    between atoms: O3S_4  and  S1_32 
REMARK       I    between atoms: C3_5  and  O3_9 
REMARK       I    between atoms: N_6  and  S1_32 
REMARK       I    between atoms: N_6  and  C2_39 
REMARK       I    between atoms: S_7  and  O2_30 
REMARK       I    between atoms: O4_12  and  C1_29 
REMARK       I    between atoms: O4_12  and  C4_40 
REMARK       I    between atoms: O4_13  and  C4_28 
REMARK       I    between atoms: C2_14  and  O2_30 
REMARK       I    between atoms: C6_15  and  C5_23 
REMARK       I    between atoms: S2_16  and  O6_25 
REMARK       I    between atoms: O1S_22  and  S1_32 
REMARK       I    between atoms: S1_32  and  O2S_33 
REMARK       I    between atoms: O1_36  and  C7_37 
ROOT
ATOM      1  O3  SUS d 141      -0.998   8.009  17.012  0.00  0.00    -0.247 OA
ATOM      2  C6  SUS d 141       2.795   9.450  14.273  0.00  0.00     0.067 C 
ATOM      3  O3S SUS d 141      -4.250  11.734  17.312  0.00  0.00    -0.296 OA
ATOM      4  N   SUS d 141      -2.064  10.718  16.827  0.00  0.00    -0.210 NA
ATOM      5  C3  SUS d 141      -0.222   9.133  16.668  0.00  0.00     0.107 C 
ATOM      6  O6S SUS d 141       4.094   9.566  11.124  0.00  0.00    -0.572 OA
ATOM      7  S3  SUS d 141      -1.655   7.759  18.252  0.00  0.00     0.252 S 
ATOM      8  O4  SUS d 141       1.871   7.966  16.605  0.00  0.00    -0.390 OA
ATOM      9  S2  SUS d 141       2.872   9.048  11.733  0.00  0.00     0.251 S 
ATOM     10  O5  SUS d 141       0.738  10.663  14.464  0.00  0.00    -0.349 OA
ATOM     11  O8S SUS d 141      -1.989   8.806  19.189  0.00  0.00    -0.572 OA
ATOM     12  O4S SUS d 141       3.032   7.681  12.219  0.00  0.00    -0.572 OA
ATOM     13  O1S SUS d 141      -3.637  11.268  15.020  0.00  0.00    -0.296 OA
ATOM     14  O7S SUS d 141      -0.812   6.821  18.947  0.00  0.00    -0.572 OA
ATOM     15  O6  SUS d 141       2.562   9.942  12.974  0.00  0.00    -0.254 OA
ATOM     16  C5  SUS d 141       1.667   9.893  15.194  0.00  0.00     0.090 C 
ATOM     17  C4  SUS d 141       0.959   8.692  15.810  0.00  0.00     0.090 C 
ATOM     18  C1  SUS d 141      -0.238  11.241  15.301  0.00  0.00     0.150 C 
ATOM     19  O9S SUS d 141      -2.840   7.019  17.877  0.00  0.00    -0.572 OA
ATOM     20  S1  SUS d 141      -3.604  10.794  16.400  0.00  0.00     0.156 S 
ATOM     21  O2S SUS d 141      -4.146   9.445  16.537  0.00  0.00    -0.296 OA
ATOM     22  C2  SUS d 141      -1.090  10.141  15.923  0.00  0.00     0.083 C 
ATOM     23  O5S SUS d 141       1.724   9.145  10.836  0.00  0.00    -0.572 OA
ATOM     24  H   SUS d 141       2.836   8.380  14.247  0.00  0.00     0.080 H 
ATOM     25  H   SUS d 141       3.725   9.834  14.638  0.00  0.00     0.080 H 
ATOM     26  H   SUS d 141      -3.865  12.617  17.192  0.00  0.00     0.231 HD
ATOM     27  H   SUS d 141      -2.025  10.175  17.690  0.00  0.00     0.140 HD
ATOM     28  H   SUS d 141       0.157   9.600  17.553  0.00  0.00     0.092 H 
ATOM     29  H   SUS d 141       1.422   7.202  16.997  0.00  0.00     0.210 HD
ATOM     30  H   SUS d 141      -3.269  12.164  14.976  0.00  0.00     0.231 HD
ATOM     31  H   SUS d 141       2.087  10.480  15.984  0.00  0.00     0.090 H 
ATOM     32  H   SUS d 141       0.590   8.074  15.018  0.00  0.00     0.091 H 
ATOM     33  H   SUS d 141      -0.862  11.892  14.724  0.00  0.00     0.131 H 
ATOM     34  H   SUS d 141      -4.104   9.172  17.467  0.00  0.00     0.231 HD
ATOM     35  H   SUS d 141      -1.600   9.626  15.135  0.00  0.00     0.076 H 
ATOM     36  C1  IDY d 142       0.485  14.639  19.076  0.00  0.00     0.160 C 
ATOM     37  C3  IDY d 142       0.092  14.086  16.761  0.00  0.00     0.094 C 
ATOM     38  S   IDY d 142      -2.151  13.085  19.788  0.00  0.00     0.252 S 
ATOM     39  O3  IDY d 142      -0.454  14.974  15.671  0.00  0.00    -0.390 OA
ATOM     40  O4  IDY d 142       0.396  11.977  16.322  0.00  0.00    -0.348 OA
ATOM     41  C2  IDY d 142      -0.579  14.223  18.086  0.00  0.00     0.134 C 
ATOM     42  C6  IDY d 142       3.448  12.710  17.703  0.00  0.00     0.206 C 
ATOM     43  O61 IDY d 142       3.279  11.671  18.429  0.00  0.00    -0.646 OA
ATOM     44  O62 IDY d 142       4.620  12.842  17.096  0.00  0.00    -0.646 OA
ATOM     45  C5  IDY d 142       2.384  13.788  17.610  0.00  0.00     0.152 C 
ATOM     46  OS2 IDY d 142      -3.445  13.630  19.333  0.00  0.00    -0.572 OA
ATOM     47  O2  IDY d 142      -1.184  12.997  18.579  0.00  0.00    -0.244 OA
ATOM     48  OS1 IDY d 142      -2.325  11.719  20.348  0.00  0.00    -0.572 OA
ATOM     49  O5  IDY d 142       1.763  13.972  18.917  0.00  0.00    -0.340 OA
ATOM     50  O1  IDY d 142       0.512  16.115  18.854  0.00  0.00    -0.363 OA
ATOM     51  C7  IDY d 142       1.900  16.370  19.451  0.00  0.00     0.007 C 
ATOM     52  OS3 IDY d 142      -1.629  14.002  20.843  0.00  0.00    -0.572 OA
ATOM     53  C4  IDY d 142       1.389  13.365  16.528  0.00  0.00     0.103 C 
ATOM     54  H   IDY d 142       0.269  14.359  20.086  0.00  0.00     0.133 H 
ATOM     55  H   IDY d 142      -0.177  13.052  16.706  0.00  0.00     0.091 H 
ATOM     56  H   IDY d 142      -0.152  15.886  15.814  0.00  0.00     0.210 HD
ATOM     57  H   IDY d 142      -1.371  14.932  17.973  0.00  0.00     0.097 H 
ATOM     58  H   IDY d 142       2.797  14.735  17.334  0.00  0.00     0.104 H 
ATOM     59  H   IDY d 142       2.129  17.413  19.390  0.00  0.00     0.066 H 
ATOM     60  H   IDY d 142       2.632  15.812  18.905  0.00  0.00     0.066 H 
ATOM     61  H   IDY d 142       1.910  16.061  20.476  0.00  0.00     0.066 H 
ATOM     62  H   IDY d 142       2.168  13.416  15.797  0.00  0.00     0.092 H 
ENDROOT
TORSDOF 19
ENDMDL
MODEL 37
REMARK VINA RESULT:      -6.2      2.377      6.592
REMARK  0 active torsions:
REMARK  status: ('A' for Active; 'I' for Inactive)
REMARK       I    between atoms: O3_1  and  C3_8 
REMARK       I    between atoms: O3_1  and  S3_11 
REMARK       I    between atoms: C1_2  and  O1_36 
REMARK       I    between atoms: C6_3  and  C5_27 
REMARK       I    between atoms: C6_3  and  O6_25 
REMARK       I    between atoms: O3S_4  and  S1_32 
REMARK       I    between atoms: C3_5  and  O3_9 
REMARK       I    between atoms: N_6  and  S1_32 
REMARK       I    between atoms: N_6  and  C2_39 
REMARK       I    between atoms: S_7  and  O2_30 
REMARK       I    between atoms: O4_12  and  C1_29 
REMARK       I    between atoms: O4_12  and  C4_40 
REMARK       I    between atoms: O4_13  and  C4_28 
REMARK       I    between atoms: C2_14  and  O2_30 
REMARK       I    between atoms: C6_15  and  C5_23 
REMARK       I    between atoms: S2_16  and  O6_25 
REMARK       I    between atoms: O1S_22  and  S1_32 
REMARK       I    between atoms: S1_32  and  O2S_33 
REMARK       I    between atoms: O1_36  and  C7_37 
ROOT
ATOM      1  O3  SUS d 141      -2.640   9.822  17.774  0.00  0.00    -0.247 OA
ATOM      2  C6  SUS d 141      -1.015  13.984  19.776  0.00  0.00     0.067 C 
ATOM      3  O3S SUS d 141       1.126   7.600  15.447  0.00  0.00    -0.296 OA
ATOM      4  N   SUS d 141      -0.019   9.481  16.540  0.00  0.00    -0.210 NA
ATOM      5  C3  SUS d 141      -1.718  10.872  17.595  0.00  0.00     0.107 C 
ATOM      6  O6S SUS d 141       0.303  15.421  22.572  0.00  0.00    -0.572 OA
ATOM      7  S3  SUS d 141      -3.296   9.065  16.760  0.00  0.00     0.252 S 
ATOM      8  O4  SUS d 141      -3.172  12.605  18.385  0.00  0.00    -0.390 OA
ATOM      9  S2  SUS d 141      -0.132  14.080  22.191  0.00  0.00     0.251 S 
ATOM     10  O5  SUS d 141       0.408  12.290  18.855  0.00  0.00    -0.349 OA
ATOM     11  O8S SUS d 141      -2.792   8.959  15.410  0.00  0.00    -0.572 OA
ATOM     12  O4S SUS d 141      -1.555  13.868  22.442  0.00  0.00    -0.572 OA
ATOM     13  O1S SUS d 141       1.704   8.186  17.721  0.00  0.00    -0.296 OA
ATOM     14  O7S SUS d 141      -4.625   9.611  16.676  0.00  0.00    -0.572 OA
ATOM     15  O6  SUS d 141       0.088  13.945  20.653  0.00  0.00    -0.254 OA
ATOM     16  C5  SUS d 141      -0.819  12.960  18.667  0.00  0.00     0.090 C 
ATOM     17  C4  SUS d 141      -1.955  11.944  18.652  0.00  0.00     0.090 C 
ATOM     18  C1  SUS d 141       0.721  11.451  17.767  0.00  0.00     0.150 C 
ATOM     19  O9S SUS d 141      -3.446   7.751  17.348  0.00  0.00    -0.572 OA
ATOM     20  S1  SUS d 141       0.626   8.032  16.749  0.00  0.00     0.156 S 
ATOM     21  O2S SUS d 141      -0.442   7.163  17.237  0.00  0.00    -0.296 OA
ATOM     22  C2  SUS d 141      -0.299  10.322  17.686  0.00  0.00     0.083 C 
ATOM     23  O5S SUS d 141       0.664  13.038  22.833  0.00  0.00    -0.572 OA
ATOM     24  H   SUS d 141      -1.910  13.756  20.319  0.00  0.00     0.080 H 
ATOM     25  H   SUS d 141      -1.096  14.962  19.349  0.00  0.00     0.080 H 
ATOM     26  H   SUS d 141       1.832   8.199  15.157  0.00  0.00     0.231 HD
ATOM     27  H   SUS d 141      -0.905   9.341  16.053  0.00  0.00     0.140 HD
ATOM     28  H   SUS d 141      -1.849  11.313  16.629  0.00  0.00     0.092 H 
ATOM     29  H   SUS d 141      -3.896  11.960  18.375  0.00  0.00     0.210 HD
ATOM     30  H   SUS d 141       2.388   8.768  17.356  0.00  0.00     0.231 HD
ATOM     31  H   SUS d 141      -0.813  13.475  17.729  0.00  0.00     0.090 H 
ATOM     32  H   SUS d 141      -1.998  11.470  19.611  0.00  0.00     0.091 H 
ATOM     33  H   SUS d 141       1.700  11.040  17.904  0.00  0.00     0.131 H 
ATOM     34  H   SUS d 141      -1.134   7.090  16.561  0.00  0.00     0.231 HD
ATOM     35  H   SUS d 141      -0.223   9.738  18.580  0.00  0.00     0.076 H 
ATOM     36  C1  IDY d 142       1.557  12.821  12.894  0.00  0.00     0.160 C 
ATOM     37  C3  IDY d 142       2.316  12.414  15.147  0.00  0.00     0.094 C 
ATOM     38  S   IDY d 142       0.544   9.848  12.808  0.00  0.00     0.252 S 
ATOM     39  O3  IDY d 142       3.725  12.162  15.624  0.00  0.00    -0.390 OA
ATOM     40  O4  IDY d 142       0.688  12.199  16.573  0.00  0.00    -0.348 OA
ATOM     41  C2  IDY d 142       1.947  11.736  13.871  0.00  0.00     0.134 C 
ATOM     42  C6  IDY d 142      -0.110  15.267  15.265  0.00  0.00     0.206 C 
ATOM     43  O61 IDY d 142      -1.295  14.808  15.120  0.00  0.00    -0.646 OA
ATOM     44  O62 IDY d 142       0.012  16.463  15.826  0.00  0.00    -0.646 OA
ATOM     45  C5  IDY d 142       1.097  14.514  14.739  0.00  0.00     0.152 C 
ATOM     46  OS2 IDY d 142       1.536   8.756  12.836  0.00  0.00    -0.572 OA
ATOM     47  O2  IDY d 142       0.825  10.819  13.984  0.00  0.00    -0.244 OA
ATOM     48  OS1 IDY d 142      -0.832   9.310  12.966  0.00  0.00    -0.572 OA
ATOM     49  O5  IDY d 142       0.765  13.897  13.460  0.00  0.00    -0.340 OA
ATOM     50  O1  IDY d 142       2.896  13.229  12.377  0.00  0.00    -0.363 OA
ATOM     51  C7  IDY d 142       2.482  14.606  11.847  0.00  0.00     0.007 C 
ATOM     52  OS3 IDY d 142       0.672  10.532  11.489  0.00  0.00    -0.572 OA
ATOM     53  C4  IDY d 142       1.511  13.498  15.804  0.00  0.00     0.103 C 
ATOM     54  H   IDY d 142       0.882  12.494  12.131  0.00  0.00     0.133 H 
ATOM     55  H   IDY d 142       1.540  11.897  15.672  0.00  0.00     0.091 H 
ATOM     56  H   IDY d 142       4.346  12.675  15.083  0.00  0.00     0.210 HD
ATOM     57  H   IDY d 142       2.790  11.153  13.562  0.00  0.00     0.097 H 
ATOM     58  H   IDY d 142       1.926  15.165  14.555  0.00  0.00     0.104 H 
ATOM     59  H   IDY d 142       3.332  15.091  11.415  0.00  0.00     0.066 H 
ATOM     60  H   IDY d 142       2.104  15.199  12.653  0.00  0.00     0.066 H 
ATOM     61  H   IDY d 142       1.722  14.488  11.103  0.00  0.00     0.066 H 
ATOM     62  H   IDY d 142       1.721  14.299  16.481  0.00  0.00     0.092 H 
ENDROOT
TORSDOF 19
ENDMDL
MODEL 38
REMARK VINA RESULT:      -6.1      2.974      6.094
REMARK  0 active torsions:
REMARK  status: ('A' for Active; 'I' for Inactive)
REMARK       I    between atoms: O3_1  and  C3_8 
REMARK       I    between atoms: O3_1  and  S3_11 
REMARK       I    between atoms: C1_2  and  O1_36 
REMARK       I    between atoms: C6_3  and  C5_27 
REMARK       I    between atoms: C6_3  and  O6_25 
REMARK       I    between atoms: O3S_4  and  S1_32 
REMARK       I    between atoms: C3_5  and  O3_9 
REMARK       I    between atoms: N_6  and  S1_32 
REMARK       I    between atoms: N_6  and  C2_39 
REMARK       I    between atoms: S_7  and  O2_30 
REMARK       I    between atoms: O4_12  and  C1_29 
REMARK       I    between atoms: O4_12  and  C4_40 
REMARK       I    between atoms: O4_13  and  C4_28 
REMARK       I    between atoms: C2_14  and  O2_30 
REMARK       I    between atoms: C6_15  and  C5_23 
REMARK       I    between atoms: S2_16  and  O6_25 
REMARK       I    between atoms: O1S_22  and  S1_32 
REMARK       I    between atoms: S1_32  and  O2S_33 
REMARK       I    between atoms: O1_36  and  C7_37 
ROOT
ATOM      1  O3  SUS d 141      -1.444  12.128  12.055  0.00  0.00    -0.247 OA
ATOM      2  C6  SUS d 141       2.550  14.168  14.020  0.00  0.00     0.067 C 
ATOM      3  O3S SUS d 141      -4.956  11.832  15.537  0.00  0.00    -0.296 OA
ATOM      4  N   SUS d 141      -2.663  12.141  14.706  0.00  0.00    -0.210 NA
ATOM      5  C3  SUS d 141      -0.710  12.238  13.253  0.00  0.00     0.107 C 
ATOM      6  O6S SUS d 141       4.214  17.088  14.587  0.00  0.00    -0.572 OA
ATOM      7  S3  SUS d 141      -2.229  11.020  11.622  0.00  0.00     0.252 S 
ATOM      8  O4  SUS d 141       1.450  12.160  12.217  0.00  0.00    -0.390 OA
ATOM      9  S2  SUS d 141       2.965  16.706  13.935  0.00  0.00     0.251 S 
ATOM     10  O5  SUS d 141       0.406  14.109  15.089  0.00  0.00    -0.349 OA
ATOM     11  O8S SUS d 141      -2.748  10.022  12.528  0.00  0.00    -0.572 OA
ATOM     12  O4S SUS d 141       3.158  16.362  12.529  0.00  0.00    -0.572 OA
ATOM     13  O1S SUS d 141      -4.035  14.063  15.386  0.00  0.00    -0.296 OA
ATOM     14  O7S SUS d 141      -1.416  10.332  10.653  0.00  0.00    -0.572 OA
ATOM     15  O6  SUS d 141       2.444  15.422  14.653  0.00  0.00    -0.254 OA
ATOM     16  C5  SUS d 141       1.288  13.357  14.287  0.00  0.00     0.090 C 
ATOM     17  C4  SUS d 141       0.595  12.979  12.984  0.00  0.00     0.090 C 
ATOM     18  C1  SUS d 141      -0.703  13.347  15.508  0.00  0.00     0.150 C 
ATOM     19  O9S SUS d 141      -3.306  11.628  10.871  0.00  0.00    -0.572 OA
ATOM     20  S1  SUS d 141      -4.140  12.753  14.751  0.00  0.00     0.156 S 
ATOM     21  O2S SUS d 141      -4.600  12.842  13.367  0.00  0.00    -0.296 OA
ATOM     22  C2  SUS d 141      -1.547  12.970  14.296  0.00  0.00     0.083 C 
ATOM     23  O5S SUS d 141       1.933  17.728  14.078  0.00  0.00    -0.572 OA
ATOM     24  H   SUS d 141       2.666  14.309  12.965  0.00  0.00     0.080 H 
ATOM     25  H   SUS d 141       3.399  13.644  14.406  0.00  0.00     0.080 H 
ATOM     26  H   SUS d 141      -4.621  11.800  16.447  0.00  0.00     0.231 HD
ATOM     27  H   SUS d 141      -2.692  11.348  14.065  0.00  0.00     0.140 HD
ATOM     28  H   SUS d 141      -0.476  11.264  13.629  0.00  0.00     0.092 H 
ATOM     29  H   SUS d 141       1.009  11.919  11.387  0.00  0.00     0.210 HD
ATOM     30  H   SUS d 141      -3.728  13.957  16.299  0.00  0.00     0.231 HD
ATOM     31  H   SUS d 141       1.567  12.458  14.796  0.00  0.00     0.090 H 
ATOM     32  H   SUS d 141       0.369  13.877  12.448  0.00  0.00     0.091 H 
ATOM     33  H   SUS d 141      -1.295  13.922  16.190  0.00  0.00     0.131 H 
ATOM     34  H   SUS d 141      -4.655  11.951  12.986  0.00  0.00     0.231 HD
ATOM     35  H   SUS d 141      -1.920  13.871  13.854  0.00  0.00     0.076 H 
ATOM     36  C1  IDY d 142      -0.685   9.148  18.457  0.00  0.00     0.160 C 
ATOM     37  C3  IDY d 142      -0.752  11.542  18.168  0.00  0.00     0.094 C 
ATOM     38  S   IDY d 142      -3.275   8.967  16.688  0.00  0.00     0.252 S 
ATOM     39  O3  IDY d 142      -1.219  12.586  19.152  0.00  0.00    -0.390 OA
ATOM     40  O4  IDY d 142      -0.252  12.175  16.148  0.00  0.00    -0.348 OA
ATOM     41  C2  IDY d 142      -1.588  10.309  18.107  0.00  0.00     0.134 C 
ATOM     42  C6  IDY d 142       2.549  10.334  16.870  0.00  0.00     0.206 C 
ATOM     43  O61 IDY d 142       2.365   9.759  15.743  0.00  0.00    -0.646 OA
ATOM     44  O62 IDY d 142       3.775  10.764  17.138  0.00  0.00    -0.646 OA
ATOM     45  C5  IDY d 142       1.434  10.442  17.892  0.00  0.00     0.152 C 
ATOM     46  OS2 IDY d 142      -4.538   9.522  17.214  0.00  0.00    -0.572 OA
ATOM     47  O2  IDY d 142      -2.164  10.042  16.799  0.00  0.00    -0.244 OA
ATOM     48  OS1 IDY d 142      -3.423   8.594  15.257  0.00  0.00    -0.572 OA
ATOM     49  O5  IDY d 142       0.646   9.215  17.883  0.00  0.00    -0.340 OA
ATOM     50  O1  IDY d 142      -0.732   9.196  19.948  0.00  0.00    -0.363 OA
ATOM     51  C7  IDY d 142       0.551   8.398  20.202  0.00  0.00     0.007 C 
ATOM     52  OS3 IDY d 142      -2.952   7.756  17.496  0.00  0.00    -0.572 OA
ATOM     53  C4  IDY d 142       0.611  11.685  17.552  0.00  0.00     0.103 C 
ATOM     54  H   IDY d 142      -1.003   8.214  18.045  0.00  0.00     0.133 H 
ATOM     55  H   IDY d 142      -0.940  11.749  17.135  0.00  0.00     0.091 H 
ATOM     56  H   IDY d 142      -1.001  12.302  20.053  0.00  0.00     0.210 HD
ATOM     57  H   IDY d 142      -2.408  10.443  18.781  0.00  0.00     0.097 H 
ATOM     58  H   IDY d 142       1.812  10.552  18.887  0.00  0.00     0.104 H 
ATOM     59  H   IDY d 142       0.713   8.310  21.256  0.00  0.00     0.066 H 
ATOM     60  H   IDY d 142       1.381   8.905  19.755  0.00  0.00     0.066 H 
ATOM     61  H   IDY d 142       0.456   7.423  19.773  0.00  0.00     0.066 H 
ATOM     62  H   IDY d 142       1.468  12.298  17.732  0.00  0.00     0.092 H 
ENDROOT
TORSDOF 19
ENDMDL
MODEL 39
REMARK VINA RESULT:      -6.1      2.770      5.222
REMARK  0 active torsions:
REMARK  status: ('A' for Active; 'I' for Inactive)
REMARK       I    between atoms: O3_1  and  C3_8 
REMARK       I    between atoms: O3_1  and  S3_11 
REMARK       I    between atoms: C1_2  and  O1_36 
REMARK       I    between atoms: C6_3  and  C5_27 
REMARK       I    between atoms: C6_3  and  O6_25 
REMARK       I    between atoms: O3S_4  and  S1_32 
REMARK       I    between atoms: C3_5  and  O3_9 
REMARK       I    between atoms: N_6  and  S1_32 
REMARK       I    between atoms: N_6  and  C2_39 
REMARK       I    between atoms: S_7  and  O2_30 
REMARK       I    between atoms: O4_12  and  C1_29 
REMARK       I    between atoms: O4_12  and  C4_40 
REMARK       I    between atoms: O4_13  and  C4_28 
REMARK       I    between atoms: C2_14  and  O2_30 
REMARK       I    between atoms: C6_15  and  C5_23 
REMARK       I    between atoms: S2_16  and  O6_25 
REMARK       I    between atoms: O1S_22  and  S1_32 
REMARK       I    between atoms: S1_32  and  O2S_33 
REMARK       I    between atoms: O1_36  and  C7_37 
ROOT
ATOM      1  O3  SUS d 141      -3.476  11.445  15.663  0.00  0.00    -0.247 OA
ATOM      2  C6  SUS d 141       0.370   8.463  16.203  0.00  0.00     0.067 C 
ATOM      3  O3S SUS d 141      -2.191  15.987  17.168  0.00  0.00    -0.296 OA
ATOM      4  N   SUS d 141      -1.930  13.551  16.962  0.00  0.00    -0.210 NA
ATOM      5  C3  SUS d 141      -2.345  11.202  16.467  0.00  0.00     0.107 C 
ATOM      6  O6S SUS d 141       3.125   7.142  14.692  0.00  0.00    -0.572 OA
ATOM      7  S3  SUS d 141      -4.720  12.009  16.070  0.00  0.00     0.252 S 
ATOM      8  O4  SUS d 141      -2.516   8.812  16.404  0.00  0.00    -0.390 OA
ATOM      9  S2  SUS d 141       2.059   8.062  14.304  0.00  0.00     0.251 S 
ATOM     10  O5  SUS d 141       0.482  10.849  16.394  0.00  0.00    -0.349 OA
ATOM     11  O8S SUS d 141      -4.865  12.817  17.258  0.00  0.00    -0.572 OA
ATOM     12  O4S SUS d 141       0.894   7.365  13.768  0.00  0.00    -0.572 OA
ATOM     13  O1S SUS d 141      -0.602  15.089  15.582  0.00  0.00    -0.296 OA
ATOM     14  O7S SUS d 141      -5.619  10.892  16.203  0.00  0.00    -0.572 OA
ATOM     15  O6  SUS d 141       1.597   8.802  15.598  0.00  0.00    -0.254 OA
ATOM     16  C5  SUS d 141      -0.321   9.729  16.693  0.00  0.00     0.090 C 
ATOM     17  C4  SUS d 141      -1.688   9.894  16.039  0.00  0.00     0.090 C 
ATOM     18  C1  SUS d 141      -0.027  12.030  16.973  0.00  0.00     0.150 C 
ATOM     19  O9S SUS d 141      -5.169  12.739  14.905  0.00  0.00    -0.572 OA
ATOM     20  S1  SUS d 141      -1.925  14.946  16.179  0.00  0.00     0.156 S 
ATOM     21  O2S SUS d 141      -2.982  14.867  15.175  0.00  0.00    -0.296 OA
ATOM     22  C2  SUS d 141      -1.371  12.368  16.339  0.00  0.00     0.083 C 
ATOM     23  O5S SUS d 141       2.525   9.082  13.369  0.00  0.00    -0.572 OA
ATOM     24  H   SUS d 141      -0.256   7.969  15.488  0.00  0.00     0.080 H 
ATOM     25  H   SUS d 141       0.549   7.811  17.032  0.00  0.00     0.080 H 
ATOM     26  H   SUS d 141      -1.469  16.008  17.816  0.00  0.00     0.231 HD
ATOM     27  H   SUS d 141      -2.904  13.338  17.178  0.00  0.00     0.140 HD
ATOM     28  H   SUS d 141      -2.637  11.115  17.493  0.00  0.00     0.092 H 
ATOM     29  H   SUS d 141      -3.386   8.916  15.989  0.00  0.00     0.210 HD
ATOM     30  H   SUS d 141       0.067  15.137  16.283  0.00  0.00     0.231 HD
ATOM     31  H   SUS d 141      -0.458   9.650  17.751  0.00  0.00     0.090 H 
ATOM     32  H   SUS d 141      -1.555   9.914  14.978  0.00  0.00     0.091 H 
ATOM     33  H   SUS d 141       0.660  12.833  16.805  0.00  0.00     0.131 H 
ATOM     34  H   SUS d 141      -3.842  14.772  15.616  0.00  0.00     0.231 HD
ATOM     35  H   SUS d 141      -1.212  12.559  15.298  0.00  0.00     0.076 H 
ATOM     36  C1  IDY d 142      -0.625  13.065  21.962  0.00  0.00     0.160 C 
ATOM     37  C3  IDY d 142       0.690  13.038  19.940  0.00  0.00     0.094 C 
ATOM     38  S   IDY d 142      -2.737  14.825  20.441  0.00  0.00     0.252 S 
ATOM     39  O3  IDY d 142       1.928  13.840  19.623  0.00  0.00    -0.390 OA
ATOM     40  O4  IDY d 142      -0.197  11.836  18.359  0.00  0.00    -0.348 OA
ATOM     41  C2  IDY d 142      -0.385  13.785  20.655  0.00  0.00     0.134 C 
ATOM     42  C6  IDY d 142      -0.069   9.482  20.849  0.00  0.00     0.206 C 
ATOM     43  O61 IDY d 142      -1.293   9.237  20.570  0.00  0.00    -0.646 OA
ATOM     44  O62 IDY d 142       0.746   8.443  20.963  0.00  0.00    -0.646 OA
ATOM     45  C5  IDY d 142       0.409  10.896  21.122  0.00  0.00     0.152 C 
ATOM     46  OS2 IDY d 142      -2.365  16.196  20.040  0.00  0.00    -0.572 OA
ATOM     47  O2  IDY d 142      -1.650  13.839  19.942  0.00  0.00    -0.244 OA
ATOM     48  OS1 IDY d 142      -4.036  14.436  19.834  0.00  0.00    -0.572 OA
ATOM     49  O5  IDY d 142      -0.611  11.617  21.875  0.00  0.00    -0.340 OA
ATOM     50  O1  IDY d 142       0.452  13.656  22.810  0.00  0.00    -0.363 OA
ATOM     51  C7  IDY d 142       0.485  12.550  23.870  0.00  0.00     0.007 C 
ATOM     52  OS3 IDY d 142      -2.849  14.813  21.928  0.00  0.00    -0.572 OA
ATOM     53  C4  IDY d 142       0.732  11.545  19.776  0.00  0.00     0.103 C 
ATOM     54  H   IDY d 142      -1.609  13.204  22.357  0.00  0.00     0.133 H 
ATOM     55  H   IDY d 142       0.036  12.835  19.119  0.00  0.00     0.091 H 
ATOM     56  H   IDY d 142       2.449  13.965  20.432  0.00  0.00     0.210 HD
ATOM     57  H   IDY d 142      -0.052  14.795  20.767  0.00  0.00     0.097 H 
ATOM     58  H   IDY d 142       1.295  10.909  21.722  0.00  0.00     0.104 H 
ATOM     59  H   IDY d 142       1.224  12.785  24.607  0.00  0.00     0.066 H 
ATOM     60  H   IDY d 142       0.729  11.618  23.405  0.00  0.00     0.066 H 
ATOM     61  H   IDY d 142      -0.474  12.475  24.337  0.00  0.00     0.066 H 
ATOM     62  H   IDY d 142       1.499  10.818  19.613  0.00  0.00     0.092 H 
ENDROOT
TORSDOF 19
ENDMDL
MODEL 40
REMARK VINA RESULT:      -6.1      2.665      4.902
REMARK  0 active torsions:
REMARK  status: ('A' for Active; 'I' for Inactive)
REMARK       I    between atoms: O3_1  and  C3_8 
REMARK       I    between atoms: O3_1  and  S3_11 
REMARK       I    between atoms: C1_2  and  O1_36 
REMARK       I    between atoms: C6_3  and  C5_27 
REMARK       I    between atoms: C6_3  and  O6_25 
REMARK       I    between atoms: O3S_4  and  S1_32 
REMARK       I    between atoms: C3_5  and  O3_9 
REMARK       I    between atoms: N_6  and  S1_32 
REMARK       I    between atoms: N_6  and  C2_39 
REMARK       I    between atoms: S_7  and  O2_30 
REMARK       I    between atoms: O4_12  and  C1_29 
REMARK       I    between atoms: O4_12  and  C4_40 
REMARK       I    between atoms: O4_13  and  C4_28 
REMARK       I    between atoms: C2_14  and  O2_30 
REMARK       I    between atoms: C6_15  and  C5_23 
REMARK       I    between atoms: S2_16  and  O6_25 
REMARK       I    between atoms: O1S_22  and  S1_32 
REMARK       I    between atoms: S1_32  and  O2S_33 
REMARK       I    between atoms: O1_36  and  C7_37 
ROOT
ATOM      1  O3  SUS d 141      -2.623  10.049  15.926  0.00  0.00    -0.247 OA
ATOM      2  C6  SUS d 141       1.576  10.650  13.481  0.00  0.00     0.067 C 
ATOM      3  O3S SUS d 141      -2.470  12.795  20.047  0.00  0.00    -0.296 OA
ATOM      4  N   SUS d 141      -1.511  11.671  18.082  0.00  0.00    -0.210 NA
ATOM      5  C3  SUS d 141      -1.244  10.283  16.098  0.00  0.00     0.107 C 
ATOM      6  O6S SUS d 141       3.184  12.449  11.073  0.00  0.00    -0.572 OA
ATOM      7  S3  SUS d 141      -3.497   9.349  16.807  0.00  0.00     0.252 S 
ATOM      8  O4  SUS d 141      -0.534   8.828  14.330  0.00  0.00    -0.390 OA
ATOM      9  S2  SUS d 141       1.848  12.450  11.663  0.00  0.00     0.251 S 
ATOM     10  O5  SUS d 141       0.898  12.002  15.339  0.00  0.00    -0.349 OA
ATOM     11  O8S SUS d 141      -3.207   9.151  18.208  0.00  0.00    -0.572 OA
ATOM     12  O4S SUS d 141       0.943  11.528  10.983  0.00  0.00    -0.572 OA
ATOM     13  O1S SUS d 141      -1.908  14.096  18.087  0.00  0.00    -0.296 OA
ATOM     14  O7S SUS d 141      -3.667   8.046  16.220  0.00  0.00    -0.572 OA
ATOM     15  O6  SUS d 141       1.994  11.950  13.133  0.00  0.00    -0.254 OA
ATOM     16  C5  SUS d 141       0.897  10.682  14.843  0.00  0.00     0.090 C 
ATOM     17  C4  SUS d 141      -0.538  10.175  14.751  0.00  0.00     0.090 C 
ATOM     18  C1  SUS d 141       0.434  12.064  16.669  0.00  0.00     0.150 C 
ATOM     19  O9S SUS d 141      -4.768  10.023  16.645  0.00  0.00    -0.572 OA
ATOM     20  S1  SUS d 141      -2.472  12.846  18.588  0.00  0.00     0.156 S 
ATOM     21  O2S SUS d 141      -3.796  12.573  18.035  0.00  0.00    -0.296 OA
ATOM     22  C2  SUS d 141      -1.035  11.662  16.713  0.00  0.00     0.083 C 
ATOM     23  O5S SUS d 141       1.271  13.790  11.719  0.00  0.00    -0.572 OA
ATOM     24  H   SUS d 141       0.886  10.289  12.746  0.00  0.00     0.080 H 
ATOM     25  H   SUS d 141       2.426  10.002  13.521  0.00  0.00     0.080 H 
ATOM     26  H   SUS d 141      -1.576  12.981  20.376  0.00  0.00     0.231 HD
ATOM     27  H   SUS d 141      -2.017  10.796  18.224  0.00  0.00     0.140 HD
ATOM     28  H   SUS d 141      -0.828   9.550  16.759  0.00  0.00     0.092 H 
ATOM     29  H   SUS d 141      -1.446   8.505  14.271  0.00  0.00     0.210 HD
ATOM     30  H   SUS d 141      -1.032  14.236  18.478  0.00  0.00     0.231 HD
ATOM     31  H   SUS d 141       1.441  10.042  15.506  0.00  0.00     0.090 H 
ATOM     32  H   SUS d 141      -1.066  10.779  14.043  0.00  0.00     0.091 H 
ATOM     33  H   SUS d 141       0.543  13.062  17.038  0.00  0.00     0.131 H 
ATOM     34  H   SUS d 141      -4.130  11.736  18.394  0.00  0.00     0.231 HD
ATOM     35  H   SUS d 141      -1.594  12.373  16.141  0.00  0.00     0.076 H 
ATOM     36  C1  IDY d 142       2.521   9.886  20.819  0.00  0.00     0.160 C 
ATOM     37  C3  IDY d 142       2.313  11.709  19.254  0.00  0.00     0.094 C 
ATOM     38  S   IDY d 142      -0.542  10.209  21.444  0.00  0.00     0.252 S 
ATOM     39  O3  IDY d 142       2.736  13.145  19.436  0.00  0.00    -0.390 OA
ATOM     40  O4  IDY d 142       1.186  11.180  17.470  0.00  0.00    -0.348 OA
ATOM     41  C2  IDY d 142       1.674  11.080  20.446  0.00  0.00     0.134 C 
ATOM     42  C6  IDY d 142       3.585   8.732  17.367  0.00  0.00     0.206 C 
ATOM     43  O61 IDY d 142       2.622   7.907  17.198  0.00  0.00    -0.646 OA
ATOM     44  O62 IDY d 142       4.624   8.626  16.549  0.00  0.00    -0.646 OA
ATOM     45  C5  IDY d 142       3.576   9.731  18.508  0.00  0.00     0.152 C 
ATOM     46  OS2 IDY d 142      -1.004  11.433  22.126  0.00  0.00    -0.572 OA
ATOM     47  O2  IDY d 142       0.319  10.606  20.217  0.00  0.00    -0.244 OA
ATOM     48  OS1 IDY d 142      -1.697   9.407  20.965  0.00  0.00    -0.572 OA
ATOM     49  O5  IDY d 142       3.008   9.106  19.697  0.00  0.00    -0.340 OA
ATOM     50  O1  IDY d 142       3.582  10.540  21.641  0.00  0.00    -0.363 OA
ATOM     51  C7  IDY d 142       4.625   9.424  21.524  0.00  0.00     0.007 C 
ATOM     52  OS3 IDY d 142       0.246   9.420  22.434  0.00  0.00    -0.572 OA
ATOM     53  C4  IDY d 142       2.792  10.959  18.044  0.00  0.00     0.103 C 
ATOM     54  H   IDY d 142       1.984   9.121  21.340  0.00  0.00     0.133 H 
ATOM     55  H   IDY d 142       1.433  11.547  18.667  0.00  0.00     0.091 H 
ATOM     56  H   IDY d 142       3.539  13.180  19.979  0.00  0.00     0.210 HD
ATOM     57  H   IDY d 142       1.612  11.828  21.208  0.00  0.00     0.097 H 
ATOM     58  H   IDY d 142       4.564  10.045  18.773  0.00  0.00     0.104 H 
ATOM     59  H   IDY d 142       5.505   9.701  22.066  0.00  0.00     0.066 H 
ATOM     60  H   IDY d 142       4.873   9.273  20.494  0.00  0.00     0.066 H 
ATOM     61  H   IDY d 142       4.226   8.519  21.931  0.00  0.00     0.066 H 
ATOM     62  H   IDY d 142       3.520  11.131  17.280  0.00  0.00     0.092 H 
ENDROOT
TORSDOF 19
ENDMDL
MODEL 41
REMARK VINA RESULT:      -6.1      3.226      6.495
REMARK  0 active torsions:
REMARK  status: ('A' for Active; 'I' for Inactive)
REMARK       I    between atoms: O3_1  and  C3_8 
REMARK       I    between atoms: O3_1  and  S3_11 
REMARK       I    between atoms: C1_2  and  O1_36 
REMARK       I    between atoms: C6_3  and  C5_27 
REMARK       I    between atoms: C6_3  and  O6_25 
REMARK       I    between atoms: O3S_4  and  S1_32 
REMARK       I    between atoms: C3_5  and  O3_9 
REMARK       I    between atoms: N_6  and  S1_32 
REMARK       I    between atoms: N_6  and  C2_39 
REMARK       I    between atoms: S_7  and  O2_30 
REMARK       I    between atoms: O4_12  and  C1_29 
REMARK       I    between atoms: O4_12  and  C4_40 
REMARK       I    between atoms: O4_13  and  C4_28 
REMARK       I    between atoms: C2_14  and  O2_30 
REMARK       I    between atoms: C6_15  and  C5_23 
REMARK       I    between atoms: S2_16  and  O6_25 
REMARK       I    between atoms: O1S_22  and  S1_32 
REMARK       I    between atoms: S1_32  and  O2S_33 
REMARK       I    between atoms: O1_36  and  C7_37 
ROOT
ATOM      1  O3  SUS d 141       0.458   9.756  15.708  0.00  0.00    -0.247 OA
ATOM      2  C6  SUS d 141      -1.326  14.191  16.768  0.00  0.00     0.067 C 
ATOM      3  O3S SUS d 141      -0.045   6.847  19.686  0.00  0.00    -0.296 OA
ATOM      4  N   SUS d 141       0.005   8.992  18.488  0.00  0.00    -0.210 NA
ATOM      5  C3  SUS d 141       0.296  10.682  16.757  0.00  0.00     0.107 C 
ATOM      6  O6S SUS d 141      -4.084  16.192  16.693  0.00  0.00    -0.572 OA
ATOM      7  S3  SUS d 141       1.512   8.810  15.546  0.00  0.00     0.252 S 
ATOM      8  O4  SUS d 141       0.736  12.628  15.428  0.00  0.00    -0.390 OA
ATOM      9  S2  SUS d 141      -3.774  14.823  16.291  0.00  0.00     0.251 S 
ATOM     10  O5  SUS d 141      -1.633  12.254  18.145  0.00  0.00    -0.349 OA
ATOM     11  O8S SUS d 141       2.335   8.355  16.642  0.00  0.00    -0.572 OA
ATOM     12  O4S SUS d 141      -3.253  14.751  14.929  0.00  0.00    -0.572 OA
ATOM     13  O1S SUS d 141      -2.125   7.936  19.109  0.00  0.00    -0.296 OA
ATOM     14  O7S SUS d 141       2.393   9.387  14.564  0.00  0.00    -0.572 OA
ATOM     15  O6  SUS d 141      -2.648  14.308  17.241  0.00  0.00    -0.254 OA
ATOM     16  C5  SUS d 141      -0.699  12.919  17.325  0.00  0.00     0.090 C 
ATOM     17  C4  SUS d 141      -0.256  11.990  16.201  0.00  0.00     0.090 C 
ATOM     18  C1  SUS d 141      -1.054  11.161  18.822  0.00  0.00     0.150 C 
ATOM     19  O9S SUS d 141       0.875   7.688  14.892  0.00  0.00    -0.572 OA
ATOM     20  S1  SUS d 141      -0.772   7.606  18.673  0.00  0.00     0.156 S 
ATOM     21  O2S SUS d 141      -0.754   6.937  17.375  0.00  0.00    -0.296 OA
ATOM     22  C2  SUS d 141      -0.640  10.099  17.810  0.00  0.00     0.083 C 
ATOM     23  O5S SUS d 141      -4.916  13.929  16.453  0.00  0.00    -0.572 OA
ATOM     24  H   SUS d 141      -1.332  14.147  15.698  0.00  0.00     0.080 H 
ATOM     25  H   SUS d 141      -0.757  15.038  17.087  0.00  0.00     0.080 H 
ATOM     26  H   SUS d 141      -0.079   7.321  20.532  0.00  0.00     0.231 HD
ATOM     27  H   SUS d 141       0.858   8.785  17.967  0.00  0.00     0.140 HD
ATOM     28  H   SUS d 141       1.241  10.883  17.218  0.00  0.00     0.092 H 
ATOM     29  H   SUS d 141       1.018  12.037  14.712  0.00  0.00     0.210 HD
ATOM     30  H   SUS d 141      -2.089   8.377  19.972  0.00  0.00     0.231 HD
ATOM     31  H   SUS d 141       0.162  13.191  17.899  0.00  0.00     0.090 H 
ATOM     32  H   SUS d 141      -1.108  11.765  15.592  0.00  0.00     0.091 H 
ATOM     33  H   SUS d 141      -1.766  10.746  19.504  0.00  0.00     0.131 H 
ATOM     34  H   SUS d 141       0.162   6.738  17.126  0.00  0.00     0.231 HD
ATOM     35  H   SUS d 141      -1.521   9.746  17.316  0.00  0.00     0.076 H 
ATOM     36  C1  IDY d 142       2.756  11.265  22.256  0.00  0.00     0.160 C 
ATOM     37  C3  IDY d 142       0.418  11.378  21.671  0.00  0.00     0.094 C 
ATOM     38  S   IDY d 142       2.843   8.416  20.935  0.00  0.00     0.252 S 
ATOM     39  O3  IDY d 142      -0.777  11.177  22.569  0.00  0.00    -0.390 OA
ATOM     40  O4  IDY d 142       0.081  11.598  19.534  0.00  0.00    -0.348 OA
ATOM     41  C2  IDY d 142       1.548  10.430  21.897  0.00  0.00     0.134 C 
ATOM     42  C6  IDY d 142       2.133  14.295  20.061  0.00  0.00     0.206 C 
ATOM     43  O61 IDY d 142       2.808  13.875  19.059  0.00  0.00    -0.646 OA
ATOM     44  O62 IDY d 142       1.817  15.583  20.083  0.00  0.00    -0.646 OA
ATOM     45  C5  IDY d 142       1.784  13.376  21.216  0.00  0.00     0.152 C 
ATOM     46  OS2 IDY d 142       2.092   7.314  21.568  0.00  0.00    -0.572 OA
ATOM     47  O2  IDY d 142       1.895   9.627  20.737  0.00  0.00    -0.244 OA
ATOM     48  OS1 IDY d 142       3.358   8.002  19.604  0.00  0.00    -0.572 OA
ATOM     49  O5  IDY d 142       2.907  12.485  21.485  0.00  0.00    -0.340 OA
ATOM     50  O1  IDY d 142       2.534  11.467  23.718  0.00  0.00    -0.363 OA
ATOM     51  C7  IDY d 142       3.438  12.693  23.879  0.00  0.00     0.007 C 
ATOM     52  OS3 IDY d 142       3.983   8.752  21.837  0.00  0.00    -0.572 OA
ATOM     53  C4  IDY d 142       0.503  12.629  20.844  0.00  0.00     0.103 C 
ATOM     54  H   IDY d 142       3.689  10.797  22.022  0.00  0.00     0.133 H 
ATOM     55  H   IDY d 142       0.311  11.044  20.660  0.00  0.00     0.091 H 
ATOM     56  H   IDY d 142      -0.575  11.512  23.457  0.00  0.00     0.210 HD
ATOM     57  H   IDY d 142       1.246   9.748  22.664  0.00  0.00     0.097 H 
ATOM     58  H   IDY d 142       1.605  13.920  22.120  0.00  0.00     0.104 H 
ATOM     59  H   IDY d 142       3.423  13.016  24.898  0.00  0.00     0.066 H 
ATOM     60  H   IDY d 142       3.083  13.483  23.250  0.00  0.00     0.066 H 
ATOM     61  H   IDY d 142       4.439  12.438  23.599  0.00  0.00     0.066 H 
ATOM     62  H   IDY d 142      -0.026  13.558  20.812  0.00  0.00     0.092 H 
ENDROOT
TORSDOF 19
ENDMDL
MODEL 42
REMARK VINA RESULT:      -6.1      2.973      7.544
REMARK  0 active torsions:
REMARK  status: ('A' for Active; 'I' for Inactive)
REMARK       I    between atoms: O3_1  and  C3_8 
REMARK       I    between atoms: O3_1  and  S3_11 
REMARK       I    between atoms: C1_2  and  O1_36 
REMARK       I    between atoms: C6_3  and  C5_27 
REMARK       I    between atoms: C6_3  and  O6_25 
REMARK       I    between atoms: O3S_4  and  S1_32 
REMARK       I    between atoms: C3_5  and  O3_9 
REMARK       I    between atoms: N_6  and  S1_32 
REMARK       I    between atoms: N_6  and  C2_39 
REMARK       I    between atoms: S_7  and  O2_30 
REMARK       I    between atoms: O4_12  and  C1_29 
REMARK       I    between atoms: O4_12  and  C4_40 
REMARK       I    between atoms: O4_13  and  C4_28 
REMARK       I    between atoms: C2_14  and  O2_30 
REMARK       I    between atoms: C6_15  and  C5_23 
REMARK       I    between atoms: S2_16  and  O6_25 
REMARK       I    between atoms: O1S_22  and  S1_32 
REMARK       I    between atoms: S1_32  and  O2S_33 
REMARK       I    between atoms: O1_36  and  C7_37 
ROOT
ATOM      1  O3  SUS d 141      -0.172  13.586  13.573  0.00  0.00    -0.247 OA
ATOM      2  C6  SUS d 141      -3.486  15.324  16.731  0.00  0.00     0.067 C 
ATOM      3  O3S SUS d 141      -0.710   8.672  13.247  0.00  0.00    -0.296 OA
ATOM      4  N   SUS d 141      -1.046  10.888  14.257  0.00  0.00    -0.210 NA
ATOM      5  C3  SUS d 141      -0.882  13.268  14.748  0.00  0.00     0.107 C 
ATOM      6  O6S SUS d 141      -6.624  16.609  17.075  0.00  0.00    -0.572 OA
ATOM      7  S3  SUS d 141       1.133  13.147  13.206  0.00  0.00     0.252 S 
ATOM      8  O4  SUS d 141      -0.764  15.466  15.699  0.00  0.00    -0.390 OA
ATOM      9  S2  SUS d 141      -5.802  16.139  15.963  0.00  0.00     0.251 S 
ATOM     10  O5  SUS d 141      -3.497  13.090  15.865  0.00  0.00    -0.349 OA
ATOM     11  O8S SUS d 141       1.752  11.969  13.768  0.00  0.00    -0.572 OA
ATOM     12  O4S SUS d 141      -4.958  17.197  15.414  0.00  0.00    -0.572 OA
ATOM     13  O1S SUS d 141      -2.812   9.824  12.920  0.00  0.00    -0.296 OA
ATOM     14  O7S SUS d 141       2.003  14.259  13.488  0.00  0.00    -0.572 OA
ATOM     15  O6  SUS d 141      -4.851  15.039  16.527  0.00  0.00    -0.254 OA
ATOM     16  C5  SUS d 141      -2.649  14.121  16.319  0.00  0.00     0.090 C 
ATOM     17  C4  SUS d 141      -1.663  14.491  15.217  0.00  0.00     0.090 C 
ATOM     18  C1  SUS d 141      -2.790  11.893  15.630  0.00  0.00     0.150 C 
ATOM     19  O9S SUS d 141       1.075  13.048  11.764  0.00  0.00    -0.572 OA
ATOM     20  S1  SUS d 141      -1.360   9.955  12.996  0.00  0.00     0.156 S 
ATOM     21  O2S SUS d 141      -0.802  10.629  11.826  0.00  0.00    -0.296 OA
ATOM     22  C2  SUS d 141      -1.817  12.096  14.475  0.00  0.00     0.083 C 
ATOM     23  O5S SUS d 141      -6.601  15.519  14.910  0.00  0.00    -0.572 OA
ATOM     24  H   SUS d 141      -3.207  16.172  16.140  0.00  0.00     0.080 H 
ATOM     25  H   SUS d 141      -3.317  15.539  17.765  0.00  0.00     0.080 H 
ATOM     26  H   SUS d 141      -1.107   8.257  14.028  0.00  0.00     0.231 HD
ATOM     27  H   SUS d 141      -0.069  11.172  14.178  0.00  0.00     0.140 HD
ATOM     28  H   SUS d 141      -0.199  12.985  15.522  0.00  0.00     0.092 H 
ATOM     29  H   SUS d 141      -0.136  15.702  14.998  0.00  0.00     0.210 HD
ATOM     30  H   SUS d 141      -3.138   9.373  13.714  0.00  0.00     0.231 HD
ATOM     31  H   SUS d 141      -2.094  13.788  17.172  0.00  0.00     0.090 H 
ATOM     32  H   SUS d 141      -2.214  14.879  14.386  0.00  0.00     0.091 H 
ATOM     33  H   SUS d 141      -3.481  11.114  15.382  0.00  0.00     0.131 H 
ATOM     34  H   SUS d 141       0.162  10.694  11.920  0.00  0.00     0.231 HD
ATOM     35  H   SUS d 141      -2.383  12.317  13.595  0.00  0.00     0.076 H 
ATOM     36  C1  IDY d 142      -0.214   9.056  19.041  0.00  0.00     0.160 C 
ATOM     37  C3  IDY d 142      -2.236   9.655  17.871  0.00  0.00     0.094 C 
ATOM     38  S   IDY d 142       1.110   8.487  16.249  0.00  0.00     0.252 S 
ATOM     39  O3  IDY d 142      -3.491   8.836  17.700  0.00  0.00    -0.390 OA
ATOM     40  O4  IDY d 142      -2.074  11.536  16.790  0.00  0.00    -0.348 OA
ATOM     41  C2  IDY d 142      -0.960   8.896  17.736  0.00  0.00     0.134 C 
ATOM     42  C6  IDY d 142      -1.194  12.611  19.926  0.00  0.00     0.206 C 
ATOM     43  O61 IDY d 142      -0.190  13.171  19.364  0.00  0.00    -0.646 OA
ATOM     44  O62 IDY d 142      -1.899  13.344  20.776  0.00  0.00    -0.646 OA
ATOM     45  C5  IDY d 142      -1.512  11.147  19.692  0.00  0.00     0.152 C 
ATOM     46  OS2 IDY d 142       0.615   7.353  15.444  0.00  0.00    -0.572 OA
ATOM     47  O2  IDY d 142      -0.092   9.371  16.671  0.00  0.00    -0.244 OA
ATOM     48  OS1 IDY d 142       2.049   9.323  15.456  0.00  0.00    -0.572 OA
ATOM     49  O5  IDY d 142      -0.270  10.385  19.619  0.00  0.00    -0.340 OA
ATOM     50  O1  IDY d 142      -0.851   7.984  19.862  0.00  0.00    -0.363 OA
ATOM     51  C7  IDY d 142      -0.458   8.538  21.234  0.00  0.00     0.007 C 
ATOM     52  OS3 IDY d 142       1.815   7.917  17.433  0.00  0.00    -0.572 OA
ATOM     53  C4  IDY d 142      -2.349  11.051  18.416  0.00  0.00     0.103 C 
ATOM     54  H   IDY d 142       0.847   8.954  18.948  0.00  0.00     0.133 H 
ATOM     55  H   IDY d 142      -1.972  10.291  17.052  0.00  0.00     0.091 H 
ATOM     56  H   IDY d 142      -3.639   8.300  18.496  0.00  0.00     0.210 HD
ATOM     57  H   IDY d 142      -1.212   7.884  17.498  0.00  0.00     0.097 H 
ATOM     58  H   IDY d 142      -2.078  10.727  20.497  0.00  0.00     0.104 H 
ATOM     59  H   IDY d 142      -0.832   7.893  22.000  0.00  0.00     0.066 H 
ATOM     60  H   IDY d 142      -0.875   9.516  21.357  0.00  0.00     0.066 H 
ATOM     61  H   IDY d 142       0.608   8.594  21.305  0.00  0.00     0.066 H 
ATOM     62  H   IDY d 142      -3.121  11.626  18.883  0.00  0.00     0.092 H 
ENDROOT
TORSDOF 19
ENDMDL
MODEL 43
REMARK VINA RESULT:      -6.0      2.580      7.098
REMARK  0 active torsions:
REMARK  status: ('A' for Active; 'I' for Inactive)
REMARK       I    between atoms: O3_1  and  C3_8 
REMARK       I    between atoms: O3_1  and  S3_11 
REMARK       I    between atoms: C1_2  and  O1_36 
REMARK       I    between atoms: C6_3  and  C5_27 
REMARK       I    between atoms: C6_3  and  O6_25 
REMARK       I    between atoms: O3S_4  and  S1_32 
REMARK       I    between atoms: C3_5  and  O3_9 
REMARK       I    between atoms: N_6  and  S1_32 
REMARK       I    between atoms: N_6  and  C2_39 
REMARK       I    between atoms: S_7  and  O2_30 
REMARK       I    between atoms: O4_12  and  C1_29 
REMARK       I    between atoms: O4_12  and  C4_40 
REMARK       I    between atoms: O4_13  and  C4_28 
REMARK       I    between atoms: C2_14  and  O2_30 
REMARK       I    between atoms: C6_15  and  C5_23 
REMARK       I    between atoms: S2_16  and  O6_25 
REMARK       I    between atoms: O1S_22  and  S1_32 
REMARK       I    between atoms: S1_32  and  O2S_33 
REMARK       I    between atoms: O1_36  and  C7_37 
ROOT
ATOM      1  O3  SUS d 141      -2.460  13.885  17.695  0.00  0.00    -0.247 OA
ATOM      2  C6  SUS d 141       0.792  12.439  21.058  0.00  0.00     0.067 C 
ATOM      3  O3S SUS d 141      -4.042   9.909  15.199  0.00  0.00    -0.296 OA
ATOM      4  N   SUS d 141      -2.535  11.144  16.699  0.00  0.00    -0.210 NA
ATOM      5  C3  SUS d 141      -1.454  12.932  17.951  0.00  0.00     0.107 C 
ATOM      6  O6S SUS d 141       1.225  11.431  24.285  0.00  0.00    -0.572 OA
ATOM      7  S3  SUS d 141      -2.832  14.430  16.432  0.00  0.00     0.252 S 
ATOM      8  O4  SUS d 141       0.022  14.441  19.086  0.00  0.00    -0.390 OA
ATOM      9  S2  SUS d 141       0.091  11.839  23.460  0.00  0.00     0.251 S 
ATOM     10  O5  SUS d 141      -0.604  10.945  19.808  0.00  0.00    -0.349 OA
ATOM     11  O8S SUS d 141      -2.541  13.776  15.178  0.00  0.00    -0.572 OA
ATOM     12  O4S SUS d 141      -0.115  13.285  23.481  0.00  0.00    -0.572 OA
ATOM     13  O1S SUS d 141      -4.217   9.589  17.590  0.00  0.00    -0.296 OA
ATOM     14  O7S SUS d 141      -2.221  15.733  16.384  0.00  0.00    -0.572 OA
ATOM     15  O6  SUS d 141       0.428  11.445  21.989  0.00  0.00    -0.254 OA
ATOM     16  C5  SUS d 141       0.152  12.131  19.711  0.00  0.00     0.090 C 
ATOM     17  C4  SUS d 141      -0.751  13.274  19.260  0.00  0.00     0.090 C 
ATOM     18  C1  SUS d 141      -1.080  10.520  18.551  0.00  0.00     0.150 C 
ATOM     19  O9S SUS d 141      -4.254  14.667  16.560  0.00  0.00    -0.572 OA
ATOM     20  S1  SUS d 141      -4.008  10.550  16.510  0.00  0.00     0.156 S 
ATOM     21  O2S SUS d 141      -4.930  11.680  16.587  0.00  0.00    -0.296 OA
ATOM     22  C2  SUS d 141      -2.077  11.542  18.015  0.00  0.00     0.083 C 
ATOM     23  O5S SUS d 141      -1.136  11.139  23.824  0.00  0.00    -0.572 OA
ATOM     24  H   SUS d 141       0.453  13.393  21.405  0.00  0.00     0.080 H 
ATOM     25  H   SUS d 141       1.856  12.455  20.952  0.00  0.00     0.080 H 
ATOM     26  H   SUS d 141      -3.419   9.165  15.187  0.00  0.00     0.231 HD
ATOM     27  H   SUS d 141      -2.472  11.970  16.103  0.00  0.00     0.140 HD
ATOM     28  H   SUS d 141      -0.730  12.943  17.164  0.00  0.00     0.092 H 
ATOM     29  H   SUS d 141      -0.552  15.169  18.799  0.00  0.00     0.210 HD
ATOM     30  H   SUS d 141      -3.586   8.859  17.499  0.00  0.00     0.231 HD
ATOM     31  H   SUS d 141       0.931  12.009  18.988  0.00  0.00     0.090 H 
ATOM     32  H   SUS d 141      -1.495  13.434  20.012  0.00  0.00     0.091 H 
ATOM     33  H   SUS d 141      -1.563   9.571  18.655  0.00  0.00     0.131 H 
ATOM     34  H   SUS d 141      -4.756  12.290  15.854  0.00  0.00     0.231 HD
ATOM     35  H   SUS d 141      -2.911  11.578  18.683  0.00  0.00     0.076 H 
ATOM     36  C1  IDY d 142       1.685   9.106  14.468  0.00  0.00     0.160 C 
ATOM     37  C3  IDY d 142       0.563   8.619  16.547  0.00  0.00     0.094 C 
ATOM     38  S   IDY d 142      -1.061  10.148  13.350  0.00  0.00     0.252 S 
ATOM     39  O3  IDY d 142       0.105   7.279  17.066  0.00  0.00    -0.390 OA
ATOM     40  O4  IDY d 142       0.001  10.404  17.655  0.00  0.00    -0.348 OA
ATOM     41  C2  IDY d 142       0.332   8.848  15.091  0.00  0.00     0.134 C 
ATOM     42  C6  IDY d 142       3.359  10.998  17.296  0.00  0.00     0.206 C 
ATOM     43  O61 IDY d 142       3.028  12.166  16.891  0.00  0.00    -0.646 OA
ATOM     44  O62 IDY d 142       4.315  10.923  18.213  0.00  0.00    -0.646 OA
ATOM     45  C5  IDY d 142       2.745   9.751  16.690  0.00  0.00     0.152 C 
ATOM     46  OS2 IDY d 142      -2.157   9.182  13.139  0.00  0.00    -0.572 OA
ATOM     47  O2  IDY d 142      -0.516   9.989  14.793  0.00  0.00    -0.244 OA
ATOM     48  OS1 IDY d 142      -1.551  11.541  13.186  0.00  0.00    -0.572 OA
ATOM     49  O5  IDY d 142       2.572   9.942  15.255  0.00  0.00    -0.340 OA
ATOM     50  O1  IDY d 142       2.164   7.710  14.248  0.00  0.00    -0.363 OA
ATOM     51  C7  IDY d 142       3.656   8.039  14.135  0.00  0.00     0.007 C 
ATOM     52  OS3 IDY d 142      -0.011   9.857  12.332  0.00  0.00    -0.572 OA
ATOM     53  C4  IDY d 142       1.431   9.478  17.422  0.00  0.00     0.103 C 
ATOM     54  H   IDY d 142       1.644   9.693  13.574  0.00  0.00     0.133 H 
ATOM     55  H   IDY d 142      -0.051   9.458  16.800  0.00  0.00     0.091 H 
ATOM     56  H   IDY d 142       0.728   6.591  16.782  0.00  0.00     0.210 HD
ATOM     57  H   IDY d 142      -0.168   7.985  14.706  0.00  0.00     0.097 H 
ATOM     58  H   IDY d 142       3.378   8.896  16.808  0.00  0.00     0.104 H 
ATOM     59  H   IDY d 142       4.208   7.138  13.968  0.00  0.00     0.066 H 
ATOM     60  H   IDY d 142       3.990   8.499  15.041  0.00  0.00     0.066 H 
ATOM     61  H   IDY d 142       3.813   8.709  13.316  0.00  0.00     0.066 H 
ATOM     62  H   IDY d 142       1.971   9.335  18.334  0.00  0.00     0.092 H 
ENDROOT
TORSDOF 19
ENDMDL
MODEL 44
REMARK VINA RESULT:      -6.0      3.234      6.790
REMARK  0 active torsions:
REMARK  status: ('A' for Active; 'I' for Inactive)
REMARK       I    between atoms: O3_1  and  C3_8 
REMARK       I    between atoms: O3_1  and  S3_11 
REMARK       I    between atoms: C1_2  and  O1_36 
REMARK       I    between atoms: C6_3  and  C5_27 
REMARK       I    between atoms: C6_3  and  O6_25 
REMARK       I    between atoms: O3S_4  and  S1_32 
REMARK       I    between atoms: C3_5  and  O3_9 
REMARK       I    between atoms: N_6  and  S1_32 
REMARK       I    between atoms: N_6  and  C2_39 
REMARK       I    between atoms: S_7  and  O2_30 
REMARK       I    between atoms: O4_12  and  C1_29 
REMARK       I    between atoms: O4_12  and  C4_40 
REMARK       I    between atoms: O4_13  and  C4_28 
REMARK       I    between atoms: C2_14  and  O2_30 
REMARK       I    between atoms: C6_15  and  C5_23 
REMARK       I    between atoms: S2_16  and  O6_25 
REMARK       I    between atoms: O1S_22  and  S1_32 
REMARK       I    between atoms: S1_32  and  O2S_33 
REMARK       I    between atoms: O1_36  and  C7_37 
ROOT
ATOM      1  O3  SUS d 141       2.176  10.772  22.053  0.00  0.00    -0.247 OA
ATOM      2  C6  SUS d 141       1.233  15.275  20.379  0.00  0.00     0.067 C 
ATOM      3  O3S SUS d 141       2.292   7.640  18.215  0.00  0.00    -0.296 OA
ATOM      4  N   SUS d 141       1.778   9.763  19.344  0.00  0.00    -0.210 NA
ATOM      5  C3  SUS d 141       1.482  11.477  21.050  0.00  0.00     0.107 C 
ATOM      6  O6S SUS d 141       2.597  18.195  19.271  0.00  0.00    -0.572 OA
ATOM      7  S3  SUS d 141       1.811   9.528  22.646  0.00  0.00     0.252 S 
ATOM      8  O4  SUS d 141       0.795  13.286  22.464  0.00  0.00    -0.390 OA
ATOM      9  S2  SUS d 141       3.112  16.916  19.750  0.00  0.00     0.251 S 
ATOM     10  O5  SUS d 141       1.791  13.411  18.981  0.00  0.00    -0.349 OA
ATOM     11  O8S SUS d 141       0.916   8.589  22.012  0.00  0.00    -0.572 OA
ATOM     12  O4S SUS d 141       3.264  16.889  21.202  0.00  0.00    -0.572 OA
ATOM     13  O1S SUS d 141       3.713   9.561  17.843  0.00  0.00    -0.296 OA
ATOM     14  O7S SUS d 141       1.236   9.869  23.921  0.00  0.00    -0.572 OA
ATOM     15  O6  SUS d 141       2.058  15.827  19.379  0.00  0.00    -0.254 OA
ATOM     16  C5  SUS d 141       1.070  13.781  20.135  0.00  0.00     0.090 C 
ATOM     17  C4  SUS d 141       1.569  12.973  21.327  0.00  0.00     0.090 C 
ATOM     18  C1  SUS d 141       1.539  12.074  18.610  0.00  0.00     0.150 C 
ATOM     19  O9S SUS d 141       3.079   8.897  22.942  0.00  0.00    -0.572 OA
ATOM     20  S1  SUS d 141       2.942   8.799  18.820  0.00  0.00     0.156 S 
ATOM     21  O2S SUS d 141       3.738   8.429  19.988  0.00  0.00    -0.296 OA
ATOM     22  C2  SUS d 141       2.076  11.139  19.688  0.00  0.00     0.083 C 
ATOM     23  O5S SUS d 141       4.362  16.544  19.095  0.00  0.00    -0.572 OA
ATOM     24  H   SUS d 141       1.681  15.433  21.339  0.00  0.00     0.080 H 
ATOM     25  H   SUS d 141       0.273  15.748  20.351  0.00  0.00     0.080 H 
ATOM     26  H   SUS d 141       1.774   7.925  17.446  0.00  0.00     0.231 HD
ATOM     27  H   SUS d 141       1.390   9.328  20.182  0.00  0.00     0.140 HD
ATOM     28  H   SUS d 141       0.450  11.192  21.050  0.00  0.00     0.092 H 
ATOM     29  H   SUS d 141       1.112  12.773  23.223  0.00  0.00     0.210 HD
ATOM     30  H   SUS d 141       3.147   9.785  17.088  0.00  0.00     0.231 HD
ATOM     31  H   SUS d 141       0.029  13.573  19.997  0.00  0.00     0.090 H 
ATOM     32  H   SUS d 141       2.595  13.226  21.501  0.00  0.00     0.091 H 
ATOM     33  H   SUS d 141       2.026  11.864  17.681  0.00  0.00     0.131 H 
ATOM     34  H   SUS d 141       3.187   7.926  20.609  0.00  0.00     0.231 HD
ATOM     35  H   SUS d 141       3.137  11.267  19.744  0.00  0.00     0.076 H 
ATOM     36  C1  IDY d 142      -2.934  10.007  17.181  0.00  0.00     0.160 C 
ATOM     37  C3  IDY d 142      -0.870  11.156  16.690  0.00  0.00     0.094 C 
ATOM     38  S   IDY d 142      -1.221   7.656  18.371  0.00  0.00     0.252 S 
ATOM     39  O3  IDY d 142      -0.175  11.294  15.359  0.00  0.00    -0.390 OA
ATOM     40  O4  IDY d 142       0.150  11.879  18.470  0.00  0.00    -0.348 OA
ATOM     41  C2  IDY d 142      -1.450   9.810  16.967  0.00  0.00     0.134 C 
ATOM     42  C6  IDY d 142      -2.902  13.375  18.925  0.00  0.00     0.206 C 
ATOM     43  O61 IDY d 142      -2.862  12.909  20.116  0.00  0.00    -0.646 OA
ATOM     44  O62 IDY d 142      -3.225  14.653  18.784  0.00  0.00    -0.646 OA
ATOM     45  C5  IDY d 142      -2.672  12.481  17.721  0.00  0.00     0.152 C 
ATOM     46  OS2 IDY d 142      -0.380   6.856  17.460  0.00  0.00    -0.572 OA
ATOM     47  O2  IDY d 142      -0.915   9.161  18.151  0.00  0.00    -0.244 OA
ATOM     48  OS1 IDY d 142      -0.925   7.321  19.788  0.00  0.00    -0.572 OA
ATOM     49  O5  IDY d 142      -3.289  11.181  17.957  0.00  0.00    -0.340 OA
ATOM     50  O1  IDY d 142      -3.423  10.011  15.771  0.00  0.00    -0.363 OA
ATOM     51  C7  IDY d 142      -4.756  10.717  16.037  0.00  0.00     0.007 C 
ATOM     52  OS3 IDY d 142      -2.644   7.334  18.060  0.00  0.00    -0.572 OA
ATOM     53  C4  IDY d 142      -1.163  12.395  17.488  0.00  0.00     0.103 C 
ATOM     54  H   IDY d 142      -3.385   9.254  17.792  0.00  0.00     0.133 H 
ATOM     55  H   IDY d 142      -0.236  11.085  17.549  0.00  0.00     0.091 H 
ATOM     56  H   IDY d 142      -0.838  11.352  14.652  0.00  0.00     0.210 HD
ATOM     57  H   IDY d 142      -1.209   9.180  16.136  0.00  0.00     0.097 H 
ATOM     58  H   IDY d 142      -3.126  12.876  16.837  0.00  0.00     0.104 H 
ATOM     59  H   IDY d 142      -5.291  10.827  15.117  0.00  0.00     0.066 H 
ATOM     60  H   IDY d 142      -4.571  11.683  16.458  0.00  0.00     0.066 H 
ATOM     61  H   IDY d 142      -5.338  10.136  16.721  0.00  0.00     0.066 H 
ATOM     62  H   IDY d 142      -1.136  13.447  17.298  0.00  0.00     0.092 H 
ENDROOT
TORSDOF 19
ENDMDL
MODEL 45
REMARK VINA RESULT:      -6.0      2.278      6.792
REMARK  0 active torsions:
REMARK  status: ('A' for Active; 'I' for Inactive)
REMARK       I    between atoms: O3_1  and  C3_8 
REMARK       I    between atoms: O3_1  and  S3_11 
REMARK       I    between atoms: C1_2  and  O1_36 
REMARK       I    between atoms: C6_3  and  C5_27 
REMARK       I    between atoms: C6_3  and  O6_25 
REMARK       I    between atoms: O3S_4  and  S1_32 
REMARK       I    between atoms: C3_5  and  O3_9 
REMARK       I    between atoms: N_6  and  S1_32 
REMARK       I    between atoms: N_6  and  C2_39 
REMARK       I    between atoms: S_7  and  O2_30 
REMARK       I    between atoms: O4_12  and  C1_29 
REMARK       I    between atoms: O4_12  and  C4_40 
REMARK       I    between atoms: O4_13  and  C4_28 
REMARK       I    between atoms: C2_14  and  O2_30 
REMARK       I    between atoms: C6_15  and  C5_23 
REMARK       I    between atoms: S2_16  and  O6_25 
REMARK       I    between atoms: O1S_22  and  S1_32 
REMARK       I    between atoms: S1_32  and  O2S_33 
REMARK       I    between atoms: O1_36  and  C7_37 
ROOT
ATOM      1  O3  SUS d 141      -3.083  10.632  17.299  0.00  0.00    -0.247 OA
ATOM      2  C6  SUS d 141      -1.041  14.944  18.396  0.00  0.00     0.067 C 
ATOM      3  O3S SUS d 141       0.516   7.362  16.352  0.00  0.00    -0.296 OA
ATOM      4  N   SUS d 141      -0.419   9.611  16.689  0.00  0.00    -0.210 NA
ATOM      5  C3  SUS d 141      -1.975  11.455  17.019  0.00  0.00     0.107 C 
ATOM      6  O6S SUS d 141       0.116  16.939  20.906  0.00  0.00    -0.572 OA
ATOM      7  S3  SUS d 141      -3.717   9.707  16.419  0.00  0.00     0.252 S 
ATOM      8  O4  SUS d 141      -3.197  13.517  17.052  0.00  0.00    -0.390 OA
ATOM      9  S2  SUS d 141      -0.492  15.614  20.819  0.00  0.00     0.251 S 
ATOM     10  O5  SUS d 141       0.174  12.886  18.223  0.00  0.00    -0.349 OA
ATOM     11  O8S SUS d 141      -3.062   9.153  15.257  0.00  0.00    -0.572 OA
ATOM     12  O4S SUS d 141      -1.950  15.671  20.857  0.00  0.00    -0.572 OA
ATOM     13  O1S SUS d 141       0.873   8.497  18.457  0.00  0.00    -0.296 OA
ATOM     14  O7S SUS d 141      -4.907  10.374  15.958  0.00  0.00    -0.572 OA
ATOM     15  O6  SUS d 141      -0.092  15.015  19.435  0.00  0.00    -0.254 OA
ATOM     16  C5  SUS d 141      -0.878  13.628  17.649  0.00  0.00     0.090 C 
ATOM     17  C4  SUS d 141      -2.163  12.808  17.697  0.00  0.00     0.090 C 
ATOM     18  C1  SUS d 141       0.481  11.736  17.468  0.00  0.00     0.150 C 
ATOM     19  O9S SUS d 141      -4.174   8.649  17.294  0.00  0.00    -0.572 OA
ATOM     20  S1  SUS d 141      -0.073   8.212  17.383  0.00  0.00     0.156 S 
ATOM     21  O2S SUS d 141      -1.333   7.667  17.882  0.00  0.00    -0.296 OA
ATOM     22  C2  SUS d 141      -0.701  10.775  17.505  0.00  0.00     0.083 C 
ATOM     23  O5S SUS d 141       0.015  14.706  21.844  0.00  0.00    -0.572 OA
ATOM     24  H   SUS d 141      -2.027  15.000  18.810  0.00  0.00     0.080 H 
ATOM     25  H   SUS d 141      -0.891  15.759  17.720  0.00  0.00     0.080 H 
ATOM     26  H   SUS d 141       1.348   7.755  16.046  0.00  0.00     0.231 HD
ATOM     27  H   SUS d 141      -1.242   9.454  16.105  0.00  0.00     0.140 HD
ATOM     28  H   SUS d 141      -1.894  11.614  15.964  0.00  0.00     0.092 H 
ATOM     29  H   SUS d 141      -4.015  12.997  17.083  0.00  0.00     0.210 HD
ATOM     30  H   SUS d 141       1.692   8.855  18.081  0.00  0.00     0.231 HD
ATOM     31  H   SUS d 141      -0.655  13.847  16.625  0.00  0.00     0.090 H 
ATOM     32  H   SUS d 141      -2.418  12.640  18.723  0.00  0.00     0.091 H 
ATOM     33  H   SUS d 141       1.344  11.258  17.881  0.00  0.00     0.131 H 
ATOM     34  H   SUS d 141      -1.929   7.494  17.137  0.00  0.00     0.231 HD
ATOM     35  H   SUS d 141      -0.850  10.467  18.519  0.00  0.00     0.076 H 
ATOM     36  C1  IDY d 142       2.198  11.527  12.637  0.00  0.00     0.160 C 
ATOM     37  C3  IDY d 142       2.561  11.689  15.017  0.00  0.00     0.094 C 
ATOM     38  S   IDY d 142       0.701   8.813  13.155  0.00  0.00     0.252 S 
ATOM     39  O3  IDY d 142       3.826  11.403  15.787  0.00  0.00    -0.390 OA
ATOM     40  O4  IDY d 142       0.742  12.108  16.133  0.00  0.00    -0.348 OA
ATOM     41  C2  IDY d 142       2.256  10.727  13.919  0.00  0.00     0.134 C 
ATOM     42  C6  IDY d 142       0.679  14.747  13.944  0.00  0.00     0.206 C 
ATOM     43  O61 IDY d 142      -0.537  14.424  13.715  0.00  0.00    -0.646 OA
ATOM     44  O62 IDY d 142       0.932  16.026  14.185  0.00  0.00    -0.646 OA
ATOM     45  C5  IDY d 142       1.796  13.723  13.860  0.00  0.00     0.152 C 
ATOM     46  OS2 IDY d 142       1.474   7.656  13.646  0.00  0.00    -0.572 OA
ATOM     47  O2  IDY d 142       0.986  10.036  14.065  0.00  0.00    -0.244 OA
ATOM     48  OS1 IDY d 142      -0.757   8.527  13.199  0.00  0.00    -0.572 OA
ATOM     49  O5  IDY d 142       1.538  12.813  12.749  0.00  0.00    -0.340 OA
ATOM     50  O1  IDY d 142       3.646  11.590  12.280  0.00  0.00    -0.363 OA
ATOM     51  C7  IDY d 142       3.556  12.798  11.342  0.00  0.00     0.007 C 
ATOM     52  OS3 IDY d 142       1.125   9.066  11.748  0.00  0.00    -0.572 OA
ATOM     53  C4  IDY d 142       1.877  13.012  15.211  0.00  0.00     0.103 C 
ATOM     54  H   IDY d 142       1.586  11.085  11.879  0.00  0.00     0.133 H 
ATOM     55  H   IDY d 142       1.643  11.451  15.511  0.00  0.00     0.091 H 
ATOM     56  H   IDY d 142       4.595  11.653  15.252  0.00  0.00     0.210 HD
ATOM     57  H   IDY d 142       3.017   9.975  13.930  0.00  0.00     0.097 H 
ATOM     58  H   IDY d 142       2.743  14.180  13.664  0.00  0.00     0.104 H 
ATOM     59  H   IDY d 142       4.528  13.024  10.957  0.00  0.00     0.066 H 
ATOM     60  H   IDY d 142       3.181  13.642  11.882  0.00  0.00     0.066 H 
ATOM     61  H   IDY d 142       2.895  12.572  10.532  0.00  0.00     0.066 H 
ATOM     62  H   IDY d 142       2.130  13.939  15.680  0.00  0.00     0.092 H 
ENDROOT
TORSDOF 19
ENDMDL
MODEL 46
REMARK VINA RESULT:      -6.0      3.337      7.057
REMARK  0 active torsions:
REMARK  status: ('A' for Active; 'I' for Inactive)
REMARK       I    between atoms: O3_1  and  C3_8 
REMARK       I    between atoms: O3_1  and  S3_11 
REMARK       I    between atoms: C1_2  and  O1_36 
REMARK       I    between atoms: C6_3  and  C5_27 
REMARK       I    between atoms: C6_3  and  O6_25 
REMARK       I    between atoms: O3S_4  and  S1_32 
REMARK       I    between atoms: C3_5  and  O3_9 
REMARK       I    between atoms: N_6  and  S1_32 
REMARK       I    between atoms: N_6  and  C2_39 
REMARK       I    between atoms: S_7  and  O2_30 
REMARK       I    between atoms: O4_12  and  C1_29 
REMARK       I    between atoms: O4_12  and  C4_40 
REMARK       I    between atoms: O4_13  and  C4_28 
REMARK       I    between atoms: C2_14  and  O2_30 
REMARK       I    between atoms: C6_15  and  C5_23 
REMARK       I    between atoms: S2_16  and  O6_25 
REMARK       I    between atoms: O1S_22  and  S1_32 
REMARK       I    between atoms: S1_32  and  O2S_33 
REMARK       I    between atoms: O1_36  and  C7_37 
ROOT
ATOM      1  O3  SUS d 141      -2.604  13.546  13.089  0.00  0.00    -0.247 OA
ATOM      2  C6  SUS d 141       0.140  16.576  15.783  0.00  0.00     0.067 C 
ATOM      3  O3S SUS d 141      -5.689  11.096  16.094  0.00  0.00    -0.296 OA
ATOM      4  N   SUS d 141      -3.734  12.490  15.563  0.00  0.00    -0.210 NA
ATOM      5  C3  SUS d 141      -1.995  13.689  14.351  0.00  0.00     0.107 C 
ATOM      6  O6S SUS d 141       0.411  19.727  17.055  0.00  0.00    -0.572 OA
ATOM      7  S3  SUS d 141      -2.845  12.334  12.378  0.00  0.00     0.252 S 
ATOM      8  O4  SUS d 141       0.004  14.730  13.532  0.00  0.00    -0.390 OA
ATOM      9  S2  SUS d 141      -0.555  19.014  16.223  0.00  0.00     0.251 S 
ATOM     10  O5  SUS d 141      -1.787  15.414  16.609  0.00  0.00    -0.349 OA
ATOM     11  O8S SUS d 141      -2.900  11.043  13.023  0.00  0.00    -0.572 OA
ATOM     12  O4S SUS d 141      -0.224  19.089  14.803  0.00  0.00    -0.572 OA
ATOM     13  O1S SUS d 141      -5.795  13.484  16.460  0.00  0.00    -0.296 OA
ATOM     14  O7S SUS d 141      -1.810  12.266  11.379  0.00  0.00    -0.572 OA
ATOM     15  O6  SUS d 141      -0.490  17.509  16.631  0.00  0.00    -0.254 OA
ATOM     16  C5  SUS d 141      -0.663  15.282  15.768  0.00  0.00     0.090 C 
ATOM     17  C4  SUS d 141      -1.123  14.940  14.355  0.00  0.00     0.090 C 
ATOM     18  C1  SUS d 141      -2.473  14.193  16.765  0.00  0.00     0.150 C 
ATOM     19  O9S SUS d 141      -4.072  12.591  11.656  0.00  0.00    -0.572 OA
ATOM     20  S1  SUS d 141      -5.332  12.416  15.580  0.00  0.00     0.156 S 
ATOM     21  O2S SUS d 141      -5.776  12.601  14.201  0.00  0.00    -0.296 OA
ATOM     22  C2  SUS d 141      -3.070  13.771  15.428  0.00  0.00     0.083 C 
ATOM     23  O5S SUS d 141      -1.923  19.465  16.458  0.00  0.00    -0.572 OA
ATOM     24  H   SUS d 141       0.194  16.975  14.791  0.00  0.00     0.080 H 
ATOM     25  H   SUS d 141       1.128  16.378  16.143  0.00  0.00     0.080 H 
ATOM     26  H   SUS d 141      -5.378  11.011  17.009  0.00  0.00     0.231 HD
ATOM     27  H   SUS d 141      -3.421  11.912  14.783  0.00  0.00     0.140 HD
ATOM     28  H   SUS d 141      -1.373  12.842  14.555  0.00  0.00     0.092 H 
ATOM     29  H   SUS d 141      -0.288  14.512  12.633  0.00  0.00     0.210 HD
ATOM     30  H   SUS d 141      -5.478  13.321  17.362  0.00  0.00     0.231 HD
ATOM     31  H   SUS d 141      -0.034  14.491  16.120  0.00  0.00     0.090 H 
ATOM     32  H   SUS d 141      -1.703  15.758  13.981  0.00  0.00     0.091 H 
ATOM     33  H   SUS d 141      -3.257  14.314  17.484  0.00  0.00     0.131 H 
ATOM     34  H   SUS d 141      -5.447  11.870  13.654  0.00  0.00     0.231 HD
ATOM     35  H   SUS d 141      -3.785  14.510  15.132  0.00  0.00     0.076 H 
ATOM     36  C1  IDY d 142      -0.705   9.850  18.848  0.00  0.00     0.160 C 
ATOM     37  C3  IDY d 142      -1.774  12.006  19.016  0.00  0.00     0.094 C 
ATOM     38  S   IDY d 142      -2.963   9.002  16.834  0.00  0.00     0.252 S 
ATOM     39  O3  IDY d 142      -2.646  12.529  20.130  0.00  0.00    -0.390 OA
ATOM     40  O4  IDY d 142      -1.574  13.203  17.211  0.00  0.00    -0.348 OA
ATOM     41  C2  IDY d 142      -2.011  10.582  18.640  0.00  0.00     0.134 C 
ATOM     42  C6  IDY d 142       1.738  12.570  17.837  0.00  0.00     0.206 C 
ATOM     43  O61 IDY d 142       1.821  12.225  16.608  0.00  0.00    -0.646 OA
ATOM     44  O62 IDY d 142       2.665  13.398  18.298  0.00  0.00    -0.646 OA
ATOM     45  C5  IDY d 142       0.674  11.988  18.748  0.00  0.00     0.152 C 
ATOM     46  OS2 IDY d 142      -4.346   8.863  17.332  0.00  0.00    -0.572 OA
ATOM     47  O2  IDY d 142      -2.410  10.388  17.256  0.00  0.00    -0.244 OA
ATOM     48  OS1 IDY d 142      -2.929   8.916  15.351  0.00  0.00    -0.572 OA
ATOM     49  O5  IDY d 142       0.478  10.579  18.429  0.00  0.00    -0.340 OA
ATOM     50  O1  IDY d 142      -0.778   9.554  20.309  0.00  0.00    -0.363 OA
ATOM     51  C7  IDY d 142       0.720   9.321  20.529  0.00  0.00     0.007 C 
ATOM     52  OS3 IDY d 142      -2.164   7.890  17.425  0.00  0.00    -0.572 OA
ATOM     53  C4  IDY d 142      -0.595  12.824  18.572  0.00  0.00     0.103 C 
ATOM     54  H   IDY d 142      -0.596   8.979  18.236  0.00  0.00     0.133 H 
ATOM     55  H   IDY d 142      -2.024  12.332  18.028  0.00  0.00     0.091 H 
ATOM     56  H   IDY d 142      -2.335  12.174  20.978  0.00  0.00     0.210 HD
ATOM     57  H   IDY d 142      -2.815  10.220  19.245  0.00  0.00     0.097 H 
ATOM     58  H   IDY d 142       0.962  12.029  19.777  0.00  0.00     0.104 H 
ATOM     59  H   IDY d 142       0.896   9.084  21.557  0.00  0.00     0.066 H 
ATOM     60  H   IDY d 142       1.261  10.206  20.269  0.00  0.00     0.066 H 
ATOM     61  H   IDY d 142       1.048   8.509  19.915  0.00  0.00     0.066 H 
ATOM     62  H   IDY d 142      -0.078  13.682  18.949  0.00  0.00     0.092 H 
ENDROOT
TORSDOF 19
ENDMDL
MODEL 47
REMARK VINA RESULT:      -6.0      3.202      5.348
REMARK  0 active torsions:
REMARK  status: ('A' for Active; 'I' for Inactive)
REMARK       I    between atoms: O3_1  and  C3_8 
REMARK       I    between atoms: O3_1  and  S3_11 
REMARK       I    between atoms: C1_2  and  O1_36 
REMARK       I    between atoms: C6_3  and  C5_27 
REMARK       I    between atoms: C6_3  and  O6_25 
REMARK       I    between atoms: O3S_4  and  S1_32 
REMARK       I    between atoms: C3_5  and  O3_9 
REMARK       I    between atoms: N_6  and  S1_32 
REMARK       I    between atoms: N_6  and  C2_39 
REMARK       I    between atoms: S_7  and  O2_30 
REMARK       I    between atoms: O4_12  and  C1_29 
REMARK       I    between atoms: O4_12  and  C4_40 
REMARK       I    between atoms: O4_13  and  C4_28 
REMARK       I    between atoms: C2_14  and  O2_30 
REMARK       I    between atoms: C6_15  and  C5_23 
REMARK       I    between atoms: S2_16  and  O6_25 
REMARK       I    between atoms: O1S_22  and  S1_32 
REMARK       I    between atoms: S1_32  and  O2S_33 
REMARK       I    between atoms: O1_36  and  C7_37 
ROOT
ATOM      1  O3  SUS d 141      -1.973  10.516  17.177  0.00  0.00    -0.247 OA
ATOM      2  C6  SUS d 141       1.897   7.854  15.794  0.00  0.00     0.067 C 
ATOM      3  O3S SUS d 141      -0.356  14.718  19.243  0.00  0.00    -0.296 OA
ATOM      4  N   SUS d 141      -0.131  12.420  18.399  0.00  0.00    -0.210 NA
ATOM      5  C3  SUS d 141      -0.640  10.209  17.515  0.00  0.00     0.107 C 
ATOM      6  O6S SUS d 141       4.049   7.153  13.246  0.00  0.00    -0.572 OA
ATOM      7  S3  SUS d 141      -3.032  10.862  18.065  0.00  0.00     0.252 S 
ATOM      8  O4  SUS d 141      -0.780   7.884  16.945  0.00  0.00    -0.390 OA
ATOM      9  S2  SUS d 141       2.900   8.034  13.431  0.00  0.00     0.251 S 
ATOM     10  O5  SUS d 141       2.021  10.141  16.499  0.00  0.00    -0.349 OA
ATOM     11  O8S SUS d 141      -2.805  11.374  19.396  0.00  0.00    -0.572 OA
ATOM     12  O4S SUS d 141       1.637   7.366  13.129  0.00  0.00    -0.572 OA
ATOM     13  O1S SUS d 141       0.660  14.338  17.082  0.00  0.00    -0.296 OA
ATOM     14  O7S SUS d 141      -3.822   9.665  18.200  0.00  0.00    -0.572 OA
ATOM     15  O6  SUS d 141       2.861   8.427  14.941  0.00  0.00    -0.254 OA
ATOM     16  C5  SUS d 141       1.376   8.914  16.756  0.00  0.00     0.090 C 
ATOM     17  C4  SUS d 141      -0.131   9.091  16.611  0.00  0.00     0.090 C 
ATOM     18  C1  SUS d 141       1.703  11.115  17.468  0.00  0.00     0.150 C 
ATOM     19  O9S SUS d 141      -3.842  11.785  17.300  0.00  0.00    -0.572 OA
ATOM     20  S1  SUS d 141      -0.401  13.947  18.005  0.00  0.00     0.156 S 
ATOM     21  O2S SUS d 141      -1.722  13.993  17.383  0.00  0.00    -0.296 OA
ATOM     22  C2  SUS d 141       0.221  11.458  17.374  0.00  0.00     0.083 C 
ATOM     23  O5S SUS d 141       3.024   9.271  12.667  0.00  0.00    -0.572 OA
ATOM     24  H   SUS d 141       1.085   7.472  15.210  0.00  0.00     0.080 H 
ATOM     25  H   SUS d 141       2.343   7.056  16.350  0.00  0.00     0.080 H 
ATOM     26  H   SUS d 141       0.534  14.664  19.626  0.00  0.00     0.231 HD
ATOM     27  H   SUS d 141      -0.982  12.077  18.846  0.00  0.00     0.140 HD
ATOM     28  H   SUS d 141      -0.588   9.873  18.530  0.00  0.00     0.092 H 
ATOM     29  H   SUS d 141      -1.739   7.997  16.852  0.00  0.00     0.210 HD
ATOM     30  H   SUS d 141       1.516  14.293  17.536  0.00  0.00     0.231 HD
ATOM     31  H   SUS d 141       1.585   8.593  17.756  0.00  0.00     0.090 H 
ATOM     32  H   SUS d 141      -0.344   9.354  15.595  0.00  0.00     0.091 H 
ATOM     33  H   SUS d 141       2.286  11.995  17.293  0.00  0.00     0.131 H 
ATOM     34  H   SUS d 141      -2.394  13.726  18.030  0.00  0.00     0.231 HD
ATOM     35  H   SUS d 141       0.037  11.886  16.410  0.00  0.00     0.076 H 
ATOM     36  C1  IDY d 142       2.708  10.977  22.497  0.00  0.00     0.160 C 
ATOM     37  C3  IDY d 142       3.311  11.512  20.223  0.00  0.00     0.094 C 
ATOM     38  S   IDY d 142       0.190  12.826  22.156  0.00  0.00     0.252 S 
ATOM     39  O3  IDY d 142       4.368  12.474  19.742  0.00  0.00    -0.390 OA
ATOM     40  O4  IDY d 142       1.987  10.609  18.752  0.00  0.00    -0.348 OA
ATOM     41  C2  IDY d 142       2.506  11.984  21.387  0.00  0.00     0.134 C 
ATOM     42  C6  IDY d 142       2.944   7.790  20.455  0.00  0.00     0.206 C 
ATOM     43  O61 IDY d 142       1.699   7.500  20.514  0.00  0.00    -0.646 OA
ATOM     44  O62 IDY d 142       3.771   6.830  20.065  0.00  0.00    -0.646 OA
ATOM     45  C5  IDY d 142       3.459   9.147  20.894  0.00  0.00     0.152 C 
ATOM     46  OS2 IDY d 142       0.390  14.279  21.996  0.00  0.00    -0.572 OA
ATOM     47  O2  IDY d 142       1.079  12.076  21.129  0.00  0.00    -0.244 OA
ATOM     48  OS1 IDY d 142      -1.227  12.461  21.901  0.00  0.00    -0.572 OA
ATOM     49  O5  IDY d 142       2.719   9.591  22.070  0.00  0.00    -0.340 OA
ATOM     50  O1  IDY d 142       3.989  11.465  23.089  0.00  0.00    -0.363 OA
ATOM     51  C7  IDY d 142       4.377  10.162  23.796  0.00  0.00     0.007 C 
ATOM     52  OS3 IDY d 142       0.559  12.478  23.558  0.00  0.00    -0.572 OA
ATOM     53  C4  IDY d 142       3.324  10.101  19.707  0.00  0.00     0.103 C 
ATOM     54  H   IDY d 142       1.899  10.936  23.195  0.00  0.00     0.133 H 
ATOM     55  H   IDY d 142       2.432  11.435  19.618  0.00  0.00     0.091 H 
ATOM     56  H   IDY d 142       5.117  12.467  20.358  0.00  0.00     0.210 HD
ATOM     57  H   IDY d 142       2.839  12.971  21.628  0.00  0.00     0.097 H 
ATOM     58  H   IDY d 142       4.489   9.111  21.180  0.00  0.00     0.104 H 
ATOM     59  H   IDY d 142       5.308  10.297  24.305  0.00  0.00     0.066 H 
ATOM     60  H   IDY d 142       4.477   9.380  23.072  0.00  0.00     0.066 H 
ATOM     61  H   IDY d 142       3.619   9.899  24.502  0.00  0.00     0.066 H 
ATOM     62  H   IDY d 142       4.012   9.501  19.150  0.00  0.00     0.092 H 
ENDROOT
TORSDOF 19
ENDMDL
MODEL 48
REMARK VINA RESULT:      -6.0      2.904      6.550
REMARK  0 active torsions:
REMARK  status: ('A' for Active; 'I' for Inactive)
REMARK       I    between atoms: O3_1  and  C3_8 
REMARK       I    between atoms: O3_1  and  S3_11 
REMARK       I    between atoms: C1_2  and  O1_36 
REMARK       I    between atoms: C6_3  and  C5_27 
REMARK       I    between atoms: C6_3  and  O6_25 
REMARK       I    between atoms: O3S_4  and  S1_32 
REMARK       I    between atoms: C3_5  and  O3_9 
REMARK       I    between atoms: N_6  and  S1_32 
REMARK       I    between atoms: N_6  and  C2_39 
REMARK       I    between atoms: S_7  and  O2_30 
REMARK       I    between atoms: O4_12  and  C1_29 
REMARK       I    between atoms: O4_12  and  C4_40 
REMARK       I    between atoms: O4_13  and  C4_28 
REMARK       I    between atoms: C2_14  and  O2_30 
REMARK       I    between atoms: C6_15  and  C5_23 
REMARK       I    between atoms: S2_16  and  O6_25 
REMARK       I    between atoms: O1S_22  and  S1_32 
REMARK       I    between atoms: S1_32  and  O2S_33 
REMARK       I    between atoms: O1_36  and  C7_37 
ROOT
ATOM      1  O3  SUS d 141       0.838  11.537  21.966  0.00  0.00    -0.247 OA
ATOM      2  C6  SUS d 141       1.108  15.463  19.053  0.00  0.00     0.067 C 
ATOM      3  O3S SUS d 141       1.819   7.492  19.279  0.00  0.00    -0.296 OA
ATOM      4  N   SUS d 141       1.241   9.858  19.614  0.00  0.00    -0.210 NA
ATOM      5  C3  SUS d 141       0.618  11.975  20.645  0.00  0.00     0.107 C 
ATOM      6  O6S SUS d 141       3.135  17.925  17.850  0.00  0.00    -0.572 OA
ATOM      7  S3  SUS d 141       0.136  10.513  22.665  0.00  0.00     0.252 S 
ATOM      8  O4  SUS d 141      -0.259  14.122  21.250  0.00  0.00    -0.390 OA
ATOM      9  S2  SUS d 141       3.288  16.800  18.769  0.00  0.00     0.251 S 
ATOM     10  O5  SUS d 141       1.852  13.272  18.429  0.00  0.00    -0.349 OA
ATOM     11  O8S SUS d 141      -0.611   9.474  21.994  0.00  0.00    -0.572 OA
ATOM     12  O4S SUS d 141       2.940  17.157  20.141  0.00  0.00    -0.572 OA
ATOM     13  O1S SUS d 141       3.522   9.186  18.996  0.00  0.00    -0.296 OA
ATOM     14  O7S SUS d 141      -0.783  11.204  23.532  0.00  0.00    -0.572 OA
ATOM     15  O6  SUS d 141       2.285  15.695  18.314  0.00  0.00    -0.254 OA
ATOM     16  C5  SUS d 141       0.842  13.965  19.127  0.00  0.00     0.090 C 
ATOM     17  C4  SUS d 141       0.803  13.487  20.574  0.00  0.00     0.090 C 
ATOM     18  C1  SUS d 141       1.567  11.896  18.320  0.00  0.00     0.150 C 
ATOM     19  O9S SUS d 141       1.137   9.934  23.535  0.00  0.00    -0.572 OA
ATOM     20  S1  SUS d 141       2.376   8.743  19.784  0.00  0.00     0.156 S 
ATOM     21  O2S SUS d 141       2.679   8.667  21.211  0.00  0.00    -0.296 OA
ATOM     22  C2  SUS d 141       1.584  11.262  19.706  0.00  0.00     0.083 C 
ATOM     23  O5S SUS d 141       4.625  16.218  18.711  0.00  0.00    -0.572 OA
ATOM     24  H   SUS d 141       1.226  15.854  20.043  0.00  0.00     0.080 H 
ATOM     25  H   SUS d 141       0.284  15.948  18.574  0.00  0.00     0.080 H 
ATOM     26  H   SUS d 141       1.631   7.581  18.332  0.00  0.00     0.231 HD
ATOM     27  H   SUS d 141       0.541   9.678  20.335  0.00  0.00     0.140 HD
ATOM     28  H   SUS d 141      -0.382  11.741  20.344  0.00  0.00     0.092 H 
ATOM     29  H   SUS d 141      -0.284  13.818  22.171  0.00  0.00     0.210 HD
ATOM     30  H   SUS d 141       3.276   9.222  18.059  0.00  0.00     0.231 HD
ATOM     31  H   SUS d 141      -0.111  13.770  18.680  0.00  0.00     0.090 H 
ATOM     32  H   SUS d 141       1.735  13.736  21.037  0.00  0.00     0.091 H 
ATOM     33  H   SUS d 141       2.304  11.427  17.703  0.00  0.00     0.131 H 
ATOM     34  H   SUS d 141       1.892   8.371  21.694  0.00  0.00     0.231 HD
ATOM     35  H   SUS d 141       2.572  11.359  20.106  0.00  0.00     0.076 H 
ATOM     36  C1  IDY d 142      -2.400   9.701  15.919  0.00  0.00     0.160 C 
ATOM     37  C3  IDY d 142      -0.160  10.594  15.941  0.00  0.00     0.094 C 
ATOM     38  S   IDY d 142      -1.508   7.688  18.161  0.00  0.00     0.252 S 
ATOM     39  O3  IDY d 142       0.952  10.344  14.953  0.00  0.00    -0.390 OA
ATOM     40  O4  IDY d 142       0.292  11.726  17.743  0.00  0.00    -0.348 OA
ATOM     41  C2  IDY d 142      -0.970   9.395  16.301  0.00  0.00     0.134 C 
ATOM     42  C6  IDY d 142      -2.512  13.408  16.711  0.00  0.00     0.206 C 
ATOM     43  O61 IDY d 142      -2.935  13.276  17.911  0.00  0.00    -0.646 OA
ATOM     44  O62 IDY d 142      -2.600  14.614  16.166  0.00  0.00    -0.646 OA
ATOM     45  C5  IDY d 142      -2.013  12.217  15.916  0.00  0.00     0.152 C 
ATOM     46  OS2 IDY d 142      -0.524   6.640  17.827  0.00  0.00    -0.572 OA
ATOM     47  O2  IDY d 142      -0.952   9.065  17.716  0.00  0.00    -0.244 OA
ATOM     48  OS1 IDY d 142      -1.750   7.731  19.626  0.00  0.00    -0.572 OA
ATOM     49  O5  IDY d 142      -2.837  11.052  16.216  0.00  0.00    -0.340 OA
ATOM     50  O1  IDY d 142      -2.385   9.347  14.469  0.00  0.00    -0.363 OA
ATOM     51  C7  IDY d 142      -3.625  10.151  14.066  0.00  0.00     0.007 C 
ATOM     52  OS3 IDY d 142      -2.774   7.351  17.448  0.00  0.00    -0.572 OA
ATOM     53  C4  IDY d 142      -0.538  12.012  16.265  0.00  0.00     0.103 C 
ATOM     54  H   IDY d 142      -3.125   9.156  16.488  0.00  0.00     0.133 H 
ATOM     55  H   IDY d 142       0.136  10.730  16.960  0.00  0.00     0.091 H 
ATOM     56  H   IDY d 142       0.578  10.237  14.064  0.00  0.00     0.210 HD
ATOM     57  H   IDY d 142      -0.550   8.557  15.786  0.00  0.00     0.097 H 
ATOM     58  H   IDY d 142      -2.089  12.379  14.861  0.00  0.00     0.104 H 
ATOM     59  H   IDY d 142      -3.802  10.031  13.018  0.00  0.00     0.066 H 
ATOM     60  H   IDY d 142      -3.466  11.186  14.285  0.00  0.00     0.066 H 
ATOM     61  H   IDY d 142      -4.473   9.797  14.614  0.00  0.00     0.066 H 
ATOM     62  H   IDY d 142      -0.311  12.973  15.854  0.00  0.00     0.092 H 
ENDROOT
TORSDOF 19
ENDMDL
MODEL 49
REMARK VINA RESULT:      -6.0      2.443      5.503
REMARK  0 active torsions:
REMARK  status: ('A' for Active; 'I' for Inactive)
REMARK       I    between atoms: O3_1  and  C3_8 
REMARK       I    between atoms: O3_1  and  S3_11 
REMARK       I    between atoms: C1_2  and  O1_36 
REMARK       I    between atoms: C6_3  and  C5_27 
REMARK       I    between atoms: C6_3  and  O6_25 
REMARK       I    between atoms: O3S_4  and  S1_32 
REMARK       I    between atoms: C3_5  and  O3_9 
REMARK       I    between atoms: N_6  and  S1_32 
REMARK       I    between atoms: N_6  and  C2_39 
REMARK       I    between atoms: S_7  and  O2_30 
REMARK       I    between atoms: O4_12  and  C1_29 
REMARK       I    between atoms: O4_12  and  C4_40 
REMARK       I    between atoms: O4_13  and  C4_28 
REMARK       I    between atoms: C2_14  and  O2_30 
REMARK       I    between atoms: C6_15  and  C5_23 
REMARK       I    between atoms: S2_16  and  O6_25 
REMARK       I    between atoms: O1S_22  and  S1_32 
REMARK       I    between atoms: S1_32  and  O2S_33 
REMARK       I    between atoms: O1_36  and  C7_37 
ROOT
ATOM      1  O3  SUS d 141      -2.071  12.238  13.451  0.00  0.00    -0.247 OA
ATOM      2  C6  SUS d 141       0.539   8.110  13.793  0.00  0.00     0.067 C 
ATOM      3  O3S SUS d 141      -0.319  15.504  16.739  0.00  0.00    -0.296 OA
ATOM      4  N   SUS d 141      -0.595  13.272  15.746  0.00  0.00    -0.210 NA
ATOM      5  C3  SUS d 141      -1.368  11.423  14.361  0.00  0.00     0.107 C 
ATOM      6  O6S SUS d 141       3.240   6.397  12.616  0.00  0.00    -0.572 OA
ATOM      7  S3  SUS d 141      -3.206  13.056  13.722  0.00  0.00     0.252 S 
ATOM      8  O4  SUS d 141      -2.075   9.340  13.409  0.00  0.00    -0.390 OA
ATOM      9  S2  SUS d 141       2.620   7.690  12.339  0.00  0.00     0.251 S 
ATOM     10  O5  SUS d 141       1.147  10.175  14.844  0.00  0.00    -0.349 OA
ATOM     11  O8S SUS d 141      -3.544  13.516  15.049  0.00  0.00    -0.572 OA
ATOM     12  O4S SUS d 141       1.571   7.595  11.328  0.00  0.00    -0.572 OA
ATOM     13  O1S SUS d 141       1.447  14.585  15.366  0.00  0.00    -0.296 OA
ATOM     14  O7S SUS d 141      -4.337  12.314  13.229  0.00  0.00    -0.572 OA
ATOM     15  O6  SUS d 141       1.941   8.165  13.661  0.00  0.00    -0.254 OA
ATOM     16  C5  SUS d 141       0.048   9.353  14.522  0.00  0.00     0.090 C 
ATOM     17  C4  SUS d 141      -0.939  10.137  13.665  0.00  0.00     0.090 C 
ATOM     18  C1  SUS d 141       0.772  11.256  15.667  0.00  0.00     0.150 C 
ATOM     19  O9S SUS d 141      -3.049  14.179  12.824  0.00  0.00    -0.572 OA
ATOM     20  S1  SUS d 141       0.006  14.740  15.538  0.00  0.00     0.156 S 
ATOM     21  O2S SUS d 141      -0.639  15.293  14.350  0.00  0.00    -0.296 OA
ATOM     22  C2  SUS d 141      -0.159  12.183  14.895  0.00  0.00     0.083 C 
ATOM     23  O5S SUS d 141       3.601   8.705  11.970  0.00  0.00    -0.572 OA
ATOM     24  H   SUS d 141       0.091   8.065  12.822  0.00  0.00     0.080 H 
ATOM     25  H   SUS d 141       0.268   7.238  14.352  0.00  0.00     0.080 H 
ATOM     26  H   SUS d 141       0.125  15.107  17.505  0.00  0.00     0.231 HD
ATOM     27  H   SUS d 141      -1.606  13.349  15.632  0.00  0.00     0.140 HD
ATOM     28  H   SUS d 141      -2.000  11.168  15.186  0.00  0.00     0.092 H 
ATOM     29  H   SUS d 141      -2.703   9.838  12.864  0.00  0.00     0.210 HD
ATOM     30  H   SUS d 141       1.832  14.216  16.176  0.00  0.00     0.231 HD
ATOM     31  H   SUS d 141      -0.452   9.044  15.417  0.00  0.00     0.090 H 
ATOM     32  H   SUS d 141      -0.457  10.394  12.744  0.00  0.00     0.091 H 
ATOM     33  H   SUS d 141       1.645  11.797  15.967  0.00  0.00     0.131 H 
ATOM     34  H   SUS d 141      -1.592  15.378  14.509  0.00  0.00     0.231 HD
ATOM     35  H   SUS d 141       0.381  12.581  14.061  0.00  0.00     0.076 H 
ATOM     36  C1  IDY d 142      -1.201  11.054  20.399  0.00  0.00     0.160 C 
ATOM     37  C3  IDY d 142       0.670  11.130  18.878  0.00  0.00     0.094 C 
ATOM     38  S   IDY d 142      -2.194  13.761  19.149  0.00  0.00     0.252 S 
ATOM     39  O3  IDY d 142       2.095  11.524  19.174  0.00  0.00    -0.390 OA
ATOM     40  O4  IDY d 142       0.105  10.767  16.809  0.00  0.00    -0.348 OA
ATOM     41  C2  IDY d 142      -0.371  11.974  19.533  0.00  0.00     0.134 C 
ATOM     42  C6  IDY d 142      -1.178   7.931  18.248  0.00  0.00     0.206 C 
ATOM     43  O61 IDY d 142      -2.258   8.196  17.615  0.00  0.00    -0.646 OA
ATOM     44  O62 IDY d 142      -0.722   6.688  18.174  0.00  0.00    -0.646 OA
ATOM     45  C5  IDY d 142      -0.496   8.974  19.113  0.00  0.00     0.152 C 
ATOM     46  OS2 IDY d 142      -1.393  14.982  19.366  0.00  0.00    -0.572 OA
ATOM     47  O2  IDY d 142      -1.271  12.639  18.606  0.00  0.00    -0.244 OA
ATOM     48  OS1 IDY d 142      -3.267  14.008  18.152  0.00  0.00    -0.572 OA
ATOM     49  O5  IDY d 142      -1.505   9.766  19.806  0.00  0.00    -0.340 OA
ATOM     50  O1  IDY d 142      -0.363  10.999  21.633  0.00  0.00    -0.363 OA
ATOM     51  C7  IDY d 142      -0.954   9.705  22.203  0.00  0.00     0.007 C 
ATOM     52  OS3 IDY d 142      -2.798  13.388  20.461  0.00  0.00    -0.572 OA
ATOM     53  C4  IDY d 142       0.406   9.812  18.207  0.00  0.00     0.103 C 
ATOM     54  H   IDY d 142      -2.197  11.405  20.570  0.00  0.00     0.133 H 
ATOM     55  H   IDY d 142       0.301  11.388  17.907  0.00  0.00     0.091 H 
ATOM     56  H   IDY d 142       2.328  11.246  20.074  0.00  0.00     0.210 HD
ATOM     57  H   IDY d 142       0.136  12.745  20.075  0.00  0.00     0.097 H 
ATOM     58  H   IDY d 142       0.113   8.528  19.872  0.00  0.00     0.104 H 
ATOM     59  H   IDY d 142      -0.472   9.471  23.129  0.00  0.00     0.066 H 
ATOM     60  H   IDY d 142      -0.798   8.906  21.509  0.00  0.00     0.066 H 
ATOM     61  H   IDY d 142      -2.002   9.834  22.369  0.00  0.00     0.066 H 
ATOM     62  H   IDY d 142       0.985   8.942  17.983  0.00  0.00     0.092 H 
ENDROOT
TORSDOF 19
ENDMDL
MODEL 50
REMARK VINA RESULT:      -5.9      2.934      6.516
REMARK  0 active torsions:
REMARK  status: ('A' for Active; 'I' for Inactive)
REMARK       I    between atoms: O3_1  and  C3_8 
REMARK       I    between atoms: O3_1  and  S3_11 
REMARK       I    between atoms: C1_2  and  O1_36 
REMARK       I    between atoms: C6_3  and  C5_27 
REMARK       I    between atoms: C6_3  and  O6_25 
REMARK       I    between atoms: O3S_4  and  S1_32 
REMARK       I    between atoms: C3_5  and  O3_9 
REMARK       I    between atoms: N_6  and  S1_32 
REMARK       I    between atoms: N_6  and  C2_39 
REMARK       I    between atoms: S_7  and  O2_30 
REMARK       I    between atoms: O4_12  and  C1_29 
REMARK       I    between atoms: O4_12  and  C4_40 
REMARK       I    between atoms: O4_13  and  C4_28 
REMARK       I    between atoms: C2_14  and  O2_30 
REMARK       I    between atoms: C6_15  and  C5_23 
REMARK       I    between atoms: S2_16  and  O6_25 
REMARK       I    between atoms: O1S_22  and  S1_32 
REMARK       I    between atoms: S1_32  and  O2S_33 
REMARK       I    between atoms: O1_36  and  C7_37 
ROOT
ATOM      1  O3  SUS d 141       2.515  11.512  12.249  0.00  0.00    -0.247 OA
ATOM      2  C6  SUS d 141      -2.107  13.126  12.260  0.00  0.00     0.067 C 
ATOM      3  O3S SUS d 141       2.699   7.199  14.681  0.00  0.00    -0.296 OA
ATOM      4  N   SUS d 141       1.675   9.324  13.988  0.00  0.00    -0.210 NA
ATOM      5  C3  SUS d 141       1.331  11.530  13.013  0.00  0.00     0.107 C 
ATOM      6  O6S SUS d 141      -5.072  13.148  10.577  0.00  0.00    -0.572 OA
ATOM      7  S3  SUS d 141       3.855  11.476  12.733  0.00  0.00     0.252 S 
ATOM      8  O4  SUS d 141       0.725  13.782  12.459  0.00  0.00    -0.390 OA
ATOM      9  S2  SUS d 141      -3.750  12.566  10.360  0.00  0.00     0.251 S 
ATOM     10  O5  SUS d 141      -1.451  10.923  12.937  0.00  0.00    -0.349 OA
ATOM     11  O8S SUS d 141       4.200  11.016  14.057  0.00  0.00    -0.572 OA
ATOM     12  O4S SUS d 141      -2.850  13.482   9.666  0.00  0.00    -0.572 OA
ATOM     13  O1S SUS d 141       0.977   7.193  12.983  0.00  0.00    -0.296 OA
ATOM     14  O7S SUS d 141       4.339  12.827  12.613  0.00  0.00    -0.572 OA
ATOM     15  O6  SUS d 141      -3.132  12.293  11.767  0.00  0.00    -0.254 OA
ATOM     16  C5  SUS d 141      -1.068  12.279  12.981  0.00  0.00     0.090 C 
ATOM     17  C4  SUS d 141       0.307  12.439  12.343  0.00  0.00     0.090 C 
ATOM     18  C1  SUS d 141      -0.616  10.114  13.733  0.00  0.00     0.150 C 
ATOM     19  O9S SUS d 141       4.567  10.713  11.731  0.00  0.00    -0.572 OA
ATOM     20  S1  SUS d 141       2.156   7.876  13.507  0.00  0.00     0.156 S 
ATOM     21  O2S SUS d 141       3.174   8.091  12.482  0.00  0.00    -0.296 OA
ATOM     22  C2  SUS d 141       0.793  10.111  13.150  0.00  0.00     0.083 C 
ATOM     23  O5S SUS d 141      -3.819  11.285   9.665  0.00  0.00    -0.572 OA
ATOM     24  H   SUS d 141      -1.644  13.643  11.445  0.00  0.00     0.080 H 
ATOM     25  H   SUS d 141      -2.524  13.837  12.942  0.00  0.00     0.080 H 
ATOM     26  H   SUS d 141       1.996   7.075  15.337  0.00  0.00     0.231 HD
ATOM     27  H   SUS d 141       2.518   9.881  14.132  0.00  0.00     0.140 HD
ATOM     28  H   SUS d 141       1.534  11.911  13.993  0.00  0.00     0.092 H 
ATOM     29  H   SUS d 141       1.600  13.885  12.053  0.00  0.00     0.210 HD
ATOM     30  H   SUS d 141       0.330   7.073  13.695  0.00  0.00     0.231 HD
ATOM     31  H   SUS d 141      -1.010  12.609  13.998  0.00  0.00     0.090 H 
ATOM     32  H   SUS d 141       0.235  12.165  11.311  0.00  0.00     0.091 H 
ATOM     33  H   SUS d 141      -0.997   9.114  13.750  0.00  0.00     0.131 H 
ATOM     34  H   SUS d 141       3.937   8.546  12.874  0.00  0.00     0.231 HD
ATOM     35  H   SUS d 141       0.750   9.673  12.174  0.00  0.00     0.076 H 
ATOM     36  C1  IDY d 142       0.064  10.354  18.813  0.00  0.00     0.160 C 
ATOM     37  C3  IDY d 142      -1.099   9.545  16.860  0.00  0.00     0.094 C 
ATOM     38  S   IDY d 142       2.696   9.108  17.633  0.00  0.00     0.252 S 
ATOM     39  O3  IDY d 142      -1.996   8.338  16.743  0.00  0.00    -0.390 OA
ATOM     40  O4  IDY d 142      -0.578  10.626  15.046  0.00  0.00    -0.348 OA
ATOM     41  C2  IDY d 142       0.126   9.348  17.686  0.00  0.00     0.134 C 
ATOM     42  C6  IDY d 142      -1.569  13.260  17.005  0.00  0.00     0.206 C 
ATOM     43  O61 IDY d 142      -0.479  13.829  16.652  0.00  0.00    -0.646 OA
ATOM     44  O62 IDY d 142      -2.681  13.979  16.923  0.00  0.00    -0.646 OA
ATOM     45  C5  IDY d 142      -1.577  11.854  17.572  0.00  0.00     0.152 C 
ATOM     46  OS2 IDY d 142       2.805   7.639  17.530  0.00  0.00    -0.572 OA
ATOM     47  O2  IDY d 142       1.372   9.565  16.969  0.00  0.00    -0.244 OA
ATOM     48  OS1 IDY d 142       3.825   9.768  16.929  0.00  0.00    -0.572 OA
ATOM     49  O5  IDY d 142      -0.413  11.670  18.431  0.00  0.00    -0.340 OA
ATOM     50  O1  IDY d 142      -0.801   9.628  19.789  0.00  0.00    -0.363 OA
ATOM     51  C7  IDY d 142      -1.237  10.852  20.601  0.00  0.00     0.007 C 
ATOM     52  OS3 IDY d 142       2.731   9.454  19.084  0.00  0.00    -0.572 OA
ATOM     53  C4  IDY d 142      -1.613  10.878  16.395  0.00  0.00     0.103 C 
ATOM     54  H   IDY d 142       1.022  10.624  19.204  0.00  0.00     0.133 H 
ATOM     55  H   IDY d 142      -0.509   9.780  15.999  0.00  0.00     0.091 H 
ATOM     56  H   IDY d 142      -2.484   8.216  17.573  0.00  0.00     0.210 HD
ATOM     57  H   IDY d 142       0.133   8.329  18.011  0.00  0.00     0.097 H 
ATOM     58  H   IDY d 142      -2.436  11.674  18.183  0.00  0.00     0.104 H 
ATOM     59  H   IDY d 142      -1.892  10.543  21.388  0.00  0.00     0.066 H 
ATOM     60  H   IDY d 142      -1.748  11.541  19.962  0.00  0.00     0.066 H 
ATOM     61  H   IDY d 142      -0.375  11.328  21.020  0.00  0.00     0.066 H 
ATOM     62  H   IDY d 142      -2.566  11.268  16.105  0.00  0.00     0.092 H 
ENDROOT
TORSDOF 19
ENDMDL
MODEL 51
REMARK VINA RESULT:      -5.9      2.457      5.153
REMARK  0 active torsions:
REMARK  status: ('A' for Active; 'I' for Inactive)
REMARK       I    between atoms: O3_1  and  C3_8 
REMARK       I    between atoms: O3_1  and  S3_11 
REMARK       I    between atoms: C1_2  and  O1_36 
REMARK       I    between atoms: C6_3  and  C5_27 
REMARK       I    between atoms: C6_3  and  O6_25 
REMARK       I    between atoms: O3S_4  and  S1_32 
REMARK       I    between atoms: C3_5  and  O3_9 
REMARK       I    between atoms: N_6  and  S1_32 
REMARK       I    between atoms: N_6  and  C2_39 
REMARK       I    between atoms: S_7  and  O2_30 
REMARK       I    between atoms: O4_12  and  C1_29 
REMARK       I    between atoms: O4_12  and  C4_40 
REMARK       I    between atoms: O4_13  and  C4_28 
REMARK       I    between atoms: C2_14  and  O2_30 
REMARK       I    between atoms: C6_15  and  C5_23 
REMARK       I    between atoms: S2_16  and  O6_25 
REMARK       I    between atoms: O1S_22  and  S1_32 
REMARK       I    between atoms: S1_32  and  O2S_33 
REMARK       I    between atoms: O1_36  and  C7_37 
ROOT
ATOM      1  O3  SUS d 141      -2.162   9.044  17.369  0.00  0.00    -0.247 OA
ATOM      2  C6  SUS d 141       1.161   9.561  20.927  0.00  0.00     0.067 C 
ATOM      3  O3S SUS d 141      -0.432  11.188  13.252  0.00  0.00    -0.296 OA
ATOM      4  N   SUS d 141      -0.487  10.717  15.664  0.00  0.00    -0.210 NA
ATOM      5  C3  SUS d 141      -1.165   9.909  17.860  0.00  0.00     0.107 C 
ATOM      6  O6S SUS d 141       3.852   8.152  22.474  0.00  0.00    -0.572 OA
ATOM      7  S3  SUS d 141      -3.353   9.403  16.673  0.00  0.00     0.252 S 
ATOM      8  O4  SUS d 141      -1.655   9.546  20.178  0.00  0.00    -0.390 OA
ATOM      9  S2  SUS d 141       2.969   7.784  21.370  0.00  0.00     0.251 S 
ATOM     10  O5  SUS d 141       1.578  10.044  18.617  0.00  0.00    -0.349 OA
ATOM     11  O8S SUS d 141      -3.510  10.662  15.983  0.00  0.00    -0.572 OA
ATOM     12  O4S SUS d 141       1.782   7.068  21.827  0.00  0.00    -0.572 OA
ATOM     13  O1S SUS d 141       1.177   9.653  14.202  0.00  0.00    -0.296 OA
ATOM     14  O7S SUS d 141      -4.406   9.322  17.652  0.00  0.00    -0.572 OA
ATOM     15  O6  SUS d 141       2.479   9.111  20.711  0.00  0.00    -0.254 OA
ATOM     16  C5  SUS d 141       0.603  10.135  19.632  0.00  0.00     0.090 C 
ATOM     17  C4  SUS d 141      -0.653   9.388  19.198  0.00  0.00     0.090 C 
ATOM     18  C1  SUS d 141       1.178  10.714  17.443  0.00  0.00     0.150 C 
ATOM     19  O9S SUS d 141      -3.574   8.299  15.765  0.00  0.00    -0.572 OA
ATOM     20  S1  SUS d 141      -0.210  10.110  14.210  0.00  0.00     0.156 S 
ATOM     21  O2S SUS d 141      -1.157   9.013  14.025  0.00  0.00    -0.296 OA
ATOM     22  C2  SUS d 141      -0.033  10.009  16.844  0.00  0.00     0.083 C 
ATOM     23  O5S SUS d 141       3.665   7.023  20.337  0.00  0.00    -0.572 OA
ATOM     24  H   SUS d 141       0.552   8.740  21.245  0.00  0.00     0.080 H 
ATOM     25  H   SUS d 141       1.162  10.318  21.682  0.00  0.00     0.080 H 
ATOM     26  H   SUS d 141       0.214  11.896  13.406  0.00  0.00     0.231 HD
ATOM     27  H   SUS d 141      -1.499  10.819  15.752  0.00  0.00     0.140 HD
ATOM     28  H   SUS d 141      -1.572  10.888  18.011  0.00  0.00     0.092 H 
ATOM     29  H   SUS d 141      -2.455   9.071  19.903  0.00  0.00     0.210 HD
ATOM     30  H   SUS d 141       1.768  10.411  14.327  0.00  0.00     0.231 HD
ATOM     31  H   SUS d 141       0.346  11.160  19.801  0.00  0.00     0.090 H 
ATOM     32  H   SUS d 141      -0.409   8.352  19.086  0.00  0.00     0.091 H 
ATOM     33  H   SUS d 141       1.982  10.705  16.736  0.00  0.00     0.131 H 
ATOM     34  H   SUS d 141      -2.062   9.362  14.038  0.00  0.00     0.231 HD
ATOM     35  H   SUS d 141       0.259   9.016  16.570  0.00  0.00     0.076 H 
ATOM     36  C1  IDY d 142       0.209  15.718  16.863  0.00  0.00     0.160 C 
ATOM     37  C3  IDY d 142       1.712  13.832  16.871  0.00  0.00     0.094 C 
ATOM     38  S   IDY d 142      -1.472  14.238  14.659  0.00  0.00     0.252 S 
ATOM     39  O3  IDY d 142       3.074  13.724  16.232  0.00  0.00    -0.390 OA
ATOM     40  O4  IDY d 142       0.839  12.046  17.754  0.00  0.00    -0.348 OA
ATOM     41  C2  IDY d 142       0.681  14.533  16.053  0.00  0.00     0.134 C 
ATOM     42  C6  IDY d 142       0.382  14.238  20.351  0.00  0.00     0.206 C 
ATOM     43  O61 IDY d 142      -0.828  13.825  20.381  0.00  0.00    -0.646 OA
ATOM     44  O62 IDY d 142       1.031  14.299  21.506  0.00  0.00    -0.646 OA
ATOM     45  C5  IDY d 142       1.018  14.720  19.061  0.00  0.00     0.152 C 
ATOM     46  OS2 IDY d 142      -0.876  14.039  13.323  0.00  0.00    -0.572 OA
ATOM     47  O2  IDY d 142      -0.483  13.722  15.737  0.00  0.00    -0.244 OA
ATOM     48  OS1 IDY d 142      -2.741  13.476  14.786  0.00  0.00    -0.572 OA
ATOM     49  O5  IDY d 142       0.033  15.460  18.280  0.00  0.00    -0.340 OA
ATOM     50  O1  IDY d 142       1.262  16.723  16.531  0.00  0.00    -0.363 OA
ATOM     51  C7  IDY d 142       1.032  17.641  17.736  0.00  0.00     0.007 C 
ATOM     52  OS3 IDY d 142      -1.739  15.697  14.812  0.00  0.00    -0.572 OA
ATOM     53  C4  IDY d 142       1.566  13.495  18.328  0.00  0.00     0.103 C 
ATOM     54  H   IDY d 142      -0.783  16.039  16.623  0.00  0.00     0.133 H 
ATOM     55  H   IDY d 142       1.125  12.937  16.886  0.00  0.00     0.091 H 
ATOM     56  H   IDY d 142       3.520  14.585  16.271  0.00  0.00     0.210 HD
ATOM     57  H   IDY d 142       1.135  14.794  15.120  0.00  0.00     0.097 H 
ATOM     58  H   IDY d 142       1.829  15.393  19.242  0.00  0.00     0.104 H 
ATOM     59  H   IDY d 142       1.715  18.464  17.692  0.00  0.00     0.066 H 
ATOM     60  H   IDY d 142       1.194  17.092  18.639  0.00  0.00     0.066 H 
ATOM     61  H   IDY d 142       0.028  18.009  17.717  0.00  0.00     0.066 H 
ATOM     62  H   IDY d 142       2.239  13.314  19.139  0.00  0.00     0.092 H 
ENDROOT
TORSDOF 19
ENDMDL
MODEL 52
REMARK VINA RESULT:      -5.9      3.574      7.339
REMARK  0 active torsions:
REMARK  status: ('A' for Active; 'I' for Inactive)
REMARK       I    between atoms: O3_1  and  C3_8 
REMARK       I    between atoms: O3_1  and  S3_11 
REMARK       I    between atoms: C1_2  and  O1_36 
REMARK       I    between atoms: C6_3  and  C5_27 
REMARK       I    between atoms: C6_3  and  O6_25 
REMARK       I    between atoms: O3S_4  and  S1_32 
REMARK       I    between atoms: C3_5  and  O3_9 
REMARK       I    between atoms: N_6  and  S1_32 
REMARK       I    between atoms: N_6  and  C2_39 
REMARK       I    between atoms: S_7  and  O2_30 
REMARK       I    between atoms: O4_12  and  C1_29 
REMARK       I    between atoms: O4_12  and  C4_40 
REMARK       I    between atoms: O4_13  and  C4_28 
REMARK       I    between atoms: C2_14  and  O2_30 
REMARK       I    between atoms: C6_15  and  C5_23 
REMARK       I    between atoms: S2_16  and  O6_25 
REMARK       I    between atoms: O1S_22  and  S1_32 
REMARK       I    between atoms: S1_32  and  O2S_33 
REMARK       I    between atoms: O1_36  and  C7_37 
ROOT
ATOM      1  O3  SUS d 141      -4.188  15.376  18.222  0.00  0.00    -0.247 OA
ATOM      2  C6  SUS d 141      -4.525  12.667  14.157  0.00  0.00     0.067 C 
ATOM      3  O3S SUS d 141       0.501  15.272  19.818  0.00  0.00    -0.296 OA
ATOM      4  N   SUS d 141      -1.414  14.507  18.480  0.00  0.00    -0.210 NA
ATOM      5  C3  SUS d 141      -3.663  14.235  17.583  0.00  0.00     0.107 C 
ATOM      6  O6S SUS d 141      -4.375  12.693  10.752  0.00  0.00    -0.572 OA
ATOM      7  S3  SUS d 141      -4.324  15.596  19.623  0.00  0.00     0.252 S 
ATOM      8  O4  SUS d 141      -5.751  13.492  16.669  0.00  0.00    -0.390 OA
ATOM      9  S2  SUS d 141      -4.239  13.688  11.813  0.00  0.00     0.251 S 
ATOM     10  O5  SUS d 141      -2.454  13.314  15.174  0.00  0.00    -0.349 OA
ATOM     11  O8S SUS d 141      -3.551  14.878  20.610  0.00  0.00    -0.572 OA
ATOM     12  O4S SUS d 141      -5.523  14.267  12.195  0.00  0.00    -0.572 OA
ATOM     13  O1S SUS d 141       0.368  15.870  17.478  0.00  0.00    -0.296 OA
ATOM     14  O7S SUS d 141      -5.713  15.355  19.913  0.00  0.00    -0.572 OA
ATOM     15  O6  SUS d 141      -3.678  12.948  13.067  0.00  0.00    -0.254 OA
ATOM     16  C5  SUS d 141      -3.769  12.895  15.459  0.00  0.00     0.090 C 
ATOM     17  C4  SUS d 141      -4.462  13.947  16.317  0.00  0.00     0.090 C 
ATOM     18  C1  SUS d 141      -1.658  13.377  16.335  0.00  0.00     0.150 C 
ATOM     19  O9S SUS d 141      -4.132  17.023  19.772  0.00  0.00    -0.572 OA
ATOM     20  S1  SUS d 141      -0.370  15.694  18.725  0.00  0.00     0.156 S 
ATOM     21  O2S SUS d 141      -1.153  16.875  19.079  0.00  0.00    -0.296 OA
ATOM     22  C2  SUS d 141      -2.192  14.466  17.258  0.00  0.00     0.083 C 
ATOM     23  O5S SUS d 141      -3.283  14.735  11.467  0.00  0.00    -0.572 OA
ATOM     24  H   SUS d 141      -5.378  13.313  14.122  0.00  0.00     0.080 H 
ATOM     25  H   SUS d 141      -4.846  11.648  14.105  0.00  0.00     0.080 H 
ATOM     26  H   SUS d 141       1.003  14.487  19.546  0.00  0.00     0.231 HD
ATOM     27  H   SUS d 141      -2.081  14.537  19.252  0.00  0.00     0.140 HD
ATOM     28  H   SUS d 141      -3.737  13.386  18.231  0.00  0.00     0.092 H 
ATOM     29  H   SUS d 141      -6.192  14.161  17.215  0.00  0.00     0.210 HD
ATOM     30  H   SUS d 141       0.871  15.064  17.284  0.00  0.00     0.231 HD
ATOM     31  H   SUS d 141      -3.749  11.974  16.003  0.00  0.00     0.090 H 
ATOM     32  H   SUS d 141      -4.535  14.852  15.750  0.00  0.00     0.091 H 
ATOM     33  H   SUS d 141      -0.648  13.602  16.064  0.00  0.00     0.131 H 
ATOM     34  H   SUS d 141      -1.625  16.714  19.910  0.00  0.00     0.231 HD
ATOM     35  H   SUS d 141      -2.104  15.405  16.752  0.00  0.00     0.076 H 
ATOM     36  C1  IDY d 142      -0.368   9.519  19.463  0.00  0.00     0.160 C 
ATOM     37  C3  IDY d 142       0.010  10.896  17.518  0.00  0.00     0.094 C 
ATOM     38  S   IDY d 142      -0.265  12.133  21.204  0.00  0.00     0.252 S 
ATOM     39  O3  IDY d 142       1.292  11.085  16.745  0.00  0.00    -0.390 OA
ATOM     40  O4  IDY d 142      -1.701  12.135  17.002  0.00  0.00    -0.348 OA
ATOM     41  C2  IDY d 142       0.162  10.857  19.001  0.00  0.00     0.134 C 
ATOM     42  C6  IDY d 142      -3.215   9.058  17.000  0.00  0.00     0.206 C 
ATOM     43  O61 IDY d 142      -4.116   9.590  17.736  0.00  0.00    -0.646 OA
ATOM     44  O62 IDY d 142      -3.625   8.339  15.964  0.00  0.00    -0.646 OA
ATOM     45  C5  IDY d 142      -1.743   9.174  17.348  0.00  0.00     0.152 C 
ATOM     46  OS2 IDY d 142       1.014  12.862  21.319  0.00  0.00    -0.572 OA
ATOM     47  O2  IDY d 142      -0.577  11.892  19.704  0.00  0.00    -0.244 OA
ATOM     48  OS1 IDY d 142      -1.375  12.926  21.791  0.00  0.00    -0.572 OA
ATOM     49  O5  IDY d 142      -1.577   9.077  18.794  0.00  0.00    -0.340 OA
ATOM     50  O1  IDY d 142       0.827   8.653  19.243  0.00  0.00    -0.363 OA
ATOM     51  C7  IDY d 142       0.085   7.313  19.215  0.00  0.00     0.007 C 
ATOM     52  OS3 IDY d 142      -0.111  10.848  21.946  0.00  0.00    -0.572 OA
ATOM     53  C4  IDY d 142      -1.233  10.497  16.774  0.00  0.00     0.103 C 
ATOM     54  H   IDY d 142      -0.720   9.520  20.473  0.00  0.00     0.133 H 
ATOM     55  H   IDY d 142      -0.632  11.749  17.583  0.00  0.00     0.091 H 
ATOM     56  H   IDY d 142       1.796  10.256  16.748  0.00  0.00     0.210 HD
ATOM     57  H   IDY d 142       1.197  11.016  19.221  0.00  0.00     0.097 H 
ATOM     58  H   IDY d 142      -1.168   8.380  16.923  0.00  0.00     0.104 H 
ATOM     59  H   IDY d 142       0.787   6.520  19.060  0.00  0.00     0.066 H 
ATOM     60  H   IDY d 142      -0.629   7.317  18.417  0.00  0.00     0.066 H 
ATOM     61  H   IDY d 142      -0.421   7.165  20.145  0.00  0.00     0.066 H 
ATOM     62  H   IDY d 142      -1.451  10.149  15.787  0.00  0.00     0.092 H 
ENDROOT
TORSDOF 19
ENDMDL
MODEL 53
REMARK VINA RESULT:      -5.9      2.926      4.981
REMARK  0 active torsions:
REMARK  status: ('A' for Active; 'I' for Inactive)
REMARK       I    between atoms: O3_1  and  C3_8 
REMARK       I    between atoms: O3_1  and  S3_11 
REMARK       I    between atoms: C1_2  and  O1_36 
REMARK       I    between atoms: C6_3  and  C5_27 
REMARK       I    between atoms: C6_3  and  O6_25 
REMARK       I    between atoms: O3S_4  and  S1_32 
REMARK       I    between atoms: C3_5  and  O3_9 
REMARK       I    between atoms: N_6  and  S1_32 
REMARK       I    between atoms: N_6  and  C2_39 
REMARK       I    between atoms: S_7  and  O2_30 
REMARK       I    between atoms: O4_12  and  C1_29 
REMARK       I    between atoms: O4_12  and  C4_40 
REMARK       I    between atoms: O4_13  and  C4_28 
REMARK       I    between atoms: C2_14  and  O2_30 
REMARK       I    between atoms: C6_15  and  C5_23 
REMARK       I    between atoms: S2_16  and  O6_25 
REMARK       I    between atoms: O1S_22  and  S1_32 
REMARK       I    between atoms: S1_32  and  O2S_33 
REMARK       I    between atoms: O1_36  and  C7_37 
ROOT
ATOM      1  O3  SUS d 141       2.852  11.454  16.530  0.00  0.00    -0.247 OA
ATOM      2  C6  SUS d 141       1.541  14.293  12.762  0.00  0.00     0.067 C 
ATOM      3  O3S SUS d 141       0.065   7.358  16.480  0.00  0.00    -0.296 OA
ATOM      4  N   SUS d 141       0.660   9.656  15.840  0.00  0.00    -0.210 NA
ATOM      5  C3  SUS d 141       1.752  11.831  15.734  0.00  0.00     0.107 C 
ATOM      6  O6S SUS d 141       2.146  15.076   9.500  0.00  0.00    -0.572 OA
ATOM      7  S3  SUS d 141       2.834  11.065  17.900  0.00  0.00     0.252 S 
ATOM      8  O4  SUS d 141       2.370  14.140  15.551  0.00  0.00    -0.390 OA
ATOM      9  S2  SUS d 141       2.705  14.141  10.472  0.00  0.00     0.251 S 
ATOM     10  O5  SUS d 141       0.830  12.022  13.045  0.00  0.00    -0.349 OA
ATOM     11  O8S SUS d 141       1.647  10.578  18.563  0.00  0.00    -0.572 OA
ATOM     12  O4S SUS d 141       3.772  14.741  11.268  0.00  0.00    -0.572 OA
ATOM     13  O1S SUS d 141       1.088   7.768  14.327  0.00  0.00    -0.296 OA
ATOM     14  O7S SUS d 141       3.284  12.222  18.631  0.00  0.00    -0.572 OA
ATOM     15  O6  SUS d 141       1.556  13.760  11.457  0.00  0.00    -0.254 OA
ATOM     16  C5  SUS d 141       1.094  13.218  13.744  0.00  0.00     0.090 C 
ATOM     17  C4  SUS d 141       2.163  12.964  14.800  0.00  0.00     0.090 C 
ATOM     18  C1  SUS d 141       0.252  11.043  13.879  0.00  0.00     0.150 C 
ATOM     19  O9S SUS d 141       3.903  10.095  18.002  0.00  0.00    -0.572 OA
ATOM     20  S1  SUS d 141       1.075   8.114  15.745  0.00  0.00     0.156 S 
ATOM     21  O2S SUS d 141       2.396   7.997  16.357  0.00  0.00    -0.296 OA
ATOM     22  C2  SUS d 141       1.259  10.625  14.944  0.00  0.00     0.083 C 
ATOM     23  O5S SUS d 141       3.163  12.904   9.847  0.00  0.00    -0.572 OA
ATOM     24  H   SUS d 141       2.524  14.628  13.022  0.00  0.00     0.080 H 
ATOM     25  H   SUS d 141       0.860  15.118  12.802  0.00  0.00     0.080 H 
ATOM     26  H   SUS d 141      -0.795   7.461  16.045  0.00  0.00     0.231 HD
ATOM     27  H   SUS d 141       0.875   9.961  16.790  0.00  0.00     0.140 HD
ATOM     28  H   SUS d 141       0.953  12.178  16.356  0.00  0.00     0.092 H 
ATOM     29  H   SUS d 141       3.051  13.979  16.224  0.00  0.00     0.210 HD
ATOM     30  H   SUS d 141       0.194   7.860  13.963  0.00  0.00     0.231 HD
ATOM     31  H   SUS d 141       0.207  13.558  14.235  0.00  0.00     0.090 H 
ATOM     32  H   SUS d 141       3.069  12.681  14.304  0.00  0.00     0.091 H 
ATOM     33  H   SUS d 141      -0.021  10.191  13.291  0.00  0.00     0.131 H 
ATOM     34  H   SUS d 141       2.340   8.236  17.296  0.00  0.00     0.231 HD
ATOM     35  H   SUS d 141       2.099  10.180  14.453  0.00  0.00     0.076 H 
ATOM     36  C1  IDY d 142      -4.245  11.279  16.337  0.00  0.00     0.160 C 
ATOM     37  C3  IDY d 142      -2.907  10.753  14.400  0.00  0.00     0.094 C 
ATOM     38  S   IDY d 142      -2.444   9.304  17.989  0.00  0.00     0.252 S 
ATOM     39  O3  IDY d 142      -3.252   9.840  13.250  0.00  0.00    -0.390 OA
ATOM     40  O4  IDY d 142      -0.895  11.575  14.501  0.00  0.00    -0.348 OA
ATOM     41  C2  IDY d 142      -3.304  10.253  15.748  0.00  0.00     0.134 C 
ATOM     42  C6  IDY d 142      -2.703  14.454  14.949  0.00  0.00     0.206 C 
ATOM     43  O61 IDY d 142      -1.940  14.682  15.951  0.00  0.00    -0.646 OA
ATOM     44  O62 IDY d 142      -2.896  15.451  14.096  0.00  0.00    -0.646 OA
ATOM     45  C5  IDY d 142      -3.423  13.129  14.793  0.00  0.00     0.152 C 
ATOM     46  OS2 IDY d 142      -2.507   7.861  17.686  0.00  0.00    -0.572 OA
ATOM     47  O2  IDY d 142      -2.196  10.087  16.674  0.00  0.00    -0.244 OA
ATOM     48  OS1 IDY d 142      -1.327   9.595  18.924  0.00  0.00    -0.572 OA
ATOM     49  O5  IDY d 142      -3.870  12.660  16.100  0.00  0.00    -0.340 OA
ATOM     50  O1  IDY d 142      -5.538  10.862  15.719  0.00  0.00    -0.363 OA
ATOM     51  C7  IDY d 142      -6.278  12.189  15.916  0.00  0.00     0.007 C 
ATOM     52  OS3 IDY d 142      -3.743   9.683  18.617  0.00  0.00    -0.572 OA
ATOM     53  C4  IDY d 142      -2.463  12.157  14.104  0.00  0.00     0.103 C 
ATOM     54  H   IDY d 142      -4.261  11.287  17.407  0.00  0.00     0.133 H 
ATOM     55  H   IDY d 142      -1.877  10.781  14.688  0.00  0.00     0.091 H 
ATOM     56  H   IDY d 142      -4.204   9.891  13.071  0.00  0.00     0.210 HD
ATOM     57  H   IDY d 142      -3.741   9.286  15.615  0.00  0.00     0.097 H 
ATOM     58  H   IDY d 142      -4.300  13.219  14.187  0.00  0.00     0.104 H 
ATOM     59  H   IDY d 142      -7.270  12.106  15.525  0.00  0.00     0.066 H 
ATOM     60  H   IDY d 142      -5.755  12.968  15.401  0.00  0.00     0.066 H 
ATOM     61  H   IDY d 142      -6.323  12.421  16.959  0.00  0.00     0.066 H 
ATOM     62  H   IDY d 142      -2.453  12.786  13.239  0.00  0.00     0.092 H 
ENDROOT
TORSDOF 19
ENDMDL
MODEL 54
REMARK VINA RESULT:      -5.8      2.670      7.361
REMARK  0 active torsions:
REMARK  status: ('A' for Active; 'I' for Inactive)
REMARK       I    between atoms: O3_1  and  C3_8 
REMARK       I    between atoms: O3_1  and  S3_11 
REMARK       I    between atoms: C1_2  and  O1_36 
REMARK       I    between atoms: C6_3  and  C5_27 
REMARK       I    between atoms: C6_3  and  O6_25 
REMARK       I    between atoms: O3S_4  and  S1_32 
REMARK       I    between atoms: C3_5  and  O3_9 
REMARK       I    between atoms: N_6  and  S1_32 
REMARK       I    between atoms: N_6  and  C2_39 
REMARK       I    between atoms: S_7  and  O2_30 
REMARK       I    between atoms: O4_12  and  C1_29 
REMARK       I    between atoms: O4_12  and  C4_40 
REMARK       I    between atoms: O4_13  and  C4_28 
REMARK       I    between atoms: C2_14  and  O2_30 
REMARK       I    between atoms: C6_15  and  C5_23 
REMARK       I    between atoms: S2_16  and  O6_25 
REMARK       I    between atoms: O1S_22  and  S1_32 
REMARK       I    between atoms: S1_32  and  O2S_33 
REMARK       I    between atoms: O1_36  and  C7_37 
ROOT
ATOM      1  O3  SUS d 141      -0.164  10.763  21.095  0.00  0.00    -0.247 OA
ATOM      2  C6  SUS d 141      -3.428  13.007  18.218  0.00  0.00     0.067 C 
ATOM      3  O3S SUS d 141       4.275  10.938  18.902  0.00  0.00    -0.296 OA
ATOM      4  N   SUS d 141       1.825  11.122  18.991  0.00  0.00    -0.210 NA
ATOM      5  C3  SUS d 141      -0.488  11.019  19.748  0.00  0.00     0.107 C 
ATOM      6  O6S SUS d 141      -4.966  15.963  17.501  0.00  0.00    -0.572 OA
ATOM      7  S3  SUS d 141       0.497   9.615  21.622  0.00  0.00     0.252 S 
ATOM      8  O4  SUS d 141      -2.858  10.795  20.027  0.00  0.00    -0.390 OA
ATOM      9  S2  SUS d 141      -3.969  15.510  18.467  0.00  0.00     0.251 S 
ATOM     10  O5  SUS d 141      -1.057  13.101  17.888  0.00  0.00    -0.349 OA
ATOM     11  O8S SUS d 141       1.320   8.744  20.816  0.00  0.00    -0.572 OA
ATOM     12  O4S SUS d 141      -4.578  14.989  19.687  0.00  0.00    -0.572 OA
ATOM     13  O1S SUS d 141       3.249  13.124  19.015  0.00  0.00    -0.296 OA
ATOM     14  O7S SUS d 141      -0.547   8.803  22.193  0.00  0.00    -0.572 OA
ATOM     15  O6  SUS d 141      -3.189  14.333  17.805  0.00  0.00    -0.254 OA
ATOM     16  C5  SUS d 141      -2.110  12.246  18.272  0.00  0.00     0.090 C 
ATOM     17  C4  SUS d 141      -1.845  11.710  19.674  0.00  0.00     0.090 C 
ATOM     18  C1  SUS d 141       0.162  12.405  17.756  0.00  0.00     0.150 C 
ATOM     19  O9S SUS d 141       1.253  10.130  22.742  0.00  0.00    -0.572 OA
ATOM     20  S1  SUS d 141       3.211  11.745  19.491  0.00  0.00     0.156 S 
ATOM     21  O2S SUS d 141       3.208  11.661  20.949  0.00  0.00    -0.296 OA
ATOM     22  C2  SUS d 141       0.599  11.883  19.120  0.00  0.00     0.083 C 
ATOM     23  O5S SUS d 141      -2.993  16.550  18.781  0.00  0.00    -0.572 OA
ATOM     24  H   SUS d 141      -3.877  13.013  19.190  0.00  0.00     0.080 H 
ATOM     25  H   SUS d 141      -4.087  12.531  17.523  0.00  0.00     0.080 H 
ATOM     26  H   SUS d 141       4.245  11.019  17.935  0.00  0.00     0.231 HD
ATOM     27  H   SUS d 141       1.689  10.253  19.509  0.00  0.00     0.140 HD
ATOM     28  H   SUS d 141      -0.546  10.099  19.204  0.00  0.00     0.092 H 
ATOM     29  H   SUS d 141      -2.690  10.453  20.919  0.00  0.00     0.210 HD
ATOM     30  H   SUS d 141       3.250  13.132  18.045  0.00  0.00     0.231 HD
ATOM     31  H   SUS d 141      -2.172  11.417  17.599  0.00  0.00     0.090 H 
ATOM     32  H   SUS d 141      -1.842  12.535  20.357  0.00  0.00     0.091 H 
ATOM     33  H   SUS d 141       0.910  13.067  17.371  0.00  0.00     0.131 H 
ATOM     34  H   SUS d 141       3.182  10.729  21.219  0.00  0.00     0.231 HD
ATOM     35  H   SUS d 141       0.771  12.724  19.760  0.00  0.00     0.076 H 
ATOM     36  C1  IDY d 142       1.270   8.616  14.480  0.00  0.00     0.160 C 
ATOM     37  C3  IDY d 142       1.130  10.954  15.055  0.00  0.00     0.094 C 
ATOM     38  S   IDY d 142       3.178   8.229  16.946  0.00  0.00     0.252 S 
ATOM     39  O3  IDY d 142       1.833  12.118  14.402  0.00  0.00    -0.390 OA
ATOM     40  O4  IDY d 142      -0.009  11.321  16.872  0.00  0.00    -0.348 OA
ATOM     41  C2  IDY d 142       1.962   9.729  15.233  0.00  0.00     0.134 C 
ATOM     42  C6  IDY d 142      -2.351   9.567  15.084  0.00  0.00     0.206 C 
ATOM     43  O61 IDY d 142      -2.503   8.855  16.135  0.00  0.00    -0.646 OA
ATOM     44  O62 IDY d 142      -3.449  10.019  14.494  0.00  0.00    -0.646 OA
ATOM     45  C5  IDY d 142      -0.977   9.812  14.490  0.00  0.00     0.152 C 
ATOM     46  OS2 IDY d 142       4.515   8.856  16.918  0.00  0.00    -0.572 OA
ATOM     47  O2  IDY d 142       2.109   9.302  16.614  0.00  0.00    -0.244 OA
ATOM     48  OS1 IDY d 142       2.886   7.678  18.294  0.00  0.00    -0.572 OA
ATOM     49  O5  IDY d 142      -0.175   8.599  14.604  0.00  0.00    -0.340 OA
ATOM     50  O1  IDY d 142       1.782   8.853  13.097  0.00  0.00    -0.363 OA
ATOM     51  C7  IDY d 142       0.683   8.084  12.356  0.00  0.00     0.007 C 
ATOM     52  OS3 IDY d 142       3.183   7.129  15.939  0.00  0.00    -0.572 OA
ATOM     53  C4  IDY d 142      -0.362  11.007  15.219  0.00  0.00     0.103 C 
ATOM     54  H   IDY d 142       1.487   7.639  14.858  0.00  0.00     0.133 H 
ATOM     55  H   IDY d 142       0.974  11.029  16.111  0.00  0.00     0.091 H 
ATOM     56  H   IDY d 142       1.923  11.949  13.451  0.00  0.00     0.210 HD
ATOM     57  H   IDY d 142       2.944   9.954  14.875  0.00  0.00     0.097 H 
ATOM     58  H   IDY d 142      -1.028  10.045  13.447  0.00  0.00     0.104 H 
ATOM     59  H   IDY d 142       0.865   8.130  11.303  0.00  0.00     0.066 H 
ATOM     60  H   IDY d 142      -0.268   8.524  12.573  0.00  0.00     0.066 H 
ATOM     61  H   IDY d 142       0.684   7.063  12.675  0.00  0.00     0.066 H 
ATOM     62  H   IDY d 142      -1.147  11.632  14.849  0.00  0.00     0.092 H 
ENDROOT
TORSDOF 19
ENDMDL
MODEL 55
REMARK VINA RESULT:      -5.8      2.881      6.405
REMARK  0 active torsions:
REMARK  status: ('A' for Active; 'I' for Inactive)
REMARK       I    between atoms: O3_1  and  C3_8 
REMARK       I    between atoms: O3_1  and  S3_11 
REMARK       I    between atoms: C1_2  and  O1_36 
REMARK       I    between atoms: C6_3  and  C5_27 
REMARK       I    between atoms: C6_3  and  O6_25 
REMARK       I    between atoms: O3S_4  and  S1_32 
REMARK       I    between atoms: C3_5  and  O3_9 
REMARK       I    between atoms: N_6  and  S1_32 
REMARK       I    between atoms: N_6  and  C2_39 
REMARK       I    between atoms: S_7  and  O2_30 
REMARK       I    between atoms: O4_12  and  C1_29 
REMARK       I    between atoms: O4_12  and  C4_40 
REMARK       I    between atoms: O4_13  and  C4_28 
REMARK       I    between atoms: C2_14  and  O2_30 
REMARK       I    between atoms: C6_15  and  C5_23 
REMARK       I    between atoms: S2_16  and  O6_25 
REMARK       I    between atoms: O1S_22  and  S1_32 
REMARK       I    between atoms: S1_32  and  O2S_33 
REMARK       I    between atoms: O1_36  and  C7_37 
ROOT
ATOM      1  O3  SUS d 141       3.200   9.242  15.903  0.00  0.00    -0.247 OA
ATOM      2  C6  SUS d 141       1.987  12.216  19.598  0.00  0.00     0.067 C 
ATOM      3  O3S SUS d 141       1.207  11.002  11.723  0.00  0.00    -0.296 OA
ATOM      4  N   SUS d 141       1.481  10.829  14.160  0.00  0.00    -0.210 NA
ATOM      5  C3  SUS d 141       2.181  10.093  16.374  0.00  0.00     0.107 C 
ATOM      6  O6S SUS d 141       2.922  14.934  21.430  0.00  0.00    -0.572 OA
ATOM      7  S3  SUS d 141       3.048   8.070  15.105  0.00  0.00     0.252 S 
ATOM      8  O4  SUS d 141       2.409   9.482  18.681  0.00  0.00    -0.390 OA
ATOM      9  S2  SUS d 141       3.486  14.183  20.311  0.00  0.00     0.251 S 
ATOM     10  O5  SUS d 141       1.648  12.739  17.284  0.00  0.00    -0.349 OA
ATOM     11  O8S SUS d 141       1.879   7.818  14.295  0.00  0.00    -0.572 OA
ATOM     12  O4S SUS d 141       4.302  13.057  20.757  0.00  0.00    -0.572 OA
ATOM     13  O1S SUS d 141       2.450  12.707  12.906  0.00  0.00    -0.296 OA
ATOM     14  O7S SUS d 141       3.177   6.966  16.021  0.00  0.00    -0.572 OA
ATOM     15  O6  SUS d 141       2.288  13.590  19.506  0.00  0.00    -0.254 OA
ATOM     16  C5  SUS d 141       1.594  11.690  18.224  0.00  0.00     0.090 C 
ATOM     17  C4  SUS d 141       2.523  10.564  17.783  0.00  0.00     0.090 C 
ATOM     18  C1  SUS d 141       1.133  12.350  16.031  0.00  0.00     0.150 C 
ATOM     19  O9S SUS d 141       4.243   8.047  14.289  0.00  0.00    -0.572 OA
ATOM     20  S1  SUS d 141       2.168  11.280  12.788  0.00  0.00     0.156 S 
ATOM     21  O2S SUS d 141       3.383  10.483  12.644  0.00  0.00    -0.296 OA
ATOM     22  C2  SUS d 141       2.028  11.276  15.425  0.00  0.00     0.083 C 
ATOM     23  O5S SUS d 141       4.239  15.035  19.397  0.00  0.00    -0.572 OA
ATOM     24  H   SUS d 141       2.848  11.686  19.951  0.00  0.00     0.080 H 
ATOM     25  H   SUS d 141       1.175  12.074  20.280  0.00  0.00     0.080 H 
ATOM     26  H   SUS d 141       0.416  11.548  11.852  0.00  0.00     0.231 HD
ATOM     27  H   SUS d 141       1.497   9.809  14.176  0.00  0.00     0.140 HD
ATOM     28  H   SUS d 141       1.251   9.564  16.410  0.00  0.00     0.092 H 
ATOM     29  H   SUS d 141       3.000   8.766  18.401  0.00  0.00     0.210 HD
ATOM     30  H   SUS d 141       1.617  13.195  12.999  0.00  0.00     0.231 HD
ATOM     31  H   SUS d 141       0.598  11.303  18.283  0.00  0.00     0.090 H 
ATOM     32  H   SUS d 141       3.527  10.935  17.781  0.00  0.00     0.091 H 
ATOM     33  H   SUS d 141       1.102  13.198  15.379  0.00  0.00     0.131 H 
ATOM     34  H   SUS d 141       3.148   9.545  12.569  0.00  0.00     0.231 HD
ATOM     35  H   SUS d 141       2.996  11.701  15.261  0.00  0.00     0.076 H 
ATOM     36  C1  IDY d 142      -3.650  10.847  14.941  0.00  0.00     0.160 C 
ATOM     37  C3  IDY d 142      -1.969  12.556  15.213  0.00  0.00     0.094 C 
ATOM     38  S   IDY d 142      -1.798   9.515  12.781  0.00  0.00     0.252 S 
ATOM     39  O3  IDY d 142      -1.977  13.964  14.671  0.00  0.00    -0.390 OA
ATOM     40  O4  IDY d 142      -0.169  11.836  16.199  0.00  0.00    -0.348 OA
ATOM     41  C2  IDY d 142      -2.468  11.512  14.273  0.00  0.00     0.134 C 
ATOM     42  C6  IDY d 142      -2.496  10.940  18.553  0.00  0.00     0.206 C 
ATOM     43  O61 IDY d 142      -1.941   9.787  18.546  0.00  0.00    -0.646 OA
ATOM     44  O62 IDY d 142      -2.731  11.492  19.735  0.00  0.00    -0.646 OA
ATOM     45  C5  IDY d 142      -2.943  11.606  17.266  0.00  0.00     0.152 C 
ATOM     46  OS2 IDY d 142      -1.563  10.225  11.508  0.00  0.00    -0.572 OA
ATOM     47  O2  IDY d 142      -1.498  10.476  13.960  0.00  0.00    -0.244 OA
ATOM     48  OS1 IDY d 142      -0.899   8.337  12.898  0.00  0.00    -0.572 OA
ATOM     49  O5  IDY d 142      -3.490  10.601  16.362  0.00  0.00    -0.340 OA
ATOM     50  O1  IDY d 142      -4.745  11.796  14.585  0.00  0.00    -0.363 OA
ATOM     51  C7  IDY d 142      -5.725  11.375  15.685  0.00  0.00     0.007 C 
ATOM     52  OS3 IDY d 142      -3.221   9.068  12.784  0.00  0.00    -0.572 OA
ATOM     53  C4  IDY d 142      -1.738  12.345  16.682  0.00  0.00     0.103 C 
ATOM     54  H   IDY d 142      -3.825   9.844  14.612  0.00  0.00     0.133 H 
ATOM     55  H   IDY d 142      -1.014  12.078  15.273  0.00  0.00     0.091 H 
ATOM     56  H   IDY d 142      -2.886  14.302  14.660  0.00  0.00     0.210 HD
ATOM     57  H   IDY d 142      -2.706  11.998  13.350  0.00  0.00     0.097 H 
ATOM     58  H   IDY d 142      -3.724  12.318  17.435  0.00  0.00     0.104 H 
ATOM     59  H   IDY d 142      -6.619  11.958  15.609  0.00  0.00     0.066 H 
ATOM     60  H   IDY d 142      -5.276  11.534  16.643  0.00  0.00     0.066 H 
ATOM     61  H   IDY d 142      -5.964  10.338  15.571  0.00  0.00     0.066 H 
ATOM     62  H   IDY d 142      -1.709  12.974  17.547  0.00  0.00     0.092 H 
ENDROOT
TORSDOF 19
ENDMDL
MODEL 56
REMARK VINA RESULT:      -5.8      2.500      3.695
REMARK  0 active torsions:
REMARK  status: ('A' for Active; 'I' for Inactive)
REMARK       I    between atoms: O3_1  and  C3_8 
REMARK       I    between atoms: O3_1  and  S3_11 
REMARK       I    between atoms: C1_2  and  O1_36 
REMARK       I    between atoms: C6_3  and  C5_27 
REMARK       I    between atoms: C6_3  and  O6_25 
REMARK       I    between atoms: O3S_4  and  S1_32 
REMARK       I    between atoms: C3_5  and  O3_9 
REMARK       I    between atoms: N_6  and  S1_32 
REMARK       I    between atoms: N_6  and  C2_39 
REMARK       I    between atoms: S_7  and  O2_30 
REMARK       I    between atoms: O4_12  and  C1_29 
REMARK       I    between atoms: O4_12  and  C4_40 
REMARK       I    between atoms: O4_13  and  C4_28 
REMARK       I    between atoms: C2_14  and  O2_30 
REMARK       I    between atoms: C6_15  and  C5_23 
REMARK       I    between atoms: S2_16  and  O6_25 
REMARK       I    between atoms: O1S_22  and  S1_32 
REMARK       I    between atoms: S1_32  and  O2S_33 
REMARK       I    between atoms: O1_36  and  C7_37 
ROOT
ATOM      1  O3  SUS d 141       0.081   8.841  15.668  0.00  0.00    -0.247 OA
ATOM      2  C6  SUS d 141      -0.514  12.310  12.263  0.00  0.00     0.067 C 
ATOM      3  O3S SUS d 141      -2.770   9.937  19.569  0.00  0.00    -0.296 OA
ATOM      4  N   SUS d 141      -1.609  10.412  17.454  0.00  0.00    -0.210 NA
ATOM      5  C3  SUS d 141      -0.176  10.216  15.495  0.00  0.00     0.107 C 
ATOM      6  O6S SUS d 141      -2.273  13.251   9.500  0.00  0.00    -0.572 OA
ATOM      7  S3  SUS d 141       0.770   8.220  16.749  0.00  0.00     0.252 S 
ATOM      8  O4  SUS d 141       1.314  10.504  13.638  0.00  0.00    -0.390 OA
ATOM      9  S2  SUS d 141      -2.272  12.098  10.396  0.00  0.00     0.251 S 
ATOM     10  O5  SUS d 141      -1.903  12.077  14.202  0.00  0.00    -0.349 OA
ATOM     11  O8S SUS d 141       0.929   8.845  18.042  0.00  0.00    -0.572 OA
ATOM     12  O4S SUS d 141      -1.320  11.073   9.976  0.00  0.00    -0.572 OA
ATOM     13  O1S SUS d 141      -4.028   9.981  17.504  0.00  0.00    -0.296 OA
ATOM     14  O7S SUS d 141       2.090   7.938  16.248  0.00  0.00    -0.572 OA
ATOM     15  O6  SUS d 141      -1.811  12.606  11.798  0.00  0.00    -0.254 OA
ATOM     16  C5  SUS d 141      -0.571  11.981  13.749  0.00  0.00     0.090 C 
ATOM     17  C4  SUS d 141      -0.043  10.576  14.019  0.00  0.00     0.090 C 
ATOM     18  C1  SUS d 141      -1.992  11.949  15.603  0.00  0.00     0.150 C 
ATOM     19  O9S SUS d 141       0.118   6.936  16.887  0.00  0.00    -0.572 OA
ATOM     20  S1  SUS d 141      -2.783   9.580  18.153  0.00  0.00     0.156 S 
ATOM     21  O2S SUS d 141      -2.479   8.167  17.945  0.00  0.00    -0.296 OA
ATOM     22  C2  SUS d 141      -1.572  10.542  16.012  0.00  0.00     0.083 C 
ATOM     23  O5S SUS d 141      -3.604  11.527  10.562  0.00  0.00    -0.572 OA
ATOM     24  H   SUS d 141      -0.125  11.469  11.726  0.00  0.00     0.080 H 
ATOM     25  H   SUS d 141       0.122  13.156  12.110  0.00  0.00     0.080 H 
ATOM     26  H   SUS d 141      -2.975  10.879  19.667  0.00  0.00     0.231 HD
ATOM     27  H   SUS d 141      -0.731   9.972  17.733  0.00  0.00     0.140 HD
ATOM     28  H   SUS d 141       0.535  10.793  16.050  0.00  0.00     0.092 H 
ATOM     29  H   SUS d 141       1.650   9.611  13.810  0.00  0.00     0.210 HD
ATOM     30  H   SUS d 141      -4.189  10.923  17.668  0.00  0.00     0.231 HD
ATOM     31  H   SUS d 141       0.045  12.681  14.273  0.00  0.00     0.090 H 
ATOM     32  H   SUS d 141      -0.622   9.881  13.448  0.00  0.00     0.091 H 
ATOM     33  H   SUS d 141      -3.001  12.124  15.914  0.00  0.00     0.131 H 
ATOM     34  H   SUS d 141      -1.647   7.946  18.392  0.00  0.00     0.231 HD
ATOM     35  H   SUS d 141      -2.261   9.847  15.577  0.00  0.00     0.076 H 
ATOM     36  C1  IDY d 142       0.053  15.020  19.168  0.00  0.00     0.160 C 
ATOM     37  C3  IDY d 142      -1.727  14.404  17.661  0.00  0.00     0.094 C 
ATOM     38  S   IDY d 142      -0.245  12.195  20.510  0.00  0.00     0.252 S 
ATOM     39  O3  IDY d 142      -3.174  14.831  17.704  0.00  0.00    -0.390 OA
ATOM     40  O4  IDY d 142      -1.139  12.889  16.216  0.00  0.00    -0.348 OA
ATOM     41  C2  IDY d 142      -1.120  14.085  18.986  0.00  0.00     0.134 C 
ATOM     42  C6  IDY d 142       1.279  15.237  15.585  0.00  0.00     0.206 C 
ATOM     43  O61 IDY d 142       2.120  14.278  15.673  0.00  0.00    -0.646 OA
ATOM     44  O62 IDY d 142       1.392  16.049  14.542  0.00  0.00    -0.646 OA
ATOM     45  C5  IDY d 142       0.252  15.486  16.673  0.00  0.00     0.152 C 
ATOM     46  OS2 IDY d 142      -1.480  11.888  21.258  0.00  0.00    -0.572 OA
ATOM     47  O2  IDY d 142      -0.623  12.725  19.103  0.00  0.00    -0.244 OA
ATOM     48  OS1 IDY d 142       0.584  10.973  20.343  0.00  0.00    -0.572 OA
ATOM     49  O5  IDY d 142       0.854  15.235  17.977  0.00  0.00    -0.340 OA
ATOM     50  O1  IDY d 142      -0.635  16.236  19.693  0.00  0.00    -0.363 OA
ATOM     51  C7  IDY d 142       0.469  17.241  19.350  0.00  0.00     0.007 C 
ATOM     52  OS3 IDY d 142       0.508  13.214  21.296  0.00  0.00    -0.572 OA
ATOM     53  C4  IDY d 142      -0.954  14.590  16.387  0.00  0.00     0.103 C 
ATOM     54  H   IDY d 142       0.812  14.640  19.819  0.00  0.00     0.133 H 
ATOM     55  H   IDY d 142      -1.539  13.411  17.310  0.00  0.00     0.091 H 
ATOM     56  H   IDY d 142      -3.232  15.742  18.035  0.00  0.00     0.210 HD
ATOM     57  H   IDY d 142      -1.886  14.196  19.724  0.00  0.00     0.097 H 
ATOM     58  H   IDY d 142      -0.082  16.503  16.683  0.00  0.00     0.104 H 
ATOM     59  H   IDY d 142       0.167  18.220  19.655  0.00  0.00     0.066 H 
ATOM     60  H   IDY d 142       0.642  17.234  18.294  0.00  0.00     0.066 H 
ATOM     61  H   IDY d 142       1.369  16.969  19.860  0.00  0.00     0.066 H 
ATOM     62  H   IDY d 142      -1.117  15.108  15.466  0.00  0.00     0.092 H 
ENDROOT
TORSDOF 19
ENDMDL
MODEL 57
REMARK VINA RESULT:      -5.8      2.562      5.216
REMARK  0 active torsions:
REMARK  status: ('A' for Active; 'I' for Inactive)
REMARK       I    between atoms: O3_1  and  C3_8 
REMARK       I    between atoms: O3_1  and  S3_11 
REMARK       I    between atoms: C1_2  and  O1_36 
REMARK       I    between atoms: C6_3  and  C5_27 
REMARK       I    between atoms: C6_3  and  O6_25 
REMARK       I    between atoms: O3S_4  and  S1_32 
REMARK       I    between atoms: C3_5  and  O3_9 
REMARK       I    between atoms: N_6  and  S1_32 
REMARK       I    between atoms: N_6  and  C2_39 
REMARK       I    between atoms: S_7  and  O2_30 
REMARK       I    between atoms: O4_12  and  C1_29 
REMARK       I    between atoms: O4_12  and  C4_40 
REMARK       I    between atoms: O4_13  and  C4_28 
REMARK       I    between atoms: C2_14  and  O2_30 
REMARK       I    between atoms: C6_15  and  C5_23 
REMARK       I    between atoms: S2_16  and  O6_25 
REMARK       I    between atoms: O1S_22  and  S1_32 
REMARK       I    between atoms: S1_32  and  O2S_33 
REMARK       I    between atoms: O1_36  and  C7_37 
ROOT
ATOM      1  O3  SUS d 141      -3.163  11.306  15.654  0.00  0.00    -0.247 OA
ATOM      2  C6  SUS d 141       0.294   9.981  12.450  0.00  0.00     0.067 C 
ATOM      3  O3S SUS d 141      -1.115  14.240  19.081  0.00  0.00    -0.296 OA
ATOM      4  N   SUS d 141      -1.090  12.619  17.233  0.00  0.00    -0.210 NA
ATOM      5  C3  SUS d 141      -1.790  11.016  15.537  0.00  0.00     0.107 C 
ATOM      6  O6S SUS d 141       1.822  10.746   9.500  0.00  0.00    -0.572 OA
ATOM      7  S3  SUS d 141      -3.997  11.097  16.791  0.00  0.00     0.252 S 
ATOM      8  O4  SUS d 141      -2.059   9.209  13.985  0.00  0.00    -0.390 OA
ATOM      9  S2  SUS d 141       0.745  11.323  10.301  0.00  0.00     0.251 S 
ATOM     10  O5  SUS d 141       0.578  11.693  14.103  0.00  0.00    -0.349 OA
ATOM     11  O8S SUS d 141      -3.477  10.965  18.132  0.00  0.00    -0.572 OA
ATOM     12  O4S SUS d 141      -0.556  10.742   9.978  0.00  0.00    -0.572 OA
ATOM     13  O1S SUS d 141      -0.608  14.996  16.840  0.00  0.00    -0.296 OA
ATOM     14  O7S SUS d 141      -4.740   9.898  16.503  0.00  0.00    -0.572 OA
ATOM     15  O6  SUS d 141       1.044  10.977  11.792  0.00  0.00    -0.254 OA
ATOM     16  C5  SUS d 141       0.003  10.425  13.877  0.00  0.00     0.090 C 
ATOM     17  C4  SUS d 141      -1.498  10.494  14.134  0.00  0.00     0.090 C 
ATOM     18  C1  SUS d 141       0.486  12.078  15.456  0.00  0.00     0.150 C 
ATOM     19  O9S SUS d 141      -4.955  12.179  16.725  0.00  0.00    -0.572 OA
ATOM     20  S1  SUS d 141      -1.438  14.120  17.662  0.00  0.00     0.156 S 
ATOM     21  O2S SUS d 141      -2.864  14.310  17.410  0.00  0.00    -0.296 OA
ATOM     22  C2  SUS d 141      -0.978  12.273  15.830  0.00  0.00     0.083 C 
ATOM     23  O5S SUS d 141       0.699  12.778  10.197  0.00  0.00    -0.572 OA
ATOM     24  H   SUS d 141      -0.629   9.828  11.929  0.00  0.00     0.080 H 
ATOM     25  H   SUS d 141       0.850   9.068  12.466  0.00  0.00     0.080 H 
ATOM     26  H   SUS d 141      -0.163  14.109  19.208  0.00  0.00     0.231 HD
ATOM     27  H   SUS d 141      -1.821  12.024  17.626  0.00  0.00     0.140 HD
ATOM     28  H   SUS d 141      -1.513  10.262  16.244  0.00  0.00     0.092 H 
ATOM     29  H   SUS d 141      -3.014   9.252  14.149  0.00  0.00     0.210 HD
ATOM     30  H   SUS d 141       0.328  14.836  17.040  0.00  0.00     0.231 HD
ATOM     31  H   SUS d 141       0.429   9.707  14.547  0.00  0.00     0.090 H 
ATOM     32  H   SUS d 141      -1.931  11.169  13.425  0.00  0.00     0.091 H 
ATOM     33  H   SUS d 141       1.017  12.995  15.602  0.00  0.00     0.131 H 
ATOM     34  H   SUS d 141      -3.375  13.710  17.975  0.00  0.00     0.231 HD
ATOM     35  H   SUS d 141      -1.372  13.072  15.237  0.00  0.00     0.076 H 
ATOM     36  C1  IDY d 142       2.588   9.761  19.523  0.00  0.00     0.160 C 
ATOM     37  C3  IDY d 142       2.669  11.334  17.696  0.00  0.00     0.094 C 
ATOM     38  S   IDY d 142       0.062  11.293  20.594  0.00  0.00     0.252 S 
ATOM     39  O3  IDY d 142       3.595  12.513  17.522  0.00  0.00    -0.390 OA
ATOM     40  O4  IDY d 142       1.048  11.073  16.269  0.00  0.00    -0.348 OA
ATOM     41  C2  IDY d 142       2.146  11.137  19.079  0.00  0.00     0.134 C 
ATOM     42  C6  IDY d 142       2.354   7.902  16.225  0.00  0.00     0.206 C 
ATOM     43  O61 IDY d 142       1.153   7.492  16.387  0.00  0.00    -0.646 OA
ATOM     44  O62 IDY d 142       3.071   7.317  15.276  0.00  0.00    -0.646 OA
ATOM     45  C5  IDY d 142       2.957   8.954  17.137  0.00  0.00     0.152 C 
ATOM     46  OS2 IDY d 142       0.225  12.671  21.097  0.00  0.00    -0.572 OA
ATOM     47  O2  IDY d 142       0.698  11.191  19.183  0.00  0.00    -0.244 OA
ATOM     48  OS1 IDY d 142      -1.378  10.942  20.484  0.00  0.00    -0.572 OA
ATOM     49  O5  IDY d 142       2.500   8.732  18.504  0.00  0.00    -0.340 OA
ATOM     50  O1  IDY d 142       3.969  10.052  20.007  0.00  0.00    -0.363 OA
ATOM     51  C7  IDY d 142       4.502   8.618  19.928  0.00  0.00     0.007 C 
ATOM     52  OS3 IDY d 142       0.733  10.383  21.566  0.00  0.00    -0.572 OA
ATOM     53  C4  IDY d 142       2.563  10.325  16.588  0.00  0.00     0.103 C 
ATOM     54  H   IDY d 142       1.954   9.323  20.265  0.00  0.00     0.133 H 
ATOM     55  H   IDY d 142       1.677  11.453  17.313  0.00  0.00     0.091 H 
ATOM     56  H   IDY d 142       4.463  12.301  17.902  0.00  0.00     0.210 HD
ATOM     57  H   IDY d 142       2.527  11.934  19.682  0.00  0.00     0.097 H 
ATOM     58  H   IDY d 142       4.025   8.896  17.162  0.00  0.00     0.104 H 
ATOM     59  H   IDY d 142       5.524   8.600  20.246  0.00  0.00     0.066 H 
ATOM     60  H   IDY d 142       4.436   8.268  18.919  0.00  0.00     0.066 H 
ATOM     61  H   IDY d 142       3.920   7.985  20.564  0.00  0.00     0.066 H 
ATOM     62  H   IDY d 142       3.108  10.120  15.691  0.00  0.00     0.092 H 
ENDROOT
TORSDOF 19
ENDMDL
MODEL 58
REMARK VINA RESULT:      -5.8      1.614      2.153
REMARK  0 active torsions:
REMARK  status: ('A' for Active; 'I' for Inactive)
REMARK       I    between atoms: O3_1  and  C3_8 
REMARK       I    between atoms: O3_1  and  S3_11 
REMARK       I    between atoms: C1_2  and  O1_36 
REMARK       I    between atoms: C6_3  and  C5_27 
REMARK       I    between atoms: C6_3  and  O6_25 
REMARK       I    between atoms: O3S_4  and  S1_32 
REMARK       I    between atoms: C3_5  and  O3_9 
REMARK       I    between atoms: N_6  and  S1_32 
REMARK       I    between atoms: N_6  and  C2_39 
REMARK       I    between atoms: S_7  and  O2_30 
REMARK       I    between atoms: O4_12  and  C1_29 
REMARK       I    between atoms: O4_12  and  C4_40 
REMARK       I    between atoms: O4_13  and  C4_28 
REMARK       I    between atoms: C2_14  and  O2_30 
REMARK       I    between atoms: C6_15  and  C5_23 
REMARK       I    between atoms: S2_16  and  O6_25 
REMARK       I    between atoms: O1S_22  and  S1_32 
REMARK       I    between atoms: S1_32  and  O2S_33 
REMARK       I    between atoms: O1_36  and  C7_37 
ROOT
ATOM      1  O3  SUS d 141      -1.683   8.621  16.291  0.00  0.00    -0.247 OA
ATOM      2  C6  SUS d 141       2.760   8.767  14.239  0.00  0.00     0.067 C 
ATOM      3  O3S SUS d 141      -4.174  12.698  14.982  0.00  0.00    -0.296 OA
ATOM      4  N   SUS d 141      -2.167  11.305  15.255  0.00  0.00    -0.210 NA
ATOM      5  C3  SUS d 141      -0.659   9.500  15.887  0.00  0.00     0.107 C 
ATOM      6  O6S SUS d 141       4.625   7.875  11.529  0.00  0.00    -0.572 OA
ATOM      7  S3  SUS d 141      -2.596   8.796  17.371  0.00  0.00     0.252 S 
ATOM      8  O4  SUS d 141       1.152   8.086  16.572  0.00  0.00    -0.390 OA
ATOM      9  S2  SUS d 141       3.235   7.705  11.944  0.00  0.00     0.251 S 
ATOM     10  O5  SUS d 141       0.968  10.254  13.673  0.00  0.00    -0.349 OA
ATOM     11  O8S SUS d 141      -2.898  10.088  17.943  0.00  0.00    -0.572 OA
ATOM     12  O4S SUS d 141       3.042   6.505  12.752  0.00  0.00    -0.572 OA
ATOM     13  O1S SUS d 141      -3.240  11.568  13.060  0.00  0.00    -0.296 OA
ATOM     14  O7S SUS d 141      -2.090   7.969  18.436  0.00  0.00    -0.572 OA
ATOM     15  O6  SUS d 141       2.871   8.927  12.843  0.00  0.00    -0.254 OA
ATOM     16  C5  SUS d 141       1.582   9.584  14.751  0.00  0.00     0.090 C 
ATOM     17  C4  SUS d 141       0.558   8.694  15.446  0.00  0.00     0.090 C 
ATOM     18  C1  SUS d 141      -0.022  11.158  14.109  0.00  0.00     0.150 C 
ATOM     19  O9S SUS d 141      -3.807   8.151  16.913  0.00  0.00    -0.572 OA
ATOM     20  S1  SUS d 141      -3.557  11.474  14.481  0.00  0.00     0.156 S 
ATOM     21  O2S SUS d 141      -4.358  10.293  14.794  0.00  0.00    -0.296 OA
ATOM     22  C2  SUS d 141      -1.166  10.384  14.754  0.00  0.00     0.083 C 
ATOM     23  O5S SUS d 141       2.316   7.717  10.810  0.00  0.00    -0.572 OA
ATOM     24  H   SUS d 141       2.603   7.732  14.468  0.00  0.00     0.080 H 
ATOM     25  H   SUS d 141       3.659   9.103  14.710  0.00  0.00     0.080 H 
ATOM     26  H   SUS d 141      -3.615  13.458  14.756  0.00  0.00     0.231 HD
ATOM     27  H   SUS d 141      -2.393  11.007  16.204  0.00  0.00     0.140 HD
ATOM     28  H   SUS d 141      -0.372  10.128  16.705  0.00  0.00     0.092 H 
ATOM     29  H   SUS d 141       0.501   7.519  17.014  0.00  0.00     0.210 HD
ATOM     30  H   SUS d 141      -2.709  12.363  12.898  0.00  0.00     0.231 HD
ATOM     31  H   SUS d 141       1.949  10.296  15.461  0.00  0.00     0.090 H 
ATOM     32  H   SUS d 141       0.235   7.946  14.752  0.00  0.00     0.091 H 
ATOM     33  H   SUS d 141      -0.392  11.712  13.273  0.00  0.00     0.131 H 
ATOM     34  H   SUS d 141      -4.544  10.272  15.746  0.00  0.00     0.231 HD
ATOM     35  H   SUS d 141      -1.606   9.755  14.009  0.00  0.00     0.076 H 
ATOM     36  C1  IDY d 142       0.605  15.298  17.074  0.00  0.00     0.160 C 
ATOM     37  C3  IDY d 142       0.557  14.215  14.919  0.00  0.00     0.094 C 
ATOM     38  S   IDY d 142      -2.362  14.355  17.499  0.00  0.00     0.252 S 
ATOM     39  O3  IDY d 142       0.402  14.851  13.560  0.00  0.00    -0.390 OA
ATOM     40  O4  IDY d 142       0.536  12.044  15.053  0.00  0.00    -0.348 OA
ATOM     41  C2  IDY d 142      -0.313  14.784  15.989  0.00  0.00     0.134 C 
ATOM     42  C6  IDY d 142       3.356  12.694  16.892  0.00  0.00     0.206 C 
ATOM     43  O61 IDY d 142       2.862  11.914  17.777  0.00  0.00    -0.646 OA
ATOM     44  O62 IDY d 142       4.625  12.502  16.556  0.00  0.00    -0.646 OA
ATOM     45  C5  IDY d 142       2.551  13.843  16.315  0.00  0.00     0.152 C 
ATOM     46  OS2 IDY d 142      -3.422  14.931  16.647  0.00  0.00    -0.572 OA
ATOM     47  O2  IDY d 142      -1.220  13.823  16.595  0.00  0.00    -0.244 OA
ATOM     48  OS1 IDY d 142      -2.892  13.221  18.299  0.00  0.00    -0.572 OA
ATOM     49  O5  IDY d 142       1.742  14.446  17.368  0.00  0.00    -0.340 OA
ATOM     50  O1  IDY d 142       0.950  16.646  16.534  0.00  0.00    -0.363 OA
ATOM     51  C7  IDY d 142       2.224  16.858  17.359  0.00  0.00     0.007 C 
ATOM     52  OS3 IDY d 142      -1.885  15.438  18.407  0.00  0.00    -0.572 OA
ATOM     53  C4  IDY d 142       1.716  13.290  15.160  0.00  0.00     0.103 C 
ATOM     54  H   IDY d 142       0.155  15.325  18.044  0.00  0.00     0.133 H 
ATOM     55  H   IDY d 142       0.114  13.248  15.041  0.00  0.00     0.091 H 
ATOM     56  H   IDY d 142       0.837  15.718  13.557  0.00  0.00     0.210 HD
ATOM     57  H   IDY d 142      -0.923  15.539  15.538  0.00  0.00     0.097 H 
ATOM     58  H   IDY d 142       3.179  14.619  15.933  0.00  0.00     0.104 H 
ATOM     59  H   IDY d 142       2.651  17.808  17.116  0.00  0.00     0.066 H 
ATOM     60  H   IDY d 142       2.927  16.083  17.136  0.00  0.00     0.066 H 
ATOM     61  H   IDY d 142       1.983  16.832  18.401  0.00  0.00     0.066 H 
ATOM     62  H   IDY d 142       2.613  13.041  14.634  0.00  0.00     0.092 H 
ENDROOT
TORSDOF 19
ENDMDL
MODEL 59
REMARK VINA RESULT:      -5.8      2.597      4.242
REMARK  0 active torsions:
REMARK  status: ('A' for Active; 'I' for Inactive)
REMARK       I    between atoms: O3_1  and  C3_8 
REMARK       I    between atoms: O3_1  and  S3_11 
REMARK       I    between atoms: C1_2  and  O1_36 
REMARK       I    between atoms: C6_3  and  C5_27 
REMARK       I    between atoms: C6_3  and  O6_25 
REMARK       I    between atoms: O3S_4  and  S1_32 
REMARK       I    between atoms: C3_5  and  O3_9 
REMARK       I    between atoms: N_6  and  S1_32 
REMARK       I    between atoms: N_6  and  C2_39 
REMARK       I    between atoms: S_7  and  O2_30 
REMARK       I    between atoms: O4_12  and  C1_29 
REMARK       I    between atoms: O4_12  and  C4_40 
REMARK       I    between atoms: O4_13  and  C4_28 
REMARK       I    between atoms: C2_14  and  O2_30 
REMARK       I    between atoms: C6_15  and  C5_23 
REMARK       I    between atoms: S2_16  and  O6_25 
REMARK       I    between atoms: O1S_22  and  S1_32 
REMARK       I    between atoms: S1_32  and  O2S_33 
REMARK       I    between atoms: O1_36  and  C7_37 
ROOT
ATOM      1  O3  SUS d 141      -2.429   9.885  16.271  0.00  0.00    -0.247 OA
ATOM      2  C6  SUS d 141       2.124   8.174  15.707  0.00  0.00     0.067 C 
ATOM      3  O3S SUS d 141      -2.193  14.727  17.291  0.00  0.00    -0.296 OA
ATOM      4  N   SUS d 141      -1.286  12.456  17.045  0.00  0.00    -0.210 NA
ATOM      5  C3  SUS d 141      -1.102  10.049  16.716  0.00  0.00     0.107 C 
ATOM      6  O6S SUS d 141       4.624   7.544  13.478  0.00  0.00    -0.572 OA
ATOM      7  S3  SUS d 141      -3.623  10.112  17.014  0.00  0.00     0.252 S 
ATOM      8  O4  SUS d 141      -0.565   7.713  16.731  0.00  0.00    -0.390 OA
ATOM      9  S2  SUS d 141       3.270   8.086  13.405  0.00  0.00     0.251 S 
ATOM     10  O5  SUS d 141       1.568  10.502  15.832  0.00  0.00    -0.349 OA
ATOM     11  O8S SUS d 141      -3.672  10.956  18.185  0.00  0.00    -0.572 OA
ATOM     12  O4S SUS d 141       2.265   7.040  13.237  0.00  0.00    -0.572 OA
ATOM     13  O1S SUS d 141      -0.906  14.166  15.322  0.00  0.00    -0.296 OA
ATOM     14  O7S SUS d 141      -4.078   8.805  17.414  0.00  0.00    -0.572 OA
ATOM     15  O6  SUS d 141       2.980   8.785  14.769  0.00  0.00    -0.254 OA
ATOM     16  C5  SUS d 141       1.249   9.235  16.362  0.00  0.00     0.090 C 
ATOM     17  C4  SUS d 141      -0.229   8.945  16.131  0.00  0.00     0.090 C 
ATOM     18  C1  SUS d 141       0.910  11.541  16.520  0.00  0.00     0.150 C 
ATOM     19  O9S SUS d 141      -4.570  10.571  16.021  0.00  0.00    -0.572 OA
ATOM     20  S1  SUS d 141      -1.911  13.714  16.279  0.00  0.00     0.156 S 
ATOM     21  O2S SUS d 141      -3.129  13.244  15.624  0.00  0.00    -0.296 OA
ATOM     22  C2  SUS d 141      -0.593  11.424  16.299  0.00  0.00     0.083 C 
ATOM     23  O5S SUS d 141       3.137   9.100  12.364  0.00  0.00    -0.572 OA
ATOM     24  H   SUS d 141       1.504   7.457  15.209  0.00  0.00     0.080 H 
ATOM     25  H   SUS d 141       2.708   7.682  16.456  0.00  0.00     0.080 H 
ATOM     26  H   SUS d 141      -1.363  15.014  17.702  0.00  0.00     0.231 HD
ATOM     27  H   SUS d 141      -2.055  11.998  17.536  0.00  0.00     0.140 HD
ATOM     28  H   SUS d 141      -1.063   9.982  17.783  0.00  0.00     0.092 H 
ATOM     29  H   SUS d 141      -1.506   7.528  16.584  0.00  0.00     0.210 HD
ATOM     30  H   SUS d 141      -0.117  14.468  15.799  0.00  0.00     0.231 HD
ATOM     31  H   SUS d 141       1.436   9.222  17.416  0.00  0.00     0.090 H 
ATOM     32  H   SUS d 141      -0.404   8.899  15.076  0.00  0.00     0.091 H 
ATOM     33  H   SUS d 141       1.253  12.486  16.153  0.00  0.00     0.131 H 
ATOM     34  H   SUS d 141      -3.766  12.954  16.296  0.00  0.00     0.231 HD
ATOM     35  H   SUS d 141      -0.788  11.552  15.255  0.00  0.00     0.076 H 
ATOM     36  C1  IDY d 142       1.418  12.839  21.458  0.00  0.00     0.160 C 
ATOM     37  C3  IDY d 142       2.077  12.990  19.142  0.00  0.00     0.094 C 
ATOM     38  S   IDY d 142      -1.453  13.779  20.594  0.00  0.00     0.252 S 
ATOM     39  O3  IDY d 142       2.884  14.074  18.472  0.00  0.00    -0.390 OA
ATOM     40  O4  IDY d 142       1.191  11.441  17.898  0.00  0.00    -0.348 OA
ATOM     41  C2  IDY d 142       1.067  13.469  20.129  0.00  0.00     0.134 C 
ATOM     42  C6  IDY d 142       2.688   9.469  20.270  0.00  0.00     0.206 C 
ATOM     43  O61 IDY d 142       1.565   8.863  20.360  0.00  0.00    -0.646 OA
ATOM     44  O62 IDY d 142       3.775   8.717  20.155  0.00  0.00    -0.646 OA
ATOM     45  C5  IDY d 142       2.780  10.979  20.378  0.00  0.00     0.152 C 
ATOM     46  OS2 IDY d 142      -1.631  15.154  20.088  0.00  0.00    -0.572 OA
ATOM     47  O2  IDY d 142      -0.302  13.096  19.812  0.00  0.00    -0.244 OA
ATOM     48  OS1 IDY d 142      -2.692  12.983  20.393  0.00  0.00    -0.572 OA
ATOM     49  O5  IDY d 142       1.837  11.452  21.386  0.00  0.00    -0.340 OA
ATOM     50  O1  IDY d 142       2.459  13.788  21.952  0.00  0.00    -0.363 OA
ATOM     51  C7  IDY d 142       3.108  12.843  22.968  0.00  0.00     0.007 C 
ATOM     52  OS3 IDY d 142      -1.145  13.878  22.050  0.00  0.00    -0.572 OA
ATOM     53  C4  IDY d 142       2.514  11.561  18.989  0.00  0.00     0.103 C 
ATOM     54  H   IDY d 142       0.584  12.733  22.120  0.00  0.00     0.133 H 
ATOM     55  H   IDY d 142       1.314  12.533  18.548  0.00  0.00     0.091 H 
ATOM     56  H   IDY d 142       3.544  14.418  19.095  0.00  0.00     0.210 HD
ATOM     57  H   IDY d 142       1.101  14.538  20.130  0.00  0.00     0.097 H 
ATOM     58  H   IDY d 142       3.750  11.299  20.696  0.00  0.00     0.104 H 
ATOM     59  H   IDY d 142       3.915  13.347  23.458  0.00  0.00     0.066 H 
ATOM     60  H   IDY d 142       3.482  11.978  22.463  0.00  0.00     0.066 H 
ATOM     61  H   IDY d 142       2.380  12.546  23.694  0.00  0.00     0.066 H 
ATOM     62  H   IDY d 142       3.388  11.067  18.619  0.00  0.00     0.092 H 
ENDROOT
TORSDOF 19
ENDMDL
MODEL 60
REMARK VINA RESULT:      -5.7      2.561      7.413
REMARK  0 active torsions:
REMARK  status: ('A' for Active; 'I' for Inactive)
REMARK       I    between atoms: O3_1  and  C3_8 
REMARK       I    between atoms: O3_1  and  S3_11 
REMARK       I    between atoms: C1_2  and  O1_36 
REMARK       I    between atoms: C6_3  and  C5_27 
REMARK       I    between atoms: C6_3  and  O6_25 
REMARK       I    between atoms: O3S_4  and  S1_32 
REMARK       I    between atoms: C3_5  and  O3_9 
REMARK       I    between atoms: N_6  and  S1_32 
REMARK       I    between atoms: N_6  and  C2_39 
REMARK       I    between atoms: S_7  and  O2_30 
REMARK       I    between atoms: O4_12  and  C1_29 
REMARK       I    between atoms: O4_12  and  C4_40 
REMARK       I    between atoms: O4_13  and  C4_28 
REMARK       I    between atoms: C2_14  and  O2_30 
REMARK       I    between atoms: C6_15  and  C5_23 
REMARK       I    between atoms: S2_16  and  O6_25 
REMARK       I    between atoms: O1S_22  and  S1_32 
REMARK       I    between atoms: S1_32  and  O2S_33 
REMARK       I    between atoms: O1_36  and  C7_37 
ROOT
ATOM      1  O3  SUS d 141      -4.907  12.584  16.730  0.00  0.00    -0.247 OA
ATOM      2  C6  SUS d 141      -2.524  15.898  19.434  0.00  0.00     0.067 C 
ATOM      3  O3S SUS d 141      -2.224   8.421  16.590  0.00  0.00    -0.296 OA
ATOM      4  N   SUS d 141      -2.603  10.814  17.007  0.00  0.00    -0.210 NA
ATOM      5  C3  SUS d 141      -3.618  13.027  17.090  0.00  0.00     0.107 C 
ATOM      6  O6S SUS d 141      -2.116  17.193  22.561  0.00  0.00    -0.572 OA
ATOM      7  S3  SUS d 141      -5.304  11.991  15.497  0.00  0.00     0.252 S 
ATOM      8  O4  SUS d 141      -4.159  15.362  17.083  0.00  0.00    -0.390 OA
ATOM      9  S2  SUS d 141      -2.940  16.147  21.962  0.00  0.00     0.251 S 
ATOM     10  O5  SUS d 141      -1.926  13.581  19.314  0.00  0.00    -0.349 OA
ATOM     11  O8S SUS d 141      -4.372  11.356  14.594  0.00  0.00    -0.572 OA
ATOM     12  O4S SUS d 141      -4.199  16.668  21.437  0.00  0.00    -0.572 OA
ATOM     13  O1S SUS d 141      -2.548   9.197  18.857  0.00  0.00    -0.296 OA
ATOM     14  O7S SUS d 141      -5.957  13.043  14.762  0.00  0.00    -0.572 OA
ATOM     15  O6  SUS d 141      -2.142  15.570  20.751  0.00  0.00    -0.254 OA
ATOM     16  C5  SUS d 141      -2.393  14.668  18.547  0.00  0.00     0.090 C 
ATOM     17  C4  SUS d 141      -3.731  14.305  17.913  0.00  0.00     0.090 C 
ATOM     18  C1  SUS d 141      -1.625  12.462  18.511  0.00  0.00     0.150 C 
ATOM     19  O9S SUS d 141      -6.351  11.067  15.875  0.00  0.00    -0.572 OA
ATOM     20  S1  SUS d 141      -2.966   9.324  17.464  0.00  0.00     0.156 S 
ATOM     21  O2S SUS d 141      -4.410   9.175  17.302  0.00  0.00    -0.296 OA
ATOM     22  C2  SUS d 141      -2.906  11.933  17.876  0.00  0.00     0.083 C 
ATOM     23  O5S SUS d 141      -3.183  15.041  22.882  0.00  0.00    -0.572 OA
ATOM     24  H   SUS d 141      -3.541  16.234  19.431  0.00  0.00     0.080 H 
ATOM     25  H   SUS d 141      -1.890  16.676  19.062  0.00  0.00     0.080 H 
ATOM     26  H   SUS d 141      -1.272   8.549  16.725  0.00  0.00     0.231 HD
ATOM     27  H   SUS d 141      -3.097  10.981  16.129  0.00  0.00     0.140 HD
ATOM     28  H   SUS d 141      -3.046  13.239  16.210  0.00  0.00     0.092 H 
ATOM     29  H   SUS d 141      -5.011  15.132  16.679  0.00  0.00     0.210 HD
ATOM     30  H   SUS d 141      -1.586   9.303  18.917  0.00  0.00     0.231 HD
ATOM     31  H   SUS d 141      -1.697  14.889  17.765  0.00  0.00     0.090 H 
ATOM     32  H   SUS d 141      -4.443  14.142  18.695  0.00  0.00     0.091 H 
ATOM     33  H   SUS d 141      -1.184  11.697  19.116  0.00  0.00     0.131 H 
ATOM     34  H   SUS d 141      -4.642   9.267  16.364  0.00  0.00     0.231 HD
ATOM     35  H   SUS d 141      -3.557  11.605  18.660  0.00  0.00     0.076 H 
ATOM     36  C1  IDY d 142       1.915  12.120  14.814  0.00  0.00     0.160 C 
ATOM     37  C3  IDY d 142       1.228  11.954  17.120  0.00  0.00     0.094 C 
ATOM     38  S   IDY d 142      -0.295  10.000  14.110  0.00  0.00     0.252 S 
ATOM     39  O3  IDY d 142       1.908  11.211  18.243  0.00  0.00    -0.390 OA
ATOM     40  O4  IDY d 142      -0.721  12.841  17.498  0.00  0.00    -0.348 OA
ATOM     41  C2  IDY d 142       1.200  11.238  15.812  0.00  0.00     0.134 C 
ATOM     42  C6  IDY d 142       0.857  15.535  16.080  0.00  0.00     0.206 C 
ATOM     43  O61 IDY d 142      -0.174  15.642  15.330  0.00  0.00    -0.646 OA
ATOM     44  O62 IDY d 142       1.296  16.639  16.667  0.00  0.00    -0.646 OA
ATOM     45  C5  IDY d 142       1.595  14.217  16.221  0.00  0.00     0.152 C 
ATOM     46  OS2 IDY d 142      -0.140   8.618  14.604  0.00  0.00    -0.572 OA
ATOM     47  O2  IDY d 142      -0.135  10.984  15.299  0.00  0.00    -0.244 OA
ATOM     48  OS1 IDY d 142      -1.644  10.197  13.519  0.00  0.00    -0.572 OA
ATOM     49  O5  IDY d 142       1.626  13.536  14.931  0.00  0.00    -0.340 OA
ATOM     50  O1  IDY d 142       3.336  11.743  15.073  0.00  0.00    -0.363 OA
ATOM     51  C7  IDY d 142       3.978  12.990  14.457  0.00  0.00     0.007 C 
ATOM     52  OS3 IDY d 142       0.751  10.221  13.071  0.00  0.00    -0.572 OA
ATOM     53  C4  IDY d 142       0.891  13.406  17.310  0.00  0.00     0.103 C 
ATOM     54  H   IDY d 142       1.607  11.965  13.801  0.00  0.00     0.133 H 
ATOM     55  H   IDY d 142       0.160  11.984  17.153  0.00  0.00     0.091 H 
ATOM     56  H   IDY d 142       2.870  11.245  18.118  0.00  0.00     0.210 HD
ATOM     57  H   IDY d 142       1.659  10.283  15.959  0.00  0.00     0.097 H 
ATOM     58  H   IDY d 142       2.614  14.359  16.514  0.00  0.00     0.104 H 
ATOM     59  H   IDY d 142       5.042  12.923  14.541  0.00  0.00     0.066 H 
ATOM     60  H   IDY d 142       3.634  13.861  14.975  0.00  0.00     0.066 H 
ATOM     61  H   IDY d 142       3.705  13.059  13.425  0.00  0.00     0.066 H 
ATOM     62  H   IDY d 142       1.141  14.158  18.027  0.00  0.00     0.092 H 
ENDROOT
TORSDOF 19
ENDMDL
MODEL 61
REMARK VINA RESULT:      -5.7      2.805      6.606
REMARK  0 active torsions:
REMARK  status: ('A' for Active; 'I' for Inactive)
REMARK       I    between atoms: O3_1  and  C3_8 
REMARK       I    between atoms: O3_1  and  S3_11 
REMARK       I    between atoms: C1_2  and  O1_36 
REMARK       I    between atoms: C6_3  and  C5_27 
REMARK       I    between atoms: C6_3  and  O6_25 
REMARK       I    between atoms: O3S_4  and  S1_32 
REMARK       I    between atoms: C3_5  and  O3_9 
REMARK       I    between atoms: N_6  and  S1_32 
REMARK       I    between atoms: N_6  and  C2_39 
REMARK       I    between atoms: S_7  and  O2_30 
REMARK       I    between atoms: O4_12  and  C1_29 
REMARK       I    between atoms: O4_12  and  C4_40 
REMARK       I    between atoms: O4_13  and  C4_28 
REMARK       I    between atoms: C2_14  and  O2_30 
REMARK       I    between atoms: C6_15  and  C5_23 
REMARK       I    between atoms: S2_16  and  O6_25 
REMARK       I    between atoms: O1S_22  and  S1_32 
REMARK       I    between atoms: S1_32  and  O2S_33 
REMARK       I    between atoms: O1_36  and  C7_37 
ROOT
ATOM      1  O3  SUS d 141      -0.376   9.058  19.238  0.00  0.00    -0.247 OA
ATOM      2  C6  SUS d 141      -1.025  13.449  21.303  0.00  0.00     0.067 C 
ATOM      3  O3S SUS d 141       1.463   9.698  14.683  0.00  0.00    -0.296 OA
ATOM      4  N   SUS d 141       0.371  10.415  16.765  0.00  0.00    -0.210 NA
ATOM      5  C3  SUS d 141      -0.702  10.398  18.952  0.00  0.00     0.107 C 
ATOM      6  O6S SUS d 141       0.384  15.866  23.251  0.00  0.00    -0.572 OA
ATOM      7  S3  SUS d 141      -0.823   7.894  18.548  0.00  0.00     0.252 S 
ATOM      8  O4  SUS d 141      -2.034  10.743  20.916  0.00  0.00    -0.390 OA
ATOM      9  S2  SUS d 141       0.795  14.559  22.744  0.00  0.00     0.251 S 
ATOM     10  O5  SUS d 141       0.187  13.087  19.268  0.00  0.00    -0.349 OA
ATOM     11  O8S SUS d 141      -1.323   7.927  17.194  0.00  0.00    -0.572 OA
ATOM     12  O4S SUS d 141       0.389  13.471  23.628  0.00  0.00    -0.572 OA
ATOM     13  O1S SUS d 141       2.739  10.914  16.339  0.00  0.00    -0.296 OA
ATOM     14  O7S SUS d 141      -1.865   7.339  19.372  0.00  0.00    -0.572 OA
ATOM     15  O6  SUS d 141       0.062  14.343  21.384  0.00  0.00    -0.254 OA
ATOM     16  C5  SUS d 141      -0.947  12.672  19.996  0.00  0.00     0.090 C 
ATOM     17  C4  SUS d 141      -0.863  11.172  20.256  0.00  0.00     0.090 C 
ATOM     18  C1  SUS d 141       0.217  12.523  17.976  0.00  0.00     0.150 C 
ATOM     19  O9S SUS d 141       0.291   6.977  18.653  0.00  0.00    -0.572 OA
ATOM     20  S1  SUS d 141       1.729   9.886  16.106  0.00  0.00     0.156 S 
ATOM     21  O2S SUS d 141       2.056   8.627  16.770  0.00  0.00    -0.296 OA
ATOM     22  C2  SUS d 141       0.390  11.013  18.085  0.00  0.00     0.083 C 
ATOM     23  O5S SUS d 141       2.228  14.498  22.475  0.00  0.00    -0.572 OA
ATOM     24  H   SUS d 141      -0.988  12.767  22.127  0.00  0.00     0.080 H 
ATOM     25  H   SUS d 141      -1.942  14.000  21.336  0.00  0.00     0.080 H 
ATOM     26  H   SUS d 141       1.251  10.554  14.278  0.00  0.00     0.231 HD
ATOM     27  H   SUS d 141      -0.263   9.616  16.813  0.00  0.00     0.140 HD
ATOM     28  H   SUS d 141      -1.627  10.443  18.415  0.00  0.00     0.092 H 
ATOM     29  H   SUS d 141      -1.981   9.789  21.081  0.00  0.00     0.210 HD
ATOM     30  H   SUS d 141       2.482  11.730  15.882  0.00  0.00     0.231 HD
ATOM     31  H   SUS d 141      -1.835  12.868  19.433  0.00  0.00     0.090 H 
ATOM     32  H   SUS d 141      -0.006  10.983  20.869  0.00  0.00     0.091 H 
ATOM     33  H   SUS d 141       1.035  12.938  17.425  0.00  0.00     0.131 H 
ATOM     34  H   SUS d 141       1.360   7.975  16.588  0.00  0.00     0.231 HD
ATOM     35  H   SUS d 141       1.335  10.817  18.548  0.00  0.00     0.076 H 
ATOM     36  C1  IDY d 142      -3.178  13.189  14.187  0.00  0.00     0.160 C 
ATOM     37  C3  IDY d 142      -1.196  13.833  15.402  0.00  0.00     0.094 C 
ATOM     38  S   IDY d 142      -1.834  10.394  13.680  0.00  0.00     0.252 S 
ATOM     39  O3  IDY d 142      -0.066  14.718  14.938  0.00  0.00    -0.390 OA
ATOM     40  O4  IDY d 142      -0.993  12.810  17.311  0.00  0.00    -0.348 OA
ATOM     41  C2  IDY d 142      -1.712  12.875  14.382  0.00  0.00     0.134 C 
ATOM     42  C6  IDY d 142      -4.114  14.167  17.730  0.00  0.00     0.206 C 
ATOM     43  O61 IDY d 142      -4.484  12.999  18.098  0.00  0.00    -0.646 OA
ATOM     44  O62 IDY d 142      -4.475  15.187  18.496  0.00  0.00    -0.646 OA
ATOM     45  C5  IDY d 142      -3.366  14.383  16.428  0.00  0.00     0.152 C 
ATOM     46  OS2 IDY d 142      -0.642  10.324  12.812  0.00  0.00    -0.572 OA
ATOM     47  O2  IDY d 142      -1.606  11.478  14.766  0.00  0.00    -0.244 OA
ATOM     48  OS1 IDY d 142      -2.065   9.093  14.359  0.00  0.00    -0.572 OA
ATOM     49  O5  IDY d 142      -3.905  13.493  15.405  0.00  0.00    -0.340 OA
ATOM     50  O1  IDY d 142      -3.098  14.309  13.204  0.00  0.00    -0.363 OA
ATOM     51  C7  IDY d 142      -4.491  14.890  13.466  0.00  0.00     0.007 C 
ATOM     52  OS3 IDY d 142      -2.999  10.725  12.809  0.00  0.00    -0.572 OA
ATOM     53  C4  IDY d 142      -1.880  14.150  16.701  0.00  0.00     0.103 C 
ATOM     54  H   IDY d 142      -3.756  12.356  13.845  0.00  0.00     0.133 H 
ATOM     55  H   IDY d 142      -0.929  13.028  16.055  0.00  0.00     0.091 H 
ATOM     56  H   IDY d 142      -0.415  15.410  14.356  0.00  0.00     0.210 HD
ATOM     57  H   IDY d 142      -1.119  12.997  13.499  0.00  0.00     0.097 H 
ATOM     58  H   IDY d 142      -3.487  15.379  16.057  0.00  0.00     0.104 H 
ATOM     59  H   IDY d 142      -4.647  15.740  12.837  0.00  0.00     0.066 H 
ATOM     60  H   IDY d 142      -4.567  15.186  14.492  0.00  0.00     0.066 H 
ATOM     61  H   IDY d 142      -5.232  14.148  13.254  0.00  0.00     0.066 H 
ATOM     62  H   IDY d 142      -1.879  14.976  17.381  0.00  0.00     0.092 H 
ENDROOT
TORSDOF 19
ENDMDL
MODEL 62
REMARK VINA RESULT:      -5.7      2.850      8.085
REMARK  0 active torsions:
REMARK  status: ('A' for Active; 'I' for Inactive)
REMARK       I    between atoms: O3_1  and  C3_8 
REMARK       I    between atoms: O3_1  and  S3_11 
REMARK       I    between atoms: C1_2  and  O1_36 
REMARK       I    between atoms: C6_3  and  C5_27 
REMARK       I    between atoms: C6_3  and  O6_25 
REMARK       I    between atoms: O3S_4  and  S1_32 
REMARK       I    between atoms: C3_5  and  O3_9 
REMARK       I    between atoms: N_6  and  S1_32 
REMARK       I    between atoms: N_6  and  C2_39 
REMARK       I    between atoms: S_7  and  O2_30 
REMARK       I    between atoms: O4_12  and  C1_29 
REMARK       I    between atoms: O4_12  and  C4_40 
REMARK       I    between atoms: O4_13  and  C4_28 
REMARK       I    between atoms: C2_14  and  O2_30 
REMARK       I    between atoms: C6_15  and  C5_23 
REMARK       I    between atoms: S2_16  and  O6_25 
REMARK       I    between atoms: O1S_22  and  S1_32 
REMARK       I    between atoms: S1_32  and  O2S_33 
REMARK       I    between atoms: O1_36  and  C7_37 
ROOT
ATOM      1  O3  SUS d 141      -2.884  15.170  15.824  0.00  0.00    -0.247 OA
ATOM      2  C6  SUS d 141      -2.100  15.163  20.656  0.00  0.00     0.067 C 
ATOM      3  O3S SUS d 141      -4.284  10.626  14.433  0.00  0.00    -0.296 OA
ATOM      4  N   SUS d 141      -3.322  12.289  15.967  0.00  0.00    -0.210 NA
ATOM      5  C3  SUS d 141      -2.441  14.364  16.890  0.00  0.00     0.107 C 
ATOM      6  O6S SUS d 141      -3.492  15.695  23.722  0.00  0.00    -0.572 OA
ATOM      7  S3  SUS d 141      -2.465  15.111  14.463  0.00  0.00     0.252 S 
ATOM      8  O4  SUS d 141      -1.258  16.108  18.032  0.00  0.00    -0.390 OA
ATOM      9  S2  SUS d 141      -3.951  15.770  22.338  0.00  0.00     0.251 S 
ATOM     10  O5  SUS d 141      -3.159  13.375  19.464  0.00  0.00    -0.349 OA
ATOM     11  O8S SUS d 141      -1.852  13.940  13.880  0.00  0.00    -0.572 OA
ATOM     12  O4S SUS d 141      -3.699  17.079  21.742  0.00  0.00    -0.572 OA
ATOM     13  O1S SUS d 141      -5.604  11.437  16.290  0.00  0.00    -0.296 OA
ATOM     14  O7S SUS d 141      -1.538  16.201  14.302  0.00  0.00    -0.572 OA
ATOM     15  O6  SUS d 141      -3.123  14.728  21.522  0.00  0.00    -0.254 OA
ATOM     16  C5  SUS d 141      -2.123  14.328  19.383  0.00  0.00     0.090 C 
ATOM     17  C4  SUS d 141      -2.336  15.207  18.156  0.00  0.00     0.090 C 
ATOM     18  C1  SUS d 141      -3.121  12.464  18.388  0.00  0.00     0.150 C 
ATOM     19  O9S SUS d 141      -3.647  15.486  13.717  0.00  0.00    -0.572 OA
ATOM     20  S1  SUS d 141      -4.654  11.786  15.238  0.00  0.00     0.156 S 
ATOM     21  O2S SUS d 141      -5.125  12.894  14.411  0.00  0.00    -0.296 OA
ATOM     22  C2  SUS d 141      -3.410  13.204  17.087  0.00  0.00     0.083 C 
ATOM     23  O5S SUS d 141      -5.357  15.404  22.202  0.00  0.00    -0.572 OA
ATOM     24  H   SUS d 141      -2.254  16.193  20.410  0.00  0.00     0.080 H 
ATOM     25  H   SUS d 141      -1.152  15.050  21.140  0.00  0.00     0.080 H 
ATOM     26  H   SUS d 141      -3.978   9.913  15.015  0.00  0.00     0.231 HD
ATOM     27  H   SUS d 141      -2.753  12.748  15.255  0.00  0.00     0.140 HD
ATOM     28  H   SUS d 141      -1.473  13.963  16.668  0.00  0.00     0.092 H 
ATOM     29  H   SUS d 141      -1.392  16.668  17.251  0.00  0.00     0.210 HD
ATOM     30  H   SUS d 141      -5.252  10.699  16.812  0.00  0.00     0.231 HD
ATOM     31  H   SUS d 141      -1.179  13.834  19.287  0.00  0.00     0.090 H 
ATOM     32  H   SUS d 141      -3.252  15.746  18.280  0.00  0.00     0.091 H 
ATOM     33  H   SUS d 141      -3.858  11.704  18.538  0.00  0.00     0.131 H 
ATOM     34  H   SUS d 141      -4.464  13.092  13.728  0.00  0.00     0.231 HD
ATOM     35  H   SUS d 141      -4.402  13.601  17.142  0.00  0.00     0.076 H 
ATOM     36  C1  IDY d 142       0.619   9.153  17.218  0.00  0.00     0.160 C 
ATOM     37  C3  IDY d 142      -1.407   9.744  18.386  0.00  0.00     0.094 C 
ATOM     38  S   IDY d 142      -0.873   9.778  14.525  0.00  0.00     0.252 S 
ATOM     39  O3  IDY d 142      -2.428   8.823  19.005  0.00  0.00    -0.390 OA
ATOM     40  O4  IDY d 142      -1.842  11.874  18.318  0.00  0.00    -0.348 OA
ATOM     41  C2  IDY d 142      -0.877   9.307  17.063  0.00  0.00     0.134 C 
ATOM     42  C6  IDY d 142       1.321  11.988  19.637  0.00  0.00     0.206 C 
ATOM     43  O61 IDY d 142       1.575  12.867  18.743  0.00  0.00    -0.646 OA
ATOM     44  O62 IDY d 142       1.689  12.265  20.880  0.00  0.00    -0.646 OA
ATOM     45  C5  IDY d 142       0.703  10.652  19.274  0.00  0.00     0.152 C 
ATOM     46  OS2 IDY d 142      -1.990   8.906  14.110  0.00  0.00    -0.572 OA
ATOM     47  O2  IDY d 142      -1.113  10.250  15.983  0.00  0.00    -0.244 OA
ATOM     48  OS1 IDY d 142      -0.793  10.978  13.652  0.00  0.00    -0.572 OA
ATOM     49  O5  IDY d 142       1.261  10.185  18.010  0.00  0.00    -0.340 OA
ATOM     50  O1  IDY d 142       0.702   7.776  17.790  0.00  0.00    -0.363 OA
ATOM     51  C7  IDY d 142       2.106   7.905  18.389  0.00  0.00     0.007 C 
ATOM     52  OS3 IDY d 142       0.381   8.980  14.405  0.00  0.00    -0.572 OA
ATOM     53  C4  IDY d 142      -0.814  10.839  19.227  0.00  0.00     0.103 C 
ATOM     54  H   IDY d 142       1.163   9.273  16.305  0.00  0.00     0.133 H 
ATOM     55  H   IDY d 142      -1.785  10.650  17.961  0.00  0.00     0.091 H 
ATOM     56  H   IDY d 142      -1.983   8.036  19.359  0.00  0.00     0.210 HD
ATOM     57  H   IDY d 142      -1.383   8.403  16.797  0.00  0.00     0.097 H 
ATOM     58  H   IDY d 142       0.925   9.898  20.000  0.00  0.00     0.104 H 
ATOM     59  H   IDY d 142       2.374   6.988  18.869  0.00  0.00     0.066 H 
ATOM     60  H   IDY d 142       2.116   8.700  19.106  0.00  0.00     0.066 H 
ATOM     61  H   IDY d 142       2.808   8.120  17.611  0.00  0.00     0.066 H 
ATOM     62  H   IDY d 142      -0.813  11.084  20.268  0.00  0.00     0.092 H 
ENDROOT
TORSDOF 19
ENDMDL
MODEL 63
REMARK VINA RESULT:      -5.7      2.568      4.824
REMARK  0 active torsions:
REMARK  status: ('A' for Active; 'I' for Inactive)
REMARK       I    between atoms: O3_1  and  C3_8 
REMARK       I    between atoms: O3_1  and  S3_11 
REMARK       I    between atoms: C1_2  and  O1_36 
REMARK       I    between atoms: C6_3  and  C5_27 
REMARK       I    between atoms: C6_3  and  O6_25 
REMARK       I    between atoms: O3S_4  and  S1_32 
REMARK       I    between atoms: C3_5  and  O3_9 
REMARK       I    between atoms: N_6  and  S1_32 
REMARK       I    between atoms: N_6  and  C2_39 
REMARK       I    between atoms: S_7  and  O2_30 
REMARK       I    between atoms: O4_12  and  C1_29 
REMARK       I    between atoms: O4_12  and  C4_40 
REMARK       I    between atoms: O4_13  and  C4_28 
REMARK       I    between atoms: C2_14  and  O2_30 
REMARK       I    between atoms: C6_15  and  C5_23 
REMARK       I    between atoms: S2_16  and  O6_25 
REMARK       I    between atoms: O1S_22  and  S1_32 
REMARK       I    between atoms: S1_32  and  O2S_33 
REMARK       I    between atoms: O1_36  and  C7_37 
ROOT
ATOM      1  O3  SUS d 141      -0.033   9.822  15.031  0.00  0.00    -0.247 OA
ATOM      2  C6  SUS d 141      -1.675  13.896  12.869  0.00  0.00     0.067 C 
ATOM      3  O3S SUS d 141      -2.490   9.177  19.284  0.00  0.00    -0.296 OA
ATOM      4  N   SUS d 141      -1.721  10.449  17.326  0.00  0.00    -0.210 NA
ATOM      5  C3  SUS d 141      -0.548  11.106  15.295  0.00  0.00     0.107 C 
ATOM      6  O6S SUS d 141      -3.923  15.181  10.652  0.00  0.00    -0.572 OA
ATOM      7  S3  SUS d 141       0.892   9.082  15.823  0.00  0.00     0.252 S 
ATOM      8  O4  SUS d 141       0.608  12.200  13.502  0.00  0.00    -0.390 OA
ATOM      9  S2  SUS d 141      -3.599  13.851  11.161  0.00  0.00     0.251 S 
ATOM     10  O5  SUS d 141      -2.732  12.853  14.749  0.00  0.00    -0.349 OA
ATOM     11  O8S SUS d 141       1.108   9.343  17.227  0.00  0.00    -0.572 OA
ATOM     12  O4S SUS d 141      -2.546  13.204  10.385  0.00  0.00    -0.572 OA
ATOM     13  O1S SUS d 141      -3.998   9.530  17.427  0.00  0.00    -0.296 OA
ATOM     14  O7S SUS d 141       2.163   9.230  15.163  0.00  0.00    -0.572 OA
ATOM     15  O6  SUS d 141      -3.054  14.034  12.611  0.00  0.00    -0.254 OA
ATOM     16  C5  SUS d 141      -1.476  13.164  14.189  0.00  0.00     0.090 C 
ATOM     17  C4  SUS d 141      -0.677  11.881  13.988  0.00  0.00     0.090 C 
ATOM     18  C1  SUS d 141      -2.611  12.325  16.051  0.00  0.00     0.150 C 
ATOM     19  O9S SUS d 141       0.501   7.704  15.620  0.00  0.00    -0.572 OA
ATOM     20  S1  SUS d 141      -2.628   9.232  17.831  0.00  0.00     0.156 S 
ATOM     21  O2S SUS d 141      -2.109   8.027  17.189  0.00  0.00    -0.296 OA
ATOM     22  C2  SUS d 141      -1.899  10.979  15.989  0.00  0.00     0.083 C 
ATOM     23  O5S SUS d 141      -4.776  12.993  11.249  0.00  0.00    -0.572 OA
ATOM     24  H   SUS d 141      -1.219  13.337  12.078  0.00  0.00     0.080 H 
ATOM     25  H   SUS d 141      -1.225  14.865  12.927  0.00  0.00     0.080 H 
ATOM     26  H   SUS d 141      -2.844   9.992  19.673  0.00  0.00     0.231 HD
ATOM     27  H   SUS d 141      -0.751  10.142  17.394  0.00  0.00     0.140 HD
ATOM     28  H   SUS d 141       0.116  11.641  15.941  0.00  0.00     0.092 H 
ATOM     29  H   SUS d 141       1.117  11.384  13.374  0.00  0.00     0.210 HD
ATOM     30  H   SUS d 141      -4.300  10.335  17.875  0.00  0.00     0.231 HD
ATOM     31  H   SUS d 141      -0.930  13.803  14.850  0.00  0.00     0.090 H 
ATOM     32  H   SUS d 141      -1.196  11.267  13.281  0.00  0.00     0.091 H 
ATOM     33  H   SUS d 141      -3.585  12.195  16.475  0.00  0.00     0.131 H 
ATOM     34  H   SUS d 141      -1.199   7.868  17.486  0.00  0.00     0.231 HD
ATOM     35  H   SUS d 141      -2.506  10.305  15.420  0.00  0.00     0.076 H 
ATOM     36  C1  IDY d 142      -0.687  14.642  20.204  0.00  0.00     0.160 C 
ATOM     37  C3  IDY d 142      -2.514  14.113  18.721  0.00  0.00     0.094 C 
ATOM     38  S   IDY d 142      -0.301  11.558  20.662  0.00  0.00     0.252 S 
ATOM     39  O3  IDY d 142      -3.994  14.202  18.998  0.00  0.00    -0.390 OA
ATOM     40  O4  IDY d 142      -1.864  13.214  16.849  0.00  0.00    -0.348 OA
ATOM     41  C2  IDY d 142      -1.691  13.572  19.840  0.00  0.00     0.134 C 
ATOM     42  C6  IDY d 142      -0.003  16.094  16.767  0.00  0.00     0.206 C 
ATOM     43  O61 IDY d 142       0.998  15.343  16.501  0.00  0.00    -0.646 OA
ATOM     44  O62 IDY d 142      -0.175  17.167  16.008  0.00  0.00    -0.646 OA
ATOM     45  C5  IDY d 142      -0.906  15.813  17.954  0.00  0.00     0.152 C 
ATOM     46  OS2 IDY d 142      -1.353  10.807  21.375  0.00  0.00    -0.572 OA
ATOM     47  O2  IDY d 142      -0.950  12.367  19.509  0.00  0.00    -0.244 OA
ATOM     48  OS1 IDY d 142       0.700  10.630  20.077  0.00  0.00    -0.572 OA
ATOM     49  O5  IDY d 142      -0.101  15.341  19.075  0.00  0.00    -0.340 OA
ATOM     50  O1  IDY d 142      -1.504  15.495  21.118  0.00  0.00    -0.363 OA
ATOM     51  C7  IDY d 142      -0.649  16.761  21.008  0.00  0.00     0.007 C 
ATOM     52  OS3 IDY d 142       0.357  12.453  21.657  0.00  0.00    -0.572 OA
ATOM     53  C4  IDY d 142      -1.961  14.801  17.505  0.00  0.00     0.103 C 
ATOM     54  H   IDY d 142       0.206  14.262  20.653  0.00  0.00     0.133 H 
ATOM     55  H   IDY d 142      -2.202  13.318  18.076  0.00  0.00     0.091 H 
ATOM     56  H   IDY d 142      -4.169  14.952  19.588  0.00  0.00     0.210 HD
ATOM     57  H   IDY d 142      -2.359  13.313  20.634  0.00  0.00     0.097 H 
ATOM     58  H   IDY d 142      -1.409  16.694  18.291  0.00  0.00     0.104 H 
ATOM     59  H   IDY d 142      -1.076  17.533  21.613  0.00  0.00     0.066 H 
ATOM     60  H   IDY d 142      -0.619  17.084  19.988  0.00  0.00     0.066 H 
ATOM     61  H   IDY d 142       0.344  16.552  21.344  0.00  0.00     0.066 H 
ATOM     62  H   IDY d 142      -2.333  15.508  16.795  0.00  0.00     0.092 H 
ENDROOT
TORSDOF 19
ENDMDL
MODEL 64
REMARK VINA RESULT:      -5.7      3.271      7.518
REMARK  0 active torsions:
REMARK  status: ('A' for Active; 'I' for Inactive)
REMARK       I    between atoms: O3_1  and  C3_8 
REMARK       I    between atoms: O3_1  and  S3_11 
REMARK       I    between atoms: C1_2  and  O1_36 
REMARK       I    between atoms: C6_3  and  C5_27 
REMARK       I    between atoms: C6_3  and  O6_25 
REMARK       I    between atoms: O3S_4  and  S1_32 
REMARK       I    between atoms: C3_5  and  O3_9 
REMARK       I    between atoms: N_6  and  S1_32 
REMARK       I    between atoms: N_6  and  C2_39 
REMARK       I    between atoms: S_7  and  O2_30 
REMARK       I    between atoms: O4_12  and  C1_29 
REMARK       I    between atoms: O4_12  and  C4_40 
REMARK       I    between atoms: O4_13  and  C4_28 
REMARK       I    between atoms: C2_14  and  O2_30 
REMARK       I    between atoms: C6_15  and  C5_23 
REMARK       I    between atoms: S2_16  and  O6_25 
REMARK       I    between atoms: O1S_22  and  S1_32 
REMARK       I    between atoms: S1_32  and  O2S_33 
REMARK       I    between atoms: O1_36  and  C7_37 
ROOT
ATOM      1  O3  SUS d 141      -1.253  15.565  15.657  0.00  0.00    -0.247 OA
ATOM      2  C6  SUS d 141       2.057  15.146  19.241  0.00  0.00     0.067 C 
ATOM      3  O3S SUS d 141      -5.352  13.120  16.984  0.00  0.00    -0.296 OA
ATOM      4  N   SUS d 141      -2.977  13.736  17.138  0.00  0.00    -0.210 NA
ATOM      5  C3  SUS d 141      -0.789  14.696  16.664  0.00  0.00     0.107 C 
ATOM      6  O6S SUS d 141       3.296  16.550  22.089  0.00  0.00    -0.572 OA
ATOM      7  S3  SUS d 141      -1.828  15.206  14.404  0.00  0.00     0.252 S 
ATOM      8  O4  SUS d 141       1.534  15.213  16.375  0.00  0.00    -0.390 OA
ATOM      9  S2  SUS d 141       2.245  16.882  21.131  0.00  0.00     0.251 S 
ATOM     10  O5  SUS d 141      -0.244  14.511  19.455  0.00  0.00    -0.349 OA
ATOM     11  O8S SUS d 141      -2.425  13.914  14.154  0.00  0.00    -0.572 OA
ATOM     12  O4S SUS d 141       2.748  17.665  20.006  0.00  0.00    -0.572 OA
ATOM     13  O1S SUS d 141      -4.630  14.653  18.709  0.00  0.00    -0.296 OA
ATOM     14  O7S SUS d 141      -0.776  15.382  13.436  0.00  0.00    -0.572 OA
ATOM     15  O6  SUS d 141       1.710  15.536  20.550  0.00  0.00    -0.254 OA
ATOM     16  C5  SUS d 141       0.848  14.515  18.563  0.00  0.00     0.090 C 
ATOM     17  C4  SUS d 141       0.469  15.278  17.298  0.00  0.00     0.090 C 
ATOM     18  C1  SUS d 141      -1.340  13.788  18.941  0.00  0.00     0.150 C 
ATOM     19  O9S SUS d 141      -2.783  16.262  14.143  0.00  0.00    -0.572 OA
ATOM     20  S1  SUS d 141      -4.483  14.246  17.315  0.00  0.00     0.156 S 
ATOM     21  O2S SUS d 141      -4.661  15.361  16.389  0.00  0.00    -0.296 OA
ATOM     22  C2  SUS d 141      -1.883  14.497  17.707  0.00  0.00     0.083 C 
ATOM     23  O5S SUS d 141       1.115  17.556  21.763  0.00  0.00    -0.572 OA
ATOM     24  H   SUS d 141       2.370  16.005  18.684  0.00  0.00     0.080 H 
ATOM     25  H   SUS d 141       2.855  14.435  19.280  0.00  0.00     0.080 H 
ATOM     26  H   SUS d 141      -5.206  12.402  17.618  0.00  0.00     0.231 HD
ATOM     27  H   SUS d 141      -2.803  13.675  16.135  0.00  0.00     0.140 HD
ATOM     28  H   SUS d 141      -0.546  13.743  16.242  0.00  0.00     0.092 H 
ATOM     29  H   SUS d 141       1.293  15.699  15.570  0.00  0.00     0.210 HD
ATOM     30  H   SUS d 141      -4.504  13.884  19.286  0.00  0.00     0.231 HD
ATOM     31  H   SUS d 141       1.100  13.511  18.290  0.00  0.00     0.090 H 
ATOM     32  H   SUS d 141       0.274  16.296  17.564  0.00  0.00     0.091 H 
ATOM     33  H   SUS d 141      -2.107  13.727  19.685  0.00  0.00     0.131 H 
ATOM     34  H   SUS d 141      -4.555  15.046  15.478  0.00  0.00     0.231 HD
ATOM     35  H   SUS d 141      -2.241  15.461  18.005  0.00  0.00     0.076 H 
ATOM     36  C1  IDY d 142      -1.529   8.794  17.780  0.00  0.00     0.160 C 
ATOM     37  C3  IDY d 142      -1.757  10.624  19.334  0.00  0.00     0.094 C 
ATOM     38  S   IDY d 142      -3.681  10.198  15.971  0.00  0.00     0.252 S 
ATOM     39  O3  IDY d 142      -2.508  10.647  20.643  0.00  0.00    -0.390 OA
ATOM     40  O4  IDY d 142      -0.920  12.489  18.589  0.00  0.00    -0.348 OA
ATOM     41  C2  IDY d 142      -2.446   9.912  18.220  0.00  0.00     0.134 C 
ATOM     42  C6  IDY d 142       1.835  10.472  18.279  0.00  0.00     0.206 C 
ATOM     43  O61 IDY d 142       1.936  10.928  17.088  0.00  0.00    -0.646 OA
ATOM     44  O62 IDY d 142       2.937  10.458  19.017  0.00  0.00    -0.646 OA
ATOM     45  C5  IDY d 142       0.532   9.893  18.794  0.00  0.00     0.152 C 
ATOM     46  OS2 IDY d 142      -5.069  10.297  16.462  0.00  0.00    -0.572 OA
ATOM     47  O2  IDY d 142      -2.719  10.742  17.059  0.00  0.00    -0.244 OA
ATOM     48  OS1 IDY d 142      -3.502  11.009  14.739  0.00  0.00    -0.572 OA
ATOM     49  O5  IDY d 142      -0.122   9.142  17.727  0.00  0.00    -0.340 OA
ATOM     50  O1  IDY d 142      -1.880   7.736  18.772  0.00  0.00    -0.363 OA
ATOM     51  C7  IDY d 142      -0.607   6.899  18.613  0.00  0.00     0.007 C 
ATOM     52  OS3 IDY d 142      -3.417   8.760  15.674  0.00  0.00    -0.572 OA
ATOM     53  C4  IDY d 142      -0.317  11.053  19.316  0.00  0.00     0.103 C 
ATOM     54  H   IDY d 142      -1.670   8.494  16.762  0.00  0.00     0.133 H 
ATOM     55  H   IDY d 142      -1.751  11.538  18.778  0.00  0.00     0.091 H 
ATOM     56  H   IDY d 142      -2.450   9.775  21.064  0.00  0.00     0.210 HD
ATOM     57  H   IDY d 142      -3.394   9.580  18.589  0.00  0.00     0.097 H 
ATOM     58  H   IDY d 142       0.689   9.204  19.597  0.00  0.00     0.104 H 
ATOM     59  H   IDY d 142      -0.653   6.052  19.265  0.00  0.00     0.066 H 
ATOM     60  H   IDY d 142       0.246   7.495  18.864  0.00  0.00     0.066 H 
ATOM     61  H   IDY d 142      -0.523   6.565  17.601  0.00  0.00     0.066 H 
ATOM     62  H   IDY d 142       0.426  11.258  20.058  0.00  0.00     0.092 H 
ENDROOT
TORSDOF 19
ENDMDL
MODEL 65
REMARK VINA RESULT:      -5.7      2.858      5.799
REMARK  0 active torsions:
REMARK  status: ('A' for Active; 'I' for Inactive)
REMARK       I    between atoms: O3_1  and  C3_8 
REMARK       I    between atoms: O3_1  and  S3_11 
REMARK       I    between atoms: C1_2  and  O1_36 
REMARK       I    between atoms: C6_3  and  C5_27 
REMARK       I    between atoms: C6_3  and  O6_25 
REMARK       I    between atoms: O3S_4  and  S1_32 
REMARK       I    between atoms: C3_5  and  O3_9 
REMARK       I    between atoms: N_6  and  S1_32 
REMARK       I    between atoms: N_6  and  C2_39 
REMARK       I    between atoms: S_7  and  O2_30 
REMARK       I    between atoms: O4_12  and  C1_29 
REMARK       I    between atoms: O4_12  and  C4_40 
REMARK       I    between atoms: O4_13  and  C4_28 
REMARK       I    between atoms: C2_14  and  O2_30 
REMARK       I    between atoms: C6_15  and  C5_23 
REMARK       I    between atoms: S2_16  and  O6_25 
REMARK       I    between atoms: O1S_22  and  S1_32 
REMARK       I    between atoms: S1_32  and  O2S_33 
REMARK       I    between atoms: O1_36  and  C7_37 
ROOT
ATOM      1  O3  SUS d 141      -4.351  13.206  15.341  0.00  0.00    -0.247 OA
ATOM      2  C6  SUS d 141      -1.365  10.602  12.464  0.00  0.00     0.067 C 
ATOM      3  O3S SUS d 141      -1.603  15.928  18.436  0.00  0.00    -0.296 OA
ATOM      4  N   SUS d 141      -2.007  14.125  16.814  0.00  0.00    -0.210 NA
ATOM      5  C3  SUS d 141      -3.104  12.552  15.313  0.00  0.00     0.107 C 
ATOM      6  O6S SUS d 141       0.316  10.536   9.500  0.00  0.00    -0.572 OA
ATOM      7  S3  SUS d 141      -5.213  13.378  16.463  0.00  0.00     0.252 S 
ATOM      8  O4  SUS d 141      -3.842  10.689  13.997  0.00  0.00    -0.390 OA
ATOM      9  S2  SUS d 141      -0.570  11.477  10.179  0.00  0.00     0.251 S 
ATOM     10  O5  SUS d 141      -0.639  12.383  13.893  0.00  0.00    -0.349 OA
ATOM     11  O8S SUS d 141      -4.749  13.294  17.828  0.00  0.00    -0.572 OA
ATOM     12  O4S SUS d 141      -1.977  11.221   9.885  0.00  0.00    -0.572 OA
ATOM     13  O1S SUS d 141      -0.909  16.217  16.138  0.00  0.00    -0.296 OA
ATOM     14  O7S SUS d 141      -6.247  12.389  16.304  0.00  0.00    -0.572 OA
ATOM     15  O6  SUS d 141      -0.376  11.267  11.713  0.00  0.00    -0.254 OA
ATOM     16  C5  SUS d 141      -1.530  11.293  13.811  0.00  0.00     0.090 C 
ATOM     17  C4  SUS d 141      -2.959  11.789  14.001  0.00  0.00     0.090 C 
ATOM     18  C1  SUS d 141      -0.628  12.956  15.181  0.00  0.00     0.150 C 
ATOM     19  O9S SUS d 141      -5.848  14.655  16.223  0.00  0.00    -0.572 OA
ATOM     20  S1  SUS d 141      -1.943  15.709  17.033  0.00  0.00     0.156 S 
ATOM     21  O2S SUS d 141      -3.267  16.232  16.706  0.00  0.00    -0.296 OA
ATOM     22  C2  SUS d 141      -1.988  13.578  15.473  0.00  0.00     0.083 C 
ATOM     23  O5S SUS d 141      -0.227  12.866   9.888  0.00  0.00    -0.572 OA
ATOM     24  H   SUS d 141      -2.295  10.629  11.933  0.00  0.00     0.080 H 
ATOM     25  H   SUS d 141      -1.072   9.585  12.619  0.00  0.00     0.080 H 
ATOM     26  H   SUS d 141      -0.720  15.568  18.615  0.00  0.00     0.231 HD
ATOM     27  H   SUS d 141      -2.870  13.802  17.252  0.00  0.00     0.140 HD
ATOM     28  H   SUS d 141      -3.040  11.852  16.121  0.00  0.00     0.092 H 
ATOM     29  H   SUS d 141      -4.751  11.003  14.118  0.00  0.00     0.210 HD
ATOM     30  H   SUS d 141      -0.050  15.845  16.391  0.00  0.00     0.231 HD
ATOM     31  H   SUS d 141      -1.312  10.584  14.583  0.00  0.00     0.090 H 
ATOM     32  H   SUS d 141      -3.196  12.453  13.196  0.00  0.00     0.091 H 
ATOM     33  H   SUS d 141       0.128  13.712  15.228  0.00  0.00     0.131 H 
ATOM     34  H   SUS d 141      -3.921  15.868  17.324  0.00  0.00     0.231 HD
ATOM     35  H   SUS d 141      -2.154  14.366  14.767  0.00  0.00     0.076 H 
ATOM     36  C1  IDY d 142       0.775  10.733  19.587  0.00  0.00     0.160 C 
ATOM     37  C3  IDY d 142       1.275  11.970  17.578  0.00  0.00     0.094 C 
ATOM     38  S   IDY d 142      -1.255  13.005  20.358  0.00  0.00     0.252 S 
ATOM     39  O3  IDY d 142       2.481  12.829  17.289  0.00  0.00    -0.390 OA
ATOM     40  O4  IDY d 142      -0.355  11.957  16.137  0.00  0.00    -0.348 OA
ATOM     41  C2  IDY d 142       0.715  12.104  18.954  0.00  0.00     0.134 C 
ATOM     42  C6  IDY d 142       0.061   8.578  16.549  0.00  0.00     0.206 C 
ATOM     43  O61 IDY d 142      -1.206   8.524  16.718  0.00  0.00    -0.646 OA
ATOM     44  O62 IDY d 142       0.598   7.702  15.711  0.00  0.00    -0.646 OA
ATOM     45  C5  IDY d 142       0.920   9.545  17.340  0.00  0.00     0.152 C 
ATOM     46  OS2 IDY d 142      -0.732  14.345  20.686  0.00  0.00    -0.572 OA
ATOM     47  O2  IDY d 142      -0.667  12.551  18.997  0.00  0.00    -0.244 OA
ATOM     48  OS1 IDY d 142      -2.736  13.034  20.241  0.00  0.00    -0.572 OA
ATOM     49  O5  IDY d 142       0.418   9.637  18.707  0.00  0.00    -0.340 OA
ATOM     50  O1  IDY d 142       2.183  10.712  20.082  0.00  0.00    -0.363 OA
ATOM     51  C7  IDY d 142       2.316   9.191  20.207  0.00  0.00     0.007 C 
ATOM     52  OS3 IDY d 142      -0.851  12.088  21.463  0.00  0.00    -0.572 OA
ATOM     53  C4  IDY d 142       0.906  10.886  16.606  0.00  0.00     0.103 C 
ATOM     54  H   IDY d 142       0.046  10.580  20.356  0.00  0.00     0.133 H 
ATOM     55  H   IDY d 142       0.351  12.293  17.146  0.00  0.00     0.091 H 
ATOM     56  H   IDY d 142       3.261  12.449  17.725  0.00  0.00     0.210 HD
ATOM     57  H   IDY d 142       1.293  12.846  19.465  0.00  0.00     0.097 H 
ATOM     58  H   IDY d 142       1.934   9.212  17.412  0.00  0.00     0.104 H 
ATOM     59  H   IDY d 142       3.295   8.947  20.563  0.00  0.00     0.066 H 
ATOM     60  H   IDY d 142       2.161   8.739  19.250  0.00  0.00     0.066 H 
ATOM     61  H   IDY d 142       1.584   8.825  20.897  0.00  0.00     0.066 H 
ATOM     62  H   IDY d 142       1.378  10.426  15.764  0.00  0.00     0.092 H 
ENDROOT
TORSDOF 19
ENDMDL
MODEL 66
REMARK VINA RESULT:      -5.7      2.863      5.606
REMARK  0 active torsions:
REMARK  status: ('A' for Active; 'I' for Inactive)
REMARK       I    between atoms: O3_1  and  C3_8 
REMARK       I    between atoms: O3_1  and  S3_11 
REMARK       I    between atoms: C1_2  and  O1_36 
REMARK       I    between atoms: C6_3  and  C5_27 
REMARK       I    between atoms: C6_3  and  O6_25 
REMARK       I    between atoms: O3S_4  and  S1_32 
REMARK       I    between atoms: C3_5  and  O3_9 
REMARK       I    between atoms: N_6  and  S1_32 
REMARK       I    between atoms: N_6  and  C2_39 
REMARK       I    between atoms: S_7  and  O2_30 
REMARK       I    between atoms: O4_12  and  C1_29 
REMARK       I    between atoms: O4_12  and  C4_40 
REMARK       I    between atoms: O4_13  and  C4_28 
REMARK       I    between atoms: C2_14  and  O2_30 
REMARK       I    between atoms: C6_15  and  C5_23 
REMARK       I    between atoms: S2_16  and  O6_25 
REMARK       I    between atoms: O1S_22  and  S1_32 
REMARK       I    between atoms: S1_32  and  O2S_33 
REMARK       I    between atoms: O1_36  and  C7_37 
ROOT
ATOM      1  O3  SUS d 141      -0.811   8.956  16.890  0.00  0.00    -0.247 OA
ATOM      2  C6  SUS d 141      -2.512  13.068  14.846  0.00  0.00     0.067 C 
ATOM      3  O3S SUS d 141       0.081   9.815  21.687  0.00  0.00    -0.296 OA
ATOM      4  N   SUS d 141      -0.374  10.452  19.356  0.00  0.00    -0.210 NA
ATOM      5  C3  SUS d 141      -0.723  10.361  16.947  0.00  0.00     0.107 C 
ATOM      6  O6S SUS d 141      -5.303  14.858  14.058  0.00  0.00    -0.572 OA
ATOM      7  S3  SUS d 141       0.212   8.013  17.197  0.00  0.00     0.252 S 
ATOM      8  O4  SUS d 141      -0.830  10.703  14.577  0.00  0.00    -0.390 OA
ATOM      9  S2  SUS d 141      -5.030  13.575  14.701  0.00  0.00     0.251 S 
ATOM     10  O5  SUS d 141      -2.265  12.742  17.208  0.00  0.00    -0.349 OA
ATOM     11  O8S SUS d 141       1.350   8.331  18.027  0.00  0.00    -0.572 OA
ATOM     12  O4S SUS d 141      -4.928  12.484  13.737  0.00  0.00    -0.572 OA
ATOM     13  O1S SUS d 141      -2.148  10.508  21.056  0.00  0.00    -0.296 OA
ATOM     14  O7S SUS d 141       0.724   7.577  15.924  0.00  0.00    -0.572 OA
ATOM     15  O6  SUS d 141      -3.642  13.699  15.403  0.00  0.00    -0.254 OA
ATOM     16  C5  SUS d 141      -1.662  12.474  15.962  0.00  0.00     0.090 C 
ATOM     17  C4  SUS d 141      -1.504  10.968  15.787  0.00  0.00     0.090 C 
ATOM     18  C1  SUS d 141      -1.438  12.365  18.285  0.00  0.00     0.150 C 
ATOM     19  O9S SUS d 141      -0.508   6.881  17.739  0.00  0.00    -0.572 OA
ATOM     20  S1  SUS d 141      -0.963   9.750  20.668  0.00  0.00     0.156 S 
ATOM     21  O2S SUS d 141      -1.280   8.373  20.300  0.00  0.00    -0.296 OA
ATOM     22  C2  SUS d 141      -1.265  10.850  18.285  0.00  0.00     0.083 C 
ATOM     23  O5S SUS d 141      -6.009  13.258  15.736  0.00  0.00    -0.572 OA
ATOM     24  H   SUS d 141      -2.829  12.288  14.185  0.00  0.00     0.080 H 
ATOM     25  H   SUS d 141      -1.935  13.785  14.302  0.00  0.00     0.080 H 
ATOM     26  H   SUS d 141       0.264  10.743  21.904  0.00  0.00     0.231 HD
ATOM     27  H   SUS d 141       0.301   9.802  18.952  0.00  0.00     0.140 HD
ATOM     28  H   SUS d 141       0.300  10.667  16.864  0.00  0.00     0.092 H 
ATOM     29  H   SUS d 141      -0.729   9.745  14.465  0.00  0.00     0.210 HD
ATOM     30  H   SUS d 141      -1.891  11.414  21.290  0.00  0.00     0.231 HD
ATOM     31  H   SUS d 141      -0.691  12.923  15.921  0.00  0.00     0.090 H 
ATOM     32  H   SUS d 141      -2.479  10.526  15.769  0.00  0.00     0.091 H 
ATOM     33  H   SUS d 141      -1.887  12.673  19.205  0.00  0.00     0.131 H 
ATOM     34  H   SUS d 141      -0.466   7.909  20.051  0.00  0.00     0.231 HD
ATOM     35  H   SUS d 141      -2.225  10.404  18.440  0.00  0.00     0.076 H 
ATOM     36  C1  IDY d 142       3.196  14.218  19.477  0.00  0.00     0.160 C 
ATOM     37  C3  IDY d 142       0.788  14.271  19.607  0.00  0.00     0.094 C 
ATOM     38  S   IDY d 142       3.091  11.302  20.642  0.00  0.00     0.252 S 
ATOM     39  O3  IDY d 142      -0.075  14.960  20.636  0.00  0.00    -0.390 OA
ATOM     40  O4  IDY d 142      -0.177  12.980  18.146  0.00  0.00    -0.348 OA
ATOM     41  C2  IDY d 142       1.997  13.587  20.148  0.00  0.00     0.134 C 
ATOM     42  C6  IDY d 142       1.745  14.880  16.035  0.00  0.00     0.206 C 
ATOM     43  O61 IDY d 142       2.124  13.774  15.515  0.00  0.00    -0.646 OA
ATOM     44  O62 IDY d 142       1.360  15.839  15.205  0.00  0.00    -0.646 OA
ATOM     45  C5  IDY d 142       1.816  15.111  17.533  0.00  0.00     0.152 C 
ATOM     46  OS2 IDY d 142       2.638  11.106  22.033  0.00  0.00    -0.572 OA
ATOM     47  O2  IDY d 142       2.044  12.159  19.884  0.00  0.00    -0.244 OA
ATOM     48  OS1 IDY d 142       3.219   9.996  19.945  0.00  0.00    -0.572 OA
ATOM     49  O5  IDY d 142       3.028  14.497  18.063  0.00  0.00    -0.340 OA
ATOM     50  O1  IDY d 142       3.399  15.420  20.337  0.00  0.00    -0.363 OA
ATOM     51  C7  IDY d 142       4.222  16.233  19.333  0.00  0.00     0.007 C 
ATOM     52  OS3 IDY d 142       4.418  11.979  20.699  0.00  0.00    -0.572 OA
ATOM     53  C4  IDY d 142       0.537  14.544  18.151  0.00  0.00     0.103 C 
ATOM     54  H   IDY d 142       4.050  13.575  19.425  0.00  0.00     0.133 H 
ATOM     55  H   IDY d 142       0.412  13.349  19.217  0.00  0.00     0.091 H 
ATOM     56  H   IDY d 142       0.356  15.782  20.921  0.00  0.00     0.210 HD
ATOM     57  H   IDY d 142       1.982  13.702  21.212  0.00  0.00     0.097 H 
ATOM     58  H   IDY d 142       1.872  16.152  17.774  0.00  0.00     0.104 H 
ATOM     59  H   IDY d 142       4.485  17.175  19.767  0.00  0.00     0.066 H 
ATOM     60  H   IDY d 142       3.644  16.398  18.448  0.00  0.00     0.066 H 
ATOM     61  H   IDY d 142       5.112  15.695  19.082  0.00  0.00     0.066 H 
ATOM     62  H   IDY d 142      -0.041  15.253  17.597  0.00  0.00     0.092 H 
ENDROOT
TORSDOF 19
ENDMDL
MODEL 67
REMARK VINA RESULT:      -5.7      2.838      5.402
REMARK  0 active torsions:
REMARK  status: ('A' for Active; 'I' for Inactive)
REMARK       I    between atoms: O3_1  and  C3_8 
REMARK       I    between atoms: O3_1  and  S3_11 
REMARK       I    between atoms: C1_2  and  O1_36 
REMARK       I    between atoms: C6_3  and  C5_27 
REMARK       I    between atoms: C6_3  and  O6_25 
REMARK       I    between atoms: O3S_4  and  S1_32 
REMARK       I    between atoms: C3_5  and  O3_9 
REMARK       I    between atoms: N_6  and  S1_32 
REMARK       I    between atoms: N_6  and  C2_39 
REMARK       I    between atoms: S_7  and  O2_30 
REMARK       I    between atoms: O4_12  and  C1_29 
REMARK       I    between atoms: O4_12  and  C4_40 
REMARK       I    between atoms: O4_13  and  C4_28 
REMARK       I    between atoms: C2_14  and  O2_30 
REMARK       I    between atoms: C6_15  and  C5_23 
REMARK       I    between atoms: S2_16  and  O6_25 
REMARK       I    between atoms: O1S_22  and  S1_32 
REMARK       I    between atoms: S1_32  and  O2S_33 
REMARK       I    between atoms: O1_36  and  C7_37 
ROOT
ATOM      1  O3  SUS d 141      -2.026   9.308  17.284  0.00  0.00    -0.247 OA
ATOM      2  C6  SUS d 141       0.951   9.480  21.167  0.00  0.00     0.067 C 
ATOM      3  O3S SUS d 141      -0.407  12.537  13.894  0.00  0.00    -0.296 OA
ATOM      4  N   SUS d 141      -0.534  11.537  16.136  0.00  0.00    -0.210 NA
ATOM      5  C3  SUS d 141      -1.210  10.174  18.039  0.00  0.00     0.107 C 
ATOM      6  O6S SUS d 141       3.731   8.154  22.628  0.00  0.00    -0.572 OA
ATOM      7  S3  SUS d 141      -3.214   9.642  16.571  0.00  0.00     0.252 S 
ATOM      8  O4  SUS d 141      -1.777   9.237  20.171  0.00  0.00    -0.390 OA
ATOM      9  S2  SUS d 141       2.986   7.922  21.394  0.00  0.00     0.251 S 
ATOM     10  O5  SUS d 141       1.426  10.520  19.062  0.00  0.00    -0.349 OA
ATOM     11  O8S SUS d 141      -3.524  10.989  16.151  0.00  0.00    -0.572 OA
ATOM     12  O4S SUS d 141       1.900   6.962  21.575  0.00  0.00    -0.572 OA
ATOM     13  O1S SUS d 141       1.362  11.070  14.645  0.00  0.00    -0.296 OA
ATOM     14  O7S SUS d 141      -4.298   9.198  17.407  0.00  0.00    -0.572 OA
ATOM     15  O6  SUS d 141       2.334   9.280  20.987  0.00  0.00    -0.254 OA
ATOM     16  C5  SUS d 141       0.389  10.245  19.976  0.00  0.00     0.090 C 
ATOM     17  C4  SUS d 141      -0.704   9.444  19.278  0.00  0.00     0.090 C 
ATOM     18  C1  SUS d 141       0.999  11.372  18.023  0.00  0.00     0.150 C 
ATOM     19  O9S SUS d 141      -3.202   8.748  15.434  0.00  0.00    -0.572 OA
ATOM     20  S1  SUS d 141      -0.077  11.314  14.620  0.00  0.00     0.156 S 
ATOM     21  O2S SUS d 141      -0.826  10.165  14.119  0.00  0.00    -0.296 OA
ATOM     22  C2  SUS d 141      -0.048  10.655  17.178  0.00  0.00     0.083 C 
ATOM     23  O5S SUS d 141       3.854   7.515  20.294  0.00  0.00    -0.572 OA
ATOM     24  H   SUS d 141       0.460   8.532  21.246  0.00  0.00     0.080 H 
ATOM     25  H   SUS d 141       0.786  10.043  22.062  0.00  0.00     0.080 H 
ATOM     26  H   SUS d 141       0.108  13.276  14.254  0.00  0.00     0.231 HD
ATOM     27  H   SUS d 141      -1.553  11.474  16.149  0.00  0.00     0.140 HD
ATOM     28  H   SUS d 141      -1.774  11.027  18.353  0.00  0.00     0.092 H 
ATOM     29  H   SUS d 141      -2.473   8.728  19.728  0.00  0.00     0.210 HD
ATOM     30  H   SUS d 141       1.818  11.857  14.983  0.00  0.00     0.231 HD
ATOM     31  H   SUS d 141      -0.036  11.160  20.333  0.00  0.00     0.090 H 
ATOM     32  H   SUS d 141      -0.293   8.504  18.974  0.00  0.00     0.091 H 
ATOM     33  H   SUS d 141       1.835  11.633  17.409  0.00  0.00     0.131 H 
ATOM     34  H   SUS d 141      -1.774  10.371  14.120  0.00  0.00     0.231 HD
ATOM     35  H   SUS d 141       0.413   9.799  16.729  0.00  0.00     0.076 H 
ATOM     36  C1  IDY d 142      -0.710  16.192  18.424  0.00  0.00     0.160 C 
ATOM     37  C3  IDY d 142       1.068  14.582  18.175  0.00  0.00     0.094 C 
ATOM     38  S   IDY d 142      -1.999  15.020  15.809  0.00  0.00     0.252 S 
ATOM     39  O3  IDY d 142       2.467  14.811  17.658  0.00  0.00    -0.390 OA
ATOM     40  O4  IDY d 142       0.435  12.540  18.575  0.00  0.00    -0.348 OA
ATOM     41  C2  IDY d 142      -0.009  15.296  17.430  0.00  0.00     0.134 C 
ATOM     42  C6  IDY d 142      -0.519  14.012  21.521  0.00  0.00     0.206 C 
ATOM     43  O61 IDY d 142      -1.649  13.436  21.350  0.00  0.00    -0.646 OA
ATOM     44  O62 IDY d 142       0.040  13.904  22.719  0.00  0.00    -0.646 OA
ATOM     45  C5  IDY d 142       0.110  14.853  20.428  0.00  0.00     0.152 C 
ATOM     46  OS2 IDY d 142      -1.298  15.208  14.524  0.00  0.00    -0.572 OA
ATOM     47  O2  IDY d 142      -1.009  14.421  16.842  0.00  0.00    -0.244 OA
ATOM     48  OS1 IDY d 142      -3.137  14.078  15.652  0.00  0.00    -0.572 OA
ATOM     49  O5  IDY d 142      -0.929  15.603  19.731  0.00  0.00    -0.340 OA
ATOM     50  O1  IDY d 142       0.189  17.383  18.412  0.00  0.00    -0.363 OA
ATOM     51  C7  IDY d 142      -0.255  17.969  19.756  0.00  0.00     0.007 C 
ATOM     52  OS3 IDY d 142      -2.501  16.356  16.241  0.00  0.00    -0.572 OA
ATOM     53  C4  IDY d 142       0.888  13.911  19.507  0.00  0.00     0.103 C 
ATOM     54  H   IDY d 142      -1.724  16.416  18.164  0.00  0.00     0.133 H 
ATOM     55  H   IDY d 142       0.630  13.633  17.946  0.00  0.00     0.091 H 
ATOM     56  H   IDY d 142       2.768  15.696  17.920  0.00  0.00     0.210 HD
ATOM     57  H   IDY d 142       0.455  15.820  16.620  0.00  0.00     0.097 H 
ATOM     58  H   IDY d 142       0.793  15.576  20.822  0.00  0.00     0.104 H 
ATOM     59  H   IDY d 142       0.290  18.868  19.952  0.00  0.00     0.066 H 
ATOM     60  H   IDY d 142      -0.065  17.260  20.535  0.00  0.00     0.066 H 
ATOM     61  H   IDY d 142      -1.302  18.187  19.722  0.00  0.00     0.066 H 
ATOM     62  H   IDY d 142       1.530  13.651  20.322  0.00  0.00     0.092 H 
ENDROOT
TORSDOF 19
ENDMDL
MODEL 68
REMARK VINA RESULT:      -5.6      3.108      5.608
REMARK  0 active torsions:
REMARK  status: ('A' for Active; 'I' for Inactive)
REMARK       I    between atoms: O3_1  and  C3_8 
REMARK       I    between atoms: O3_1  and  S3_11 
REMARK       I    between atoms: C1_2  and  O1_36 
REMARK       I    between atoms: C6_3  and  C5_27 
REMARK       I    between atoms: C6_3  and  O6_25 
REMARK       I    between atoms: O3S_4  and  S1_32 
REMARK       I    between atoms: C3_5  and  O3_9 
REMARK       I    between atoms: N_6  and  S1_32 
REMARK       I    between atoms: N_6  and  C2_39 
REMARK       I    between atoms: S_7  and  O2_30 
REMARK       I    between atoms: O4_12  and  C1_29 
REMARK       I    between atoms: O4_12  and  C4_40 
REMARK       I    between atoms: O4_13  and  C4_28 
REMARK       I    between atoms: C2_14  and  O2_30 
REMARK       I    between atoms: C6_15  and  C5_23 
REMARK       I    between atoms: S2_16  and  O6_25 
REMARK       I    between atoms: O1S_22  and  S1_32 
REMARK       I    between atoms: S1_32  and  O2S_33 
REMARK       I    between atoms: O1_36  and  C7_37 
ROOT
ATOM      1  O3  SUS d 141      -0.872  10.554  14.387  0.00  0.00    -0.247 OA
ATOM      2  C6  SUS d 141      -3.063  14.469  12.428  0.00  0.00     0.067 C 
ATOM      3  O3S SUS d 141      -3.062   9.500  18.704  0.00  0.00    -0.296 OA
ATOM      4  N   SUS d 141      -2.527  10.911  16.763  0.00  0.00    -0.210 NA
ATOM      5  C3  SUS d 141      -1.522  11.761  14.714  0.00  0.00     0.107 C 
ATOM      6  O6S SUS d 141      -5.534  15.546  10.341  0.00  0.00    -0.572 OA
ATOM      7  S3  SUS d 141       0.164   9.905  15.119  0.00  0.00     0.252 S 
ATOM      8  O4  SUS d 141      -0.575  13.034  12.917  0.00  0.00    -0.390 OA
ATOM      9  S2  SUS d 141      -5.038  14.249  10.792  0.00  0.00     0.251 S 
ATOM     10  O5  SUS d 141      -3.915  13.254  14.309  0.00  0.00    -0.349 OA
ATOM     11  O8S SUS d 141       0.405  10.148  16.522  0.00  0.00    -0.572 OA
ATOM     12  O4S SUS d 141      -3.949  13.753   9.956  0.00  0.00    -0.572 OA
ATOM     13  O1S SUS d 141      -4.676   9.729  16.918  0.00  0.00    -0.296 OA
ATOM     14  O7S SUS d 141       1.381  10.220  14.418  0.00  0.00    -0.572 OA
ATOM     15  O6  SUS d 141      -4.458  14.452  12.226  0.00  0.00    -0.254 OA
ATOM     16  C5  SUS d 141      -2.727  13.727  13.714  0.00  0.00     0.090 C 
ATOM     17  C4  SUS d 141      -1.794  12.553  13.440  0.00  0.00     0.090 C 
ATOM     18  C1  SUS d 141      -3.680  12.706  15.587  0.00  0.00     0.150 C 
ATOM     19  O9S SUS d 141      -0.073   8.497  14.884  0.00  0.00    -0.572 OA
ATOM     20  S1  SUS d 141      -3.265   9.581  17.261  0.00  0.00     0.156 S 
ATOM     21  O2S SUS d 141      -2.637   8.465  16.559  0.00  0.00    -0.296 OA
ATOM     22  C2  SUS d 141      -2.820  11.455  15.453  0.00  0.00     0.083 C 
ATOM     23  O5S SUS d 141      -6.102  13.256  10.895  0.00  0.00    -0.572 OA
ATOM     24  H   SUS d 141      -2.578  13.991  11.602  0.00  0.00     0.080 H 
ATOM     25  H   SUS d 141      -2.727  15.482  12.502  0.00  0.00     0.080 H 
ATOM     26  H   SUS d 141      -3.492  10.256  19.134  0.00  0.00     0.231 HD
ATOM     27  H   SUS d 141      -1.526  10.718  16.785  0.00  0.00     0.140 HD
ATOM     28  H   SUS d 141      -0.899  12.350  15.353  0.00  0.00     0.092 H 
ATOM     29  H   SUS d 141       0.019  12.288  12.743  0.00  0.00     0.210 HD
ATOM     30  H   SUS d 141      -5.051  10.479  17.404  0.00  0.00     0.231 HD
ATOM     31  H   SUS d 141      -2.232  14.406  14.376  0.00  0.00     0.090 H 
ATOM     32  H   SUS d 141      -2.266  11.904  12.732  0.00  0.00     0.091 H 
ATOM     33  H   SUS d 141      -4.614  12.450  16.042  0.00  0.00     0.131 H 
ATOM     34  H   SUS d 141      -1.703   8.405  16.816  0.00  0.00     0.231 HD
ATOM     35  H   SUS d 141      -3.367  10.732  14.884  0.00  0.00     0.076 H 
ATOM     36  C1  IDY d 142      -1.870  15.110  19.742  0.00  0.00     0.160 C 
ATOM     37  C3  IDY d 142      -3.682  14.413  18.311  0.00  0.00     0.094 C 
ATOM     38  S   IDY d 142      -1.110  12.080  20.081  0.00  0.00     0.252 S 
ATOM     39  O3  IDY d 142      -5.150  14.320  18.645  0.00  0.00    -0.390 OA
ATOM     40  O4  IDY d 142      -3.009  13.653  16.387  0.00  0.00    -0.348 OA
ATOM     41  C2  IDY d 142      -2.757  13.940  19.380  0.00  0.00     0.134 C 
ATOM     42  C6  IDY d 142      -1.500  16.732  16.334  0.00  0.00     0.206 C 
ATOM     43  O61 IDY d 142      -0.430  16.112  16.006  0.00  0.00    -0.646 OA
ATOM     44  O62 IDY d 142      -1.826  17.800  15.618  0.00  0.00    -0.646 OA
ATOM     45  C5  IDY d 142      -2.315  16.312  17.543  0.00  0.00     0.152 C 
ATOM     46  OS2 IDY d 142      -2.038  11.190  20.806  0.00  0.00    -0.572 OA
ATOM     47  O2  IDY d 142      -1.895  12.840  18.981  0.00  0.00    -0.244 OA
ATOM     48  OS1 IDY d 142      -0.033  11.293  19.427  0.00  0.00    -0.572 OA
ATOM     49  O5  IDY d 142      -1.416  15.905  18.617  0.00  0.00    -0.340 OA
ATOM     50  O1  IDY d 142      -2.742  15.833  20.714  0.00  0.00    -0.363 OA
ATOM     51  C7  IDY d 142      -2.046  17.194  20.616  0.00  0.00     0.007 C 
ATOM     52  OS3 IDY d 142      -0.520  13.016  21.081  0.00  0.00    -0.572 OA
ATOM     53  C4  IDY d 142      -3.263  15.197  17.100  0.00  0.00     0.103 C 
ATOM     54  H   IDY d 142      -0.921  14.824  20.145  0.00  0.00     0.133 H 
ATOM     55  H   IDY d 142      -3.306  13.680  17.628  0.00  0.00     0.091 H 
ATOM     56  H   IDY d 142      -5.386  15.027  19.267  0.00  0.00     0.210 HD
ATOM     57  H   IDY d 142      -3.358  13.581  20.189  0.00  0.00     0.097 H 
ATOM     58  H   IDY d 142      -2.903  17.118  17.929  0.00  0.00     0.104 H 
ATOM     59  H   IDY d 142      -2.534  17.892  21.262  0.00  0.00     0.066 H 
ATOM     60  H   IDY d 142      -2.095  17.548  19.607  0.00  0.00     0.066 H 
ATOM     61  H   IDY d 142      -1.022  17.093  20.908  0.00  0.00     0.066 H 
ATOM     62  H   IDY d 142      -3.743  15.877  16.428  0.00  0.00     0.092 H 
ENDROOT
TORSDOF 19
ENDMDL
MODEL 69
REMARK VINA RESULT:      -5.6      2.480      3.731
REMARK  0 active torsions:
REMARK  status: ('A' for Active; 'I' for Inactive)
REMARK       I    between atoms: O3_1  and  C3_8 
REMARK       I    between atoms: O3_1  and  S3_11 
REMARK       I    between atoms: C1_2  and  O1_36 
REMARK       I    between atoms: C6_3  and  C5_27 
REMARK       I    between atoms: C6_3  and  O6_25 
REMARK       I    between atoms: O3S_4  and  S1_32 
REMARK       I    between atoms: C3_5  and  O3_9 
REMARK       I    between atoms: N_6  and  S1_32 
REMARK       I    between atoms: N_6  and  C2_39 
REMARK       I    between atoms: S_7  and  O2_30 
REMARK       I    between atoms: O4_12  and  C1_29 
REMARK       I    between atoms: O4_12  and  C4_40 
REMARK       I    between atoms: O4_13  and  C4_28 
REMARK       I    between atoms: C2_14  and  O2_30 
REMARK       I    between atoms: C6_15  and  C5_23 
REMARK       I    between atoms: S2_16  and  O6_25 
REMARK       I    between atoms: O1S_22  and  S1_32 
REMARK       I    between atoms: S1_32  and  O2S_33 
REMARK       I    between atoms: O1_36  and  C7_37 
ROOT
ATOM      1  O3  SUS d 141       2.221   8.680  17.498  0.00  0.00    -0.247 OA
ATOM      2  C6  SUS d 141       0.392  11.359  13.830  0.00  0.00     0.067 C 
ATOM      3  O3S SUS d 141      -1.046   8.641  21.222  0.00  0.00    -0.296 OA
ATOM      4  N   SUS d 141      -0.081   9.457  19.113  0.00  0.00    -0.210 NA
ATOM      5  C3  SUS d 141       1.409   9.797  17.216  0.00  0.00     0.107 C 
ATOM      6  O6S SUS d 141      -1.436  11.295  10.954  0.00  0.00    -0.572 OA
ATOM      7  S3  SUS d 141       3.046   8.478  18.642  0.00  0.00     0.252 S 
ATOM      8  O4  SUS d 141       2.735  10.600  15.388  0.00  0.00    -0.390 OA
ATOM      9  S2  SUS d 141      -0.991  10.306  11.933  0.00  0.00     0.251 S 
ATOM     10  O5  SUS d 141      -0.872  10.653  15.739  0.00  0.00    -0.349 OA
ATOM     11  O8S SUS d 141       2.845   9.180  19.889  0.00  0.00    -0.572 OA
ATOM     12  O4S SUS d 141       0.332   9.774  11.618  0.00  0.00    -0.572 OA
ATOM     13  O1S SUS d 141      -2.078   8.025  19.123  0.00  0.00    -0.296 OA
ATOM     14  O7S SUS d 141       4.386   8.769  18.202  0.00  0.00    -0.572 OA
ATOM     15  O6  SUS d 141      -0.876  11.038  13.306  0.00  0.00    -0.254 OA
ATOM     16  C5  SUS d 141       0.396  11.118  15.334  0.00  0.00     0.090 C 
ATOM     17  C4  SUS d 141       1.460  10.099  15.722  0.00  0.00     0.090 C 
ATOM     18  C1  SUS d 141      -0.979  10.574  17.143  0.00  0.00     0.150 C 
ATOM     19  O9S SUS d 141       3.003   7.048  18.855  0.00  0.00    -0.572 OA
ATOM     20  S1  SUS d 141      -0.822   8.238  19.836  0.00  0.00     0.156 S 
ATOM     21  O2S SUS d 141       0.072   7.087  19.742  0.00  0.00    -0.296 OA
ATOM     22  C2  SUS d 141      -0.019   9.512  17.666  0.00  0.00     0.083 C 
ATOM     23  O5S SUS d 141      -1.955   9.224  12.102  0.00  0.00    -0.572 OA
ATOM     24  H   SUS d 141       1.135  10.742  13.368  0.00  0.00     0.080 H 
ATOM     25  H   SUS d 141       0.610  12.388  13.633  0.00  0.00     0.080 H 
ATOM     26  H   SUS d 141      -1.642   9.406  21.244  0.00  0.00     0.231 HD
ATOM     27  H   SUS d 141       0.883   9.458  19.449  0.00  0.00     0.140 HD
ATOM     28  H   SUS d 141       1.768  10.653  17.747  0.00  0.00     0.092 H 
ATOM     29  H   SUS d 141       3.413   9.952  15.635  0.00  0.00     0.210 HD
ATOM     30  H   SUS d 141      -2.638   8.811  19.212  0.00  0.00     0.231 HD
ATOM     31  H   SUS d 141       0.618  12.044  15.823  0.00  0.00     0.090 H 
ATOM     32  H   SUS d 141       1.270   9.191  15.187  0.00  0.00     0.091 H 
ATOM     33  H   SUS d 141      -1.982  10.312  17.410  0.00  0.00     0.131 H 
ATOM     34  H   SUS d 141       0.891   7.273  20.229  0.00  0.00     0.231 HD
ATOM     35  H   SUS d 141      -0.315   8.566  17.264  0.00  0.00     0.076 H 
ATOM     36  C1  IDY d 142      -0.667  14.416  20.529  0.00  0.00     0.160 C 
ATOM     37  C3  IDY d 142      -1.918  13.009  19.020  0.00  0.00     0.094 C 
ATOM     38  S   IDY d 142       0.202  11.818  22.067  0.00  0.00     0.252 S 
ATOM     39  O3  IDY d 142      -3.407  12.769  18.989  0.00  0.00    -0.390 OA
ATOM     40  O4  IDY d 142      -0.651  11.823  17.709  0.00  0.00    -0.348 OA
ATOM     41  C2  IDY d 142      -1.311  13.056  20.382  0.00  0.00     0.134 C 
ATOM     42  C6  IDY d 142       0.553  14.949  16.977  0.00  0.00     0.206 C 
ATOM     43  O61 IDY d 142       1.719  14.455  17.160  0.00  0.00    -0.646 OA
ATOM     44  O62 IDY d 142       0.367  15.671  15.881  0.00  0.00    -0.646 OA
ATOM     45  C5  IDY d 142      -0.543  14.787  18.013  0.00  0.00     0.152 C 
ATOM     46  OS2 IDY d 142      -0.822  11.047  22.799  0.00  0.00    -0.572 OA
ATOM     47  O2  IDY d 142      -0.284  12.054  20.614  0.00  0.00    -0.244 OA
ATOM     48  OS1 IDY d 142       1.484  11.068  22.015  0.00  0.00    -0.572 OA
ATOM     49  O5  IDY d 142       0.031  14.892  19.349  0.00  0.00    -0.340 OA
ATOM     50  O1  IDY d 142      -1.841  15.240  20.942  0.00  0.00    -0.363 OA
ATOM     51  C7  IDY d 142      -1.258  16.604  20.558  0.00  0.00     0.007 C 
ATOM     52  OS3 IDY d 142       0.396  13.104  22.797  0.00  0.00    -0.572 OA
ATOM     53  C4  IDY d 142      -1.226  13.442  17.759  0.00  0.00     0.103 C 
ATOM     54  H   IDY d 142       0.142  14.438  21.228  0.00  0.00     0.133 H 
ATOM     55  H   IDY d 142      -1.300  12.179  18.749  0.00  0.00     0.091 H 
ATOM     56  H   IDY d 142      -3.871  13.581  19.250  0.00  0.00     0.210 HD
ATOM     57  H   IDY d 142      -2.092  12.865  21.088  0.00  0.00     0.097 H 
ATOM     58  H   IDY d 142      -1.281  15.557  17.938  0.00  0.00     0.104 H 
ATOM     59  H   IDY d 142      -1.970  17.371  20.781  0.00  0.00     0.066 H 
ATOM     60  H   IDY d 142      -1.038  16.616  19.511  0.00  0.00     0.066 H 
ATOM     61  H   IDY d 142      -0.361  16.777  21.113  0.00  0.00     0.066 H 
ATOM     62  H   IDY d 142      -1.542  13.788  16.797  0.00  0.00     0.092 H 
ENDROOT
TORSDOF 19
ENDMDL
MODEL 70
REMARK VINA RESULT:      -5.6      3.188      7.447
REMARK  0 active torsions:
REMARK  status: ('A' for Active; 'I' for Inactive)
REMARK       I    between atoms: O3_1  and  C3_8 
REMARK       I    between atoms: O3_1  and  S3_11 
REMARK       I    between atoms: C1_2  and  O1_36 
REMARK       I    between atoms: C6_3  and  C5_27 
REMARK       I    between atoms: C6_3  and  O6_25 
REMARK       I    between atoms: O3S_4  and  S1_32 
REMARK       I    between atoms: C3_5  and  O3_9 
REMARK       I    between atoms: N_6  and  S1_32 
REMARK       I    between atoms: N_6  and  C2_39 
REMARK       I    between atoms: S_7  and  O2_30 
REMARK       I    between atoms: O4_12  and  C1_29 
REMARK       I    between atoms: O4_12  and  C4_40 
REMARK       I    between atoms: O4_13  and  C4_28 
REMARK       I    between atoms: C2_14  and  O2_30 
REMARK       I    between atoms: C6_15  and  C5_23 
REMARK       I    between atoms: S2_16  and  O6_25 
REMARK       I    between atoms: O1S_22  and  S1_32 
REMARK       I    between atoms: S1_32  and  O2S_33 
REMARK       I    between atoms: O1_36  and  C7_37 
ROOT
ATOM      1  O3  SUS d 141       0.126  12.124  22.684  0.00  0.00    -0.247 OA
ATOM      2  C6  SUS d 141      -0.959  15.987  19.879  0.00  0.00     0.067 C 
ATOM      3  O3S SUS d 141       2.786   8.912  20.009  0.00  0.00    -0.296 OA
ATOM      4  N   SUS d 141       1.309  10.850  20.341  0.00  0.00    -0.210 NA
ATOM      5  C3  SUS d 141      -0.158  12.507  21.358  0.00  0.00     0.107 C 
ATOM      6  O6S SUS d 141       0.024  19.098  18.892  0.00  0.00    -0.572 OA
ATOM      7  S3  SUS d 141      -0.167  10.874  23.304  0.00  0.00     0.252 S 
ATOM      8  O4  SUS d 141      -1.841  14.115  21.930  0.00  0.00    -0.390 OA
ATOM      9  S2  SUS d 141       0.541  18.076  19.798  0.00  0.00     0.251 S 
ATOM     10  O5  SUS d 141       0.621  14.289  19.276  0.00  0.00    -0.349 OA
ATOM     11  O8S SUS d 141      -0.403   9.662  22.554  0.00  0.00    -0.572 OA
ATOM     12  O4S SUS d 141      -0.011  18.202  21.145  0.00  0.00    -0.572 OA
ATOM     13  O1S SUS d 141       3.709  11.145  19.899  0.00  0.00    -0.296 OA
ATOM     14  O7S SUS d 141      -1.340  11.112  24.105  0.00  0.00    -0.572 OA
ATOM     15  O6  SUS d 141       0.081  16.693  19.242  0.00  0.00    -0.254 OA
ATOM     16  C5  SUS d 141      -0.625  14.501  19.901  0.00  0.00     0.090 C 
ATOM     17  C4  SUS d 141      -0.572  13.974  21.331  0.00  0.00     0.090 C 
ATOM     18  C1  SUS d 141       0.902  12.917  19.117  0.00  0.00     0.150 C 
ATOM     19  O9S SUS d 141       0.919  10.686  24.241  0.00  0.00    -0.572 OA
ATOM     20  S1  SUS d 141       2.775  10.255  20.582  0.00  0.00     0.156 S 
ATOM     21  O2S SUS d 141       2.986  10.232  22.027  0.00  0.00    -0.296 OA
ATOM     22  C2  SUS d 141       1.071  12.272  20.488  0.00  0.00     0.083 C 
ATOM     23  O5S SUS d 141       1.999  18.061  19.839  0.00  0.00    -0.572 OA
ATOM     24  H   SUS d 141      -1.070  16.343  20.882  0.00  0.00     0.080 H 
ATOM     25  H   SUS d 141      -1.873  16.139  19.343  0.00  0.00     0.080 H 
ATOM     26  H   SUS d 141       2.642   8.968  19.051  0.00  0.00     0.231 HD
ATOM     27  H   SUS d 141       0.688  10.378  20.999  0.00  0.00     0.140 HD
ATOM     28  H   SUS d 141      -0.964  11.920  20.972  0.00  0.00     0.092 H 
ATOM     29  H   SUS d 141      -1.808  13.780  22.840  0.00  0.00     0.210 HD
ATOM     30  H   SUS d 141       3.532  11.129  18.946  0.00  0.00     0.231 HD
ATOM     31  H   SUS d 141      -1.393  13.975  19.374  0.00  0.00     0.090 H 
ATOM     32  H   SUS d 141       0.155  14.541  21.874  0.00  0.00     0.091 H 
ATOM     33  H   SUS d 141       1.804  12.801  18.554  0.00  0.00     0.131 H 
ATOM     34  H   SUS d 141       2.346   9.630  22.438  0.00  0.00     0.231 HD
ATOM     35  H   SUS d 141       1.914  12.723  20.968  0.00  0.00     0.076 H 
ATOM     36  C1  IDY d 142      -1.723   9.478  16.358  0.00  0.00     0.160 C 
ATOM     37  C3  IDY d 142      -0.015  11.167  16.581  0.00  0.00     0.094 C 
ATOM     38  S   IDY d 142      -0.271   7.859  18.627  0.00  0.00     0.252 S 
ATOM     39  O3  IDY d 142       1.171  11.416  15.682  0.00  0.00    -0.390 OA
ATOM     40  O4  IDY d 142      -0.163  12.295  18.435  0.00  0.00    -0.348 OA
ATOM     41  C2  IDY d 142      -0.316   9.732  16.851  0.00  0.00     0.134 C 
ATOM     42  C6  IDY d 142      -3.324  12.809  17.209  0.00  0.00     0.206 C 
ATOM     43  O61 IDY d 142      -3.743  12.465  18.368  0.00  0.00    -0.646 OA
ATOM     44  O62 IDY d 142      -3.838  13.913  16.682  0.00  0.00    -0.646 OA
ATOM     45  C5  IDY d 142      -2.347  11.945  16.435  0.00  0.00     0.152 C 
ATOM     46  OS2 IDY d 142       1.064   7.292  18.354  0.00  0.00    -0.572 OA
ATOM     47  O2  IDY d 142      -0.267   9.365  18.256  0.00  0.00    -0.244 OA
ATOM     48  OS1 IDY d 142      -0.609   7.734  20.068  0.00  0.00    -0.572 OA
ATOM     49  O5  IDY d 142      -2.671  10.538  16.644  0.00  0.00    -0.340 OA
ATOM     50  O1  IDY d 142      -1.472   9.230  14.908  0.00  0.00    -0.363 OA
ATOM     51  C7  IDY d 142      -2.897   9.510  14.420  0.00  0.00     0.007 C 
ATOM     52  OS3 IDY d 142      -1.254   7.094  17.807  0.00  0.00    -0.572 OA
ATOM     53  C4  IDY d 142      -0.936  12.310  16.899  0.00  0.00     0.103 C 
ATOM     54  H   IDY d 142      -2.215   8.669  16.856  0.00  0.00     0.133 H 
ATOM     55  H   IDY d 142       0.135  11.356  17.623  0.00  0.00     0.091 H 
ATOM     56  H   IDY d 142       0.930  11.216  14.764  0.00  0.00     0.210 HD
ATOM     57  H   IDY d 142       0.432   9.149  16.355  0.00  0.00     0.097 H 
ATOM     58  H   IDY d 142      -2.409  12.117  15.381  0.00  0.00     0.104 H 
ATOM     59  H   IDY d 142      -2.942   9.383  13.359  0.00  0.00     0.066 H 
ATOM     60  H   IDY d 142      -3.170  10.514  14.672  0.00  0.00     0.066 H 
ATOM     61  H   IDY d 142      -3.575   8.829  14.890  0.00  0.00     0.066 H 
ATOM     62  H   IDY d 142      -1.075  13.303  16.527  0.00  0.00     0.092 H 
ENDROOT
TORSDOF 19
ENDMDL
MODEL 71
REMARK VINA RESULT:      -5.6      2.907      6.734
REMARK  0 active torsions:
REMARK  status: ('A' for Active; 'I' for Inactive)
REMARK       I    between atoms: O3_1  and  C3_8 
REMARK       I    between atoms: O3_1  and  S3_11 
REMARK       I    between atoms: C1_2  and  O1_36 
REMARK       I    between atoms: C6_3  and  C5_27 
REMARK       I    between atoms: C6_3  and  O6_25 
REMARK       I    between atoms: O3S_4  and  S1_32 
REMARK       I    between atoms: C3_5  and  O3_9 
REMARK       I    between atoms: N_6  and  S1_32 
REMARK       I    between atoms: N_6  and  C2_39 
REMARK       I    between atoms: S_7  and  O2_30 
REMARK       I    between atoms: O4_12  and  C1_29 
REMARK       I    between atoms: O4_12  and  C4_40 
REMARK       I    between atoms: O4_13  and  C4_28 
REMARK       I    between atoms: C2_14  and  O2_30 
REMARK       I    between atoms: C6_15  and  C5_23 
REMARK       I    between atoms: S2_16  and  O6_25 
REMARK       I    between atoms: O1S_22  and  S1_32 
REMARK       I    between atoms: S1_32  and  O2S_33 
REMARK       I    between atoms: O1_36  and  C7_37 
ROOT
ATOM      1  O3  SUS d 141      -2.328  10.116  17.502  0.00  0.00    -0.247 OA
ATOM      2  C6  SUS d 141      -1.409  14.766  18.729  0.00  0.00     0.067 C 
ATOM      3  O3S SUS d 141       0.258   9.006  13.425  0.00  0.00    -0.296 OA
ATOM      4  N   SUS d 141      -0.736  10.517  15.090  0.00  0.00    -0.210 NA
ATOM      5  C3  SUS d 141      -2.028  11.383  16.964  0.00  0.00     0.107 C 
ATOM      6  O6S SUS d 141       0.566  16.838  20.579  0.00  0.00    -0.572 OA
ATOM      7  S3  SUS d 141      -3.108   9.085  16.901  0.00  0.00     0.252 S 
ATOM      8  O4  SUS d 141      -3.373  12.624  18.514  0.00  0.00    -0.390 OA
ATOM      9  S2  SUS d 141       0.473  15.396  20.366  0.00  0.00     0.251 S 
ATOM     10  O5  SUS d 141      -0.170  13.539  17.086  0.00  0.00    -0.349 OA
ATOM     11  O8S SUS d 141      -3.346   9.007  15.479  0.00  0.00    -0.572 OA
ATOM     12  O4S SUS d 141      -0.470  14.761  21.283  0.00  0.00    -0.572 OA
ATOM     13  O1S SUS d 141       1.663   9.983  15.134  0.00  0.00    -0.296 OA
ATOM     14  O7S SUS d 141      -4.395   9.158  17.543  0.00  0.00    -0.572 OA
ATOM     15  O6  SUS d 141      -0.076  15.179  18.922  0.00  0.00    -0.254 OA
ATOM     16  C5  SUS d 141      -1.467  13.751  17.596  0.00  0.00     0.090 C 
ATOM     17  C4  SUS d 141      -2.046  12.425  18.077  0.00  0.00     0.090 C 
ATOM     18  C1  SUS d 141      -0.184  12.738  15.926  0.00  0.00     0.150 C 
ATOM     19  O9S SUS d 141      -2.498   7.863  17.379  0.00  0.00    -0.572 OA
ATOM     20  S1  SUS d 141       0.366   9.386  14.831  0.00  0.00     0.156 S 
ATOM     21  O2S SUS d 141       0.044   8.274  15.721  0.00  0.00    -0.296 OA
ATOM     22  C2  SUS d 141      -0.666  11.337  16.283  0.00  0.00     0.083 C 
ATOM     23  O5S SUS d 141       1.776  14.743  20.434  0.00  0.00    -0.572 OA
ATOM     24  H   SUS d 141      -1.778  14.318  19.629  0.00  0.00     0.080 H 
ATOM     25  H   SUS d 141      -2.012  15.614  18.479  0.00  0.00     0.080 H 
ATOM     26  H   SUS d 141       0.478   9.768  12.866  0.00  0.00     0.231 HD
ATOM     27  H   SUS d 141      -1.641  10.047  15.108  0.00  0.00     0.140 HD
ATOM     28  H   SUS d 141      -2.763  11.654  16.234  0.00  0.00     0.092 H 
ATOM     29  H   SUS d 141      -3.742  11.781  18.820  0.00  0.00     0.210 HD
ATOM     30  H   SUS d 141       1.834  10.715  14.521  0.00  0.00     0.231 HD
ATOM     31  H   SUS d 141      -2.103  14.139  16.827  0.00  0.00     0.090 H 
ATOM     32  H   SUS d 141      -1.443  12.067  18.886  0.00  0.00     0.091 H 
ATOM     33  H   SUS d 141       0.803  12.683  15.517  0.00  0.00     0.131 H 
ATOM     34  H   SUS d 141      -0.823   7.910  15.484  0.00  0.00     0.231 HD
ATOM     35  H   SUS d 141       0.036  10.906  16.967  0.00  0.00     0.076 H 
ATOM     36  C1  IDY d 142      -2.409  13.786  11.423  0.00  0.00     0.160 C 
ATOM     37  C3  IDY d 142      -0.539  13.886  12.944  0.00  0.00     0.094 C 
ATOM     38  S   IDY d 142      -2.274  10.654  11.627  0.00  0.00     0.252 S 
ATOM     39  O3  IDY d 142       0.910  14.157  12.623  0.00  0.00    -0.390 OA
ATOM     40  O4  IDY d 142      -1.057  13.305  14.975  0.00  0.00    -0.348 OA
ATOM     41  C2  IDY d 142      -1.247  12.995  11.980  0.00  0.00     0.134 C 
ATOM     42  C6  IDY d 142      -3.368  15.793  14.495  0.00  0.00     0.206 C 
ATOM     43  O61 IDY d 142      -4.236  14.961  14.933  0.00  0.00    -0.646 OA
ATOM     44  O62 IDY d 142      -3.386  17.015  15.009  0.00  0.00    -0.646 OA
ATOM     45  C5  IDY d 142      -2.416  15.422  13.374  0.00  0.00     0.152 C 
ATOM     46  OS2 IDY d 142      -1.104   9.953  11.064  0.00  0.00    -0.572 OA
ATOM     47  O2  IDY d 142      -1.783  11.781  12.572  0.00  0.00    -0.244 OA
ATOM     48  OS1 IDY d 142      -3.117   9.717  12.415  0.00  0.00    -0.572 OA
ATOM     49  O5  IDY d 142      -3.116  14.600  12.393  0.00  0.00    -0.340 OA
ATOM     50  O1  IDY d 142      -1.731  14.550  10.334  0.00  0.00    -0.363 OA
ATOM     51  C7  IDY d 142      -2.785  15.654  10.195  0.00  0.00     0.007 C 
ATOM     52  OS3 IDY d 142      -3.058  11.199  10.482  0.00  0.00    -0.572 OA
ATOM     53  C4  IDY d 142      -1.215  14.713  14.001  0.00  0.00     0.103 C 
ATOM     54  H   IDY d 142      -3.221  13.179  11.082  0.00  0.00     0.133 H 
ATOM     55  H   IDY d 142      -0.725  13.204  13.747  0.00  0.00     0.091 H 
ATOM     56  H   IDY d 142       0.966  14.785  11.885  0.00  0.00     0.210 HD
ATOM     57  H   IDY d 142      -0.534  12.689  11.244  0.00  0.00     0.097 H 
ATOM     58  H   IDY d 142      -2.061  16.283  12.849  0.00  0.00     0.104 H 
ATOM     59  H   IDY d 142      -2.482  16.341   9.433  0.00  0.00     0.066 H 
ATOM     60  H   IDY d 142      -2.881  16.174  11.126  0.00  0.00     0.066 H 
ATOM     61  H   IDY d 142      -3.725  15.219   9.931  0.00  0.00     0.066 H 
ATOM     62  H   IDY d 142      -0.974  15.605  14.539  0.00  0.00     0.092 H 
ENDROOT
TORSDOF 19
ENDMDL
MODEL 72
REMARK VINA RESULT:      -5.6      3.209      6.483
REMARK  0 active torsions:
REMARK  status: ('A' for Active; 'I' for Inactive)
REMARK       I    between atoms: O3_1  and  C3_8 
REMARK       I    between atoms: O3_1  and  S3_11 
REMARK       I    between atoms: C1_2  and  O1_36 
REMARK       I    between atoms: C6_3  and  C5_27 
REMARK       I    between atoms: C6_3  and  O6_25 
REMARK       I    between atoms: O3S_4  and  S1_32 
REMARK       I    between atoms: C3_5  and  O3_9 
REMARK       I    between atoms: N_6  and  S1_32 
REMARK       I    between atoms: N_6  and  C2_39 
REMARK       I    between atoms: S_7  and  O2_30 
REMARK       I    between atoms: O4_12  and  C1_29 
REMARK       I    between atoms: O4_12  and  C4_40 
REMARK       I    between atoms: O4_13  and  C4_28 
REMARK       I    between atoms: C2_14  and  O2_30 
REMARK       I    between atoms: C6_15  and  C5_23 
REMARK       I    between atoms: S2_16  and  O6_25 
REMARK       I    between atoms: O1S_22  and  S1_32 
REMARK       I    between atoms: S1_32  and  O2S_33 
REMARK       I    between atoms: O1_36  and  C7_37 
ROOT
ATOM      1  O3  SUS d 141      -3.445  12.112  14.048  0.00  0.00    -0.247 OA
ATOM      2  C6  SUS d 141      -2.504   9.900  18.314  0.00  0.00     0.067 C 
ATOM      3  O3S SUS d 141       0.418  14.975  12.855  0.00  0.00    -0.296 OA
ATOM      4  N   SUS d 141      -0.963  13.613  14.365  0.00  0.00    -0.210 NA
ATOM      5  C3  SUS d 141      -2.785  12.280  15.282  0.00  0.00     0.107 C 
ATOM      6  O6S SUS d 141      -1.209   7.121  19.804  0.00  0.00    -0.572 OA
ATOM      7  S3  SUS d 141      -4.037  13.124  13.240  0.00  0.00     0.252 S 
ATOM      8  O4  SUS d 141      -4.470  11.203  16.603  0.00  0.00    -0.390 OA
ATOM      9  S2  SUS d 141      -1.397   7.580  18.431  0.00  0.00     0.251 S 
ATOM     10  O5  SUS d 141      -0.873  11.101  17.034  0.00  0.00    -0.349 OA
ATOM     11  O8S SUS d 141      -3.676  14.519  13.338  0.00  0.00    -0.572 OA
ATOM     12  O4S SUS d 141      -2.709   7.218  17.901  0.00  0.00    -0.572 OA
ATOM     13  O1S SUS d 141       1.111  12.721  13.394  0.00  0.00    -0.296 OA
ATOM     14  O7S SUS d 141      -5.452  13.033  13.491  0.00  0.00    -0.572 OA
ATOM     15  O6  SUS d 141      -1.326   9.139  18.453  0.00  0.00    -0.254 OA
ATOM     16  C5  SUS d 141      -2.224  11.112  17.435  0.00  0.00     0.090 C 
ATOM     17  C4  SUS d 141      -3.121  11.112  16.202  0.00  0.00     0.090 C 
ATOM     18  C1  SUS d 141      -0.515  12.286  16.359  0.00  0.00     0.150 C 
ATOM     19  O9S SUS d 141      -3.846  12.647  11.887  0.00  0.00    -0.572 OA
ATOM     20  S1  SUS d 141      -0.013  13.598  13.078  0.00  0.00     0.156 S 
ATOM     21  O2S SUS d 141      -0.817  13.093  11.969  0.00  0.00    -0.296 OA
ATOM     22  C2  SUS d 141      -1.282  12.373  15.045  0.00  0.00     0.083 C 
ATOM     23  O5S SUS d 141      -0.336   7.114  17.543  0.00  0.00    -0.572 OA
ATOM     24  H   SUS d 141      -3.266   9.299  17.862  0.00  0.00     0.080 H 
ATOM     25  H   SUS d 141      -2.832  10.227  19.278  0.00  0.00     0.080 H 
ATOM     26  H   SUS d 141       0.948  15.274  13.611  0.00  0.00     0.231 HD
ATOM     27  H   SUS d 141      -1.849  14.025  14.072  0.00  0.00     0.140 HD
ATOM     28  H   SUS d 141      -3.111  13.186  15.750  0.00  0.00     0.092 H 
ATOM     29  H   SUS d 141      -5.041  11.203  15.819  0.00  0.00     0.210 HD
ATOM     30  H   SUS d 141       1.615  13.094  14.133  0.00  0.00     0.231 HD
ATOM     31  H   SUS d 141      -2.430  11.995  18.004  0.00  0.00     0.090 H 
ATOM     32  H   SUS d 141      -2.957  10.201  15.665  0.00  0.00     0.091 H 
ATOM     33  H   SUS d 141       0.536  12.280  16.160  0.00  0.00     0.131 H 
ATOM     34  H   SUS d 141      -1.550  13.704  11.795  0.00  0.00     0.231 HD
ATOM     35  H   SUS d 141      -0.988  11.548  14.431  0.00  0.00     0.076 H 
ATOM     36  C1  IDY d 142      -0.528  17.071  18.210  0.00  0.00     0.160 C 
ATOM     37  C3  IDY d 142       0.545  14.946  17.821  0.00  0.00     0.094 C 
ATOM     38  S   IDY d 142      -0.907  17.332  15.102  0.00  0.00     0.252 S 
ATOM     39  O3  IDY d 142       2.019  14.629  17.846  0.00  0.00    -0.390 OA
ATOM     40  O4  IDY d 142      -0.835  13.399  17.164  0.00  0.00    -0.348 OA
ATOM     41  C2  IDY d 142       0.185  16.238  17.170  0.00  0.00     0.134 C 
ATOM     42  C6  IDY d 142      -2.391  14.341  20.071  0.00  0.00     0.206 C 
ATOM     43  O61 IDY d 142      -3.464  14.415  19.378  0.00  0.00    -0.646 OA
ATOM     44  O62 IDY d 142      -2.457  13.687  21.223  0.00  0.00    -0.646 OA
ATOM     45  C5  IDY d 142      -1.121  15.045  19.633  0.00  0.00     0.152 C 
ATOM     46  OS2 IDY d 142       0.287  17.497  14.250  0.00  0.00    -0.572 OA
ATOM     47  O2  IDY d 142      -0.703  16.104  16.027  0.00  0.00    -0.244 OA
ATOM     48  OS1 IDY d 142      -2.115  17.095  14.270  0.00  0.00    -0.572 OA
ATOM     49  O5  IDY d 142      -1.458  16.338  19.049  0.00  0.00    -0.340 OA
ATOM     50  O1  IDY d 142       0.632  17.673  18.932  0.00  0.00    -0.363 OA
ATOM     51  C7  IDY d 142      -0.114  18.034  20.220  0.00  0.00     0.007 C 
ATOM     52  OS3 IDY d 142      -1.070  18.590  15.887  0.00  0.00    -0.572 OA
ATOM     53  C4  IDY d 142      -0.389  14.120  18.659  0.00  0.00     0.103 C 
ATOM     54  H   IDY d 142      -1.201  17.794  17.799  0.00  0.00     0.133 H 
ATOM     55  H   IDY d 142      -0.044  14.399  17.115  0.00  0.00     0.091 H 
ATOM     56  H   IDY d 142       2.457  15.176  18.518  0.00  0.00     0.210 HD
ATOM     57  H   IDY d 142       1.090  16.677  16.805  0.00  0.00     0.097 H 
ATOM     58  H   IDY d 142      -0.470  15.245  20.458  0.00  0.00     0.104 H 
ATOM     59  H   IDY d 142       0.563  18.498  20.906  0.00  0.00     0.066 H 
ATOM     60  H   IDY d 142      -0.515  17.145  20.661  0.00  0.00     0.066 H 
ATOM     61  H   IDY d 142      -0.911  18.710  19.993  0.00  0.00     0.066 H 
ATOM     62  H   IDY d 142      -0.275  13.396  19.438  0.00  0.00     0.092 H 
ENDROOT
TORSDOF 19
ENDMDL
MODEL 73
REMARK VINA RESULT:      -5.5      2.840      4.547
REMARK  0 active torsions:
REMARK  status: ('A' for Active; 'I' for Inactive)
REMARK       I    between atoms: O3_1  and  C3_8 
REMARK       I    between atoms: O3_1  and  S3_11 
REMARK       I    between atoms: C1_2  and  O1_36 
REMARK       I    between atoms: C6_3  and  C5_27 
REMARK       I    between atoms: C6_3  and  O6_25 
REMARK       I    between atoms: O3S_4  and  S1_32 
REMARK       I    between atoms: C3_5  and  O3_9 
REMARK       I    between atoms: N_6  and  S1_32 
REMARK       I    between atoms: N_6  and  C2_39 
REMARK       I    between atoms: S_7  and  O2_30 
REMARK       I    between atoms: O4_12  and  C1_29 
REMARK       I    between atoms: O4_12  and  C4_40 
REMARK       I    between atoms: O4_13  and  C4_28 
REMARK       I    between atoms: C2_14  and  O2_30 
REMARK       I    between atoms: C6_15  and  C5_23 
REMARK       I    between atoms: S2_16  and  O6_25 
REMARK       I    between atoms: O1S_22  and  S1_32 
REMARK       I    between atoms: S1_32  and  O2S_33 
REMARK       I    between atoms: O1_36  and  C7_37 
ROOT
ATOM      1  O3  SUS d 141       2.347   8.580  17.771  0.00  0.00    -0.247 OA
ATOM      2  C6  SUS d 141      -0.404  11.030  14.546  0.00  0.00     0.067 C 
ATOM      3  O3S SUS d 141       0.303   9.017  22.262  0.00  0.00    -0.296 OA
ATOM      4  N   SUS d 141       0.633   9.604  19.898  0.00  0.00    -0.210 NA
ATOM      5  C3  SUS d 141       1.515   9.708  17.630  0.00  0.00     0.107 C 
ATOM      6  O6S SUS d 141      -2.990  10.816  12.336  0.00  0.00    -0.572 OA
ATOM      7  S3  SUS d 141       3.464   8.434  18.644  0.00  0.00     0.252 S 
ATOM      8  O4  SUS d 141       2.271  10.289  15.430  0.00  0.00    -0.390 OA
ATOM      9  S2  SUS d 141      -2.303   9.892  13.234  0.00  0.00     0.251 S 
ATOM     10  O5  SUS d 141      -1.076  10.550  16.796  0.00  0.00    -0.349 OA
ATOM     11  O8S SUS d 141       3.651   9.247  19.823  0.00  0.00    -0.572 OA
ATOM     12  O4S SUS d 141      -1.142   9.270  12.605  0.00  0.00    -0.572 OA
ATOM     13  O1S SUS d 141      -1.308   8.279  20.616  0.00  0.00    -0.296 OA
ATOM     14  O7S SUS d 141       4.625   8.620  17.812  0.00  0.00    -0.572 OA
ATOM     15  O6  SUS d 141      -1.777  10.730  14.441  0.00  0.00    -0.254 OA
ATOM     16  C5  SUS d 141       0.030  10.916  16.001  0.00  0.00     0.090 C 
ATOM     17  C4  SUS d 141       1.137   9.881  16.163  0.00  0.00     0.090 C 
ATOM     18  C1  SUS d 141      -0.773  10.595  18.172  0.00  0.00     0.150 C 
ATOM     19  O9S SUS d 141       3.452   7.030  18.994  0.00  0.00    -0.572 OA
ATOM     20  S1  SUS d 141       0.105   8.488  20.916  0.00  0.00     0.156 S 
ATOM     21  O2S SUS d 141       0.906   7.291  20.678  0.00  0.00    -0.296 OA
ATOM     22  C2  SUS d 141       0.273   9.534  18.496  0.00  0.00     0.083 C 
ATOM     23  O5S SUS d 141      -3.202   8.877  13.775  0.00  0.00    -0.572 OA
ATOM     24  H   SUS d 141       0.158  10.340  13.951  0.00  0.00     0.080 H 
ATOM     25  H   SUS d 141      -0.230  12.027  14.198  0.00  0.00     0.080 H 
ATOM     26  H   SUS d 141      -0.243   9.809  22.382  0.00  0.00     0.231 HD
ATOM     27  H   SUS d 141       1.652   9.584  19.942  0.00  0.00     0.140 HD
ATOM     28  H   SUS d 141       2.033  10.588  17.952  0.00  0.00     0.092 H 
ATOM     29  H   SUS d 141       2.976   9.630  15.532  0.00  0.00     0.210 HD
ATOM     30  H   SUS d 141      -1.800   9.097  20.788  0.00  0.00     0.231 HD
ATOM     31  H   SUS d 141       0.407  11.867  16.316  0.00  0.00     0.090 H 
ATOM     32  H   SUS d 141       0.779   8.943  15.793  0.00  0.00     0.091 H 
ATOM     33  H   SUS d 141      -1.660  10.407  18.739  0.00  0.00     0.131 H 
ATOM     34  H   SUS d 141       1.835   7.475  20.889  0.00  0.00     0.231 HD
ATOM     35  H   SUS d 141      -0.150   8.574  18.287  0.00  0.00     0.076 H 
ATOM     36  C1  IDY d 142       0.600  14.687  20.946  0.00  0.00     0.160 C 
ATOM     37  C3  IDY d 142      -1.068  13.223  20.000  0.00  0.00     0.094 C 
ATOM     38  S   IDY d 142       1.817  12.187  22.409  0.00  0.00     0.252 S 
ATOM     39  O3  IDY d 142      -2.507  13.056  20.421  0.00  0.00    -0.390 OA
ATOM     40  O4  IDY d 142      -0.265  11.869  18.499  0.00  0.00    -0.348 OA
ATOM     41  C2  IDY d 142      -0.091  13.354  21.119  0.00  0.00     0.134 C 
ATOM     42  C6  IDY d 142       0.748  14.859  17.160  0.00  0.00     0.206 C 
ATOM     43  O61 IDY d 142       1.905  14.324  17.047  0.00  0.00    -0.646 OA
ATOM     44  O62 IDY d 142       0.268  15.495  16.100  0.00  0.00    -0.646 OA
ATOM     45  C5  IDY d 142      -0.003  14.839  18.477  0.00  0.00     0.152 C 
ATOM     46  OS2 IDY d 142       1.031  11.532  23.473  0.00  0.00    -0.572 OA
ATOM     47  O2  IDY d 142       0.935  12.325  21.141  0.00  0.00    -0.244 OA
ATOM     48  OS1 IDY d 142       3.010  11.373  22.062  0.00  0.00    -0.572 OA
ATOM     49  O5  IDY d 142       0.936  15.027  19.576  0.00  0.00    -0.340 OA
ATOM     50  O1  IDY d 142      -0.384  15.600  21.599  0.00  0.00    -0.363 OA
ATOM     51  C7  IDY d 142       0.094  16.896  20.937  0.00  0.00     0.007 C 
ATOM     52  OS3 IDY d 142       2.244  13.518  22.927  0.00  0.00    -0.572 OA
ATOM     53  C4  IDY d 142      -0.762  13.514  18.558  0.00  0.00     0.103 C 
ATOM     54  H   IDY d 142       1.578  14.727  21.378  0.00  0.00     0.133 H 
ATOM     55  H   IDY d 142      -0.575  12.343  19.643  0.00  0.00     0.091 H 
ATOM     56  H   IDY d 142      -2.856  13.908  20.726  0.00  0.00     0.210 HD
ATOM     57  H   IDY d 142      -0.637  13.261  22.035  0.00  0.00     0.097 H 
ATOM     58  H   IDY d 142      -0.713  15.636  18.545  0.00  0.00     0.104 H 
ATOM     59  H   IDY d 142      -0.504  17.714  21.281  0.00  0.00     0.066 H 
ATOM     60  H   IDY d 142       0.001  16.810  19.874  0.00  0.00     0.066 H 
ATOM     61  H   IDY d 142       1.118  17.071  21.191  0.00  0.00     0.066 H 
ATOM     62  H   IDY d 142      -1.336  13.793  17.700  0.00  0.00     0.092 H 
ENDROOT
TORSDOF 19
ENDMDL
MODEL 74
REMARK VINA RESULT:      -5.5      3.038      6.695
REMARK  0 active torsions:
REMARK  status: ('A' for Active; 'I' for Inactive)
REMARK       I    between atoms: O3_1  and  C3_8 
REMARK       I    between atoms: O3_1  and  S3_11 
REMARK       I    between atoms: C1_2  and  O1_36 
REMARK       I    between atoms: C6_3  and  C5_27 
REMARK       I    between atoms: C6_3  and  O6_25 
REMARK       I    between atoms: O3S_4  and  S1_32 
REMARK       I    between atoms: C3_5  and  O3_9 
REMARK       I    between atoms: N_6  and  S1_32 
REMARK       I    between atoms: N_6  and  C2_39 
REMARK       I    between atoms: S_7  and  O2_30 
REMARK       I    between atoms: O4_12  and  C1_29 
REMARK       I    between atoms: O4_12  and  C4_40 
REMARK       I    between atoms: O4_13  and  C4_28 
REMARK       I    between atoms: C2_14  and  O2_30 
REMARK       I    between atoms: C6_15  and  C5_23 
REMARK       I    between atoms: S2_16  and  O6_25 
REMARK       I    between atoms: O1S_22  and  S1_32 
REMARK       I    between atoms: S1_32  and  O2S_33 
REMARK       I    between atoms: O1_36  and  C7_37 
ROOT
ATOM      1  O3  SUS d 141       0.784  11.051  13.412  0.00  0.00    -0.247 OA
ATOM      2  C6  SUS d 141      -1.861   8.823  16.878  0.00  0.00     0.067 C 
ATOM      3  O3S SUS d 141       1.360  15.810  14.664  0.00  0.00    -0.296 OA
ATOM      4  N   SUS d 141       0.340  13.577  14.804  0.00  0.00    -0.210 NA
ATOM      5  C3  SUS d 141      -0.251  11.259  14.345  0.00  0.00     0.107 C 
ATOM      6  O6S SUS d 141      -1.743   7.049  19.786  0.00  0.00    -0.572 OA
ATOM      7  S3  SUS d 141       0.952  11.693  12.151  0.00  0.00     0.252 S 
ATOM      8  O4  SUS d 141      -1.283   9.117  14.037  0.00  0.00    -0.390 OA
ATOM      9  S2  SUS d 141      -0.761   7.637  18.879  0.00  0.00     0.251 S 
ATOM     10  O5  SUS d 141      -0.929  11.019  17.102  0.00  0.00    -0.349 OA
ATOM     11  O8S SUS d 141       0.339  12.960  11.827  0.00  0.00    -0.572 OA
ATOM     12  O4S SUS d 141      -0.391   6.726  17.800  0.00  0.00    -0.572 OA
ATOM     13  O1S SUS d 141       1.979  14.330  16.473  0.00  0.00    -0.296 OA
ATOM     14  O7S SUS d 141       0.497  10.739  11.174  0.00  0.00    -0.572 OA
ATOM     15  O6  SUS d 141      -1.432   8.882  18.219  0.00  0.00    -0.254 OA
ATOM     16  C5  SUS d 141      -1.548  10.143  16.187  0.00  0.00     0.090 C 
ATOM     17  C4  SUS d 141      -0.631   9.929  14.988  0.00  0.00     0.090 C 
ATOM     18  C1  SUS d 141      -0.769  12.313  16.566  0.00  0.00     0.150 C 
ATOM     19  O9S SUS d 141       2.388  11.770  11.987  0.00  0.00    -0.572 OA
ATOM     20  S1  SUS d 141       1.667  14.436  15.051  0.00  0.00     0.156 S 
ATOM     21  O2S SUS d 141       2.708  13.853  14.210  0.00  0.00    -0.296 OA
ATOM     22  C2  SUS d 141       0.207  12.262  15.397  0.00  0.00     0.083 C 
ATOM     23  O5S SUS d 141       0.426   8.111  19.583  0.00  0.00    -0.572 OA
ATOM     24  H   SUS d 141      -1.352   8.027  16.375  0.00  0.00     0.080 H 
ATOM     25  H   SUS d 141      -2.916   8.647  16.849  0.00  0.00     0.080 H 
ATOM     26  H   SUS d 141       0.666  16.162  15.243  0.00  0.00     0.231 HD
ATOM     27  H   SUS d 141       0.253  13.454  13.794  0.00  0.00     0.140 HD
ATOM     28  H   SUS d 141      -1.114  11.655  13.852  0.00  0.00     0.092 H 
ATOM     29  H   SUS d 141      -0.700   8.980  13.274  0.00  0.00     0.210 HD
ATOM     30  H   SUS d 141       1.263  14.728  16.992  0.00  0.00     0.231 HD
ATOM     31  H   SUS d 141      -2.466  10.568  15.839  0.00  0.00     0.090 H 
ATOM     32  H   SUS d 141       0.264   9.450  15.328  0.00  0.00     0.091 H 
ATOM     33  H   SUS d 141      -0.388  12.968  17.322  0.00  0.00     0.131 H 
ATOM     34  H   SUS d 141       2.460  13.945  13.276  0.00  0.00     0.231 HD
ATOM     35  H   SUS d 141       1.159  11.945  15.770  0.00  0.00     0.076 H 
ATOM     36  C1  IDY d 142      -4.450  15.557  15.065  0.00  0.00     0.160 C 
ATOM     37  C3  IDY d 142      -2.993  14.628  16.748  0.00  0.00     0.094 C 
ATOM     38  S   IDY d 142      -1.887  16.311  13.411  0.00  0.00     0.252 S 
ATOM     39  O3  IDY d 142      -2.595  15.232  18.073  0.00  0.00    -0.390 OA
ATOM     40  O4  IDY d 142      -2.016  12.790  16.115  0.00  0.00    -0.348 OA
ATOM     41  C2  IDY d 142      -3.037  15.583  15.604  0.00  0.00     0.134 C 
ATOM     42  C6  IDY d 142      -5.287  11.897  15.599  0.00  0.00     0.206 C 
ATOM     43  O61 IDY d 142      -4.913  11.503  14.441  0.00  0.00    -0.646 OA
ATOM     44  O62 IDY d 142      -6.038  11.066  16.308  0.00  0.00    -0.646 OA
ATOM     45  C5  IDY d 142      -4.956  13.289  16.103  0.00  0.00     0.152 C 
ATOM     46  OS2 IDY d 142      -0.975  17.344  13.941  0.00  0.00    -0.572 OA
ATOM     47  O2  IDY d 142      -2.142  15.247  14.510  0.00  0.00    -0.244 OA
ATOM     48  OS1 IDY d 142      -1.284  15.633  12.234  0.00  0.00    -0.572 OA
ATOM     49  O5  IDY d 142      -5.056  14.241  15.003  0.00  0.00    -0.340 OA
ATOM     50  O1  IDY d 142      -5.120  16.518  15.990  0.00  0.00    -0.363 OA
ATOM     51  C7  IDY d 142      -6.557  16.046  15.743  0.00  0.00     0.007 C 
ATOM     52  OS3 IDY d 142      -3.148  16.998  13.008  0.00  0.00    -0.572 OA
ATOM     53  C4  IDY d 142      -3.560  13.237  16.726  0.00  0.00     0.103 C 
ATOM     54  H   IDY d 142      -4.523  15.830  14.033  0.00  0.00     0.133 H 
ATOM     55  H   IDY d 142      -2.248  14.038  16.256  0.00  0.00     0.091 H 
ATOM     56  H   IDY d 142      -3.338  15.744  18.431  0.00  0.00     0.210 HD
ATOM     57  H   IDY d 142      -2.728  16.539  15.971  0.00  0.00     0.097 H 
ATOM     58  H   IDY d 142      -5.645  13.617  16.853  0.00  0.00     0.104 H 
ATOM     59  H   IDY d 142      -7.230  16.628  16.335  0.00  0.00     0.066 H 
ATOM     60  H   IDY d 142      -6.644  15.014  16.014  0.00  0.00     0.066 H 
ATOM     61  H   IDY d 142      -6.798  16.164  14.708  0.00  0.00     0.066 H 
ATOM     62  H   IDY d 142      -3.917  12.549  17.462  0.00  0.00     0.092 H 
ENDROOT
TORSDOF 19
ENDMDL
MODEL 75
REMARK VINA RESULT:      -5.4      2.555      6.782
REMARK  0 active torsions:
REMARK  status: ('A' for Active; 'I' for Inactive)
REMARK       I    between atoms: O3_1  and  C3_8 
REMARK       I    between atoms: O3_1  and  S3_11 
REMARK       I    between atoms: C1_2  and  O1_36 
REMARK       I    between atoms: C6_3  and  C5_27 
REMARK       I    between atoms: C6_3  and  O6_25 
REMARK       I    between atoms: O3S_4  and  S1_32 
REMARK       I    between atoms: C3_5  and  O3_9 
REMARK       I    between atoms: N_6  and  S1_32 
REMARK       I    between atoms: N_6  and  C2_39 
REMARK       I    between atoms: S_7  and  O2_30 
REMARK       I    between atoms: O4_12  and  C1_29 
REMARK       I    between atoms: O4_12  and  C4_40 
REMARK       I    between atoms: O4_13  and  C4_28 
REMARK       I    between atoms: C2_14  and  O2_30 
REMARK       I    between atoms: C6_15  and  C5_23 
REMARK       I    between atoms: S2_16  and  O6_25 
REMARK       I    between atoms: O1S_22  and  S1_32 
REMARK       I    between atoms: S1_32  and  O2S_33 
REMARK       I    between atoms: O1_36  and  C7_37 
ROOT
ATOM      1  O3  SUS d 141      -1.244  13.230  16.477  0.00  0.00    -0.247 OA
ATOM      2  C6  SUS d 141       1.278   9.678  18.713  0.00  0.00     0.067 C 
ATOM      3  O3S SUS d 141      -3.431  11.337  12.455  0.00  0.00    -0.296 OA
ATOM      4  N   SUS d 141      -1.834  11.352  14.324  0.00  0.00    -0.210 NA
ATOM      5  C3  SUS d 141      -0.504  12.054  16.240  0.00  0.00     0.107 C 
ATOM      6  O6S SUS d 141       1.175   7.240  21.092  0.00  0.00    -0.572 OA
ATOM      7  S3  SUS d 141      -1.367  14.362  15.621  0.00  0.00     0.252 S 
ATOM      8  O4  SUS d 141       1.159  12.478  17.914  0.00  0.00    -0.390 OA
ATOM      9  S2  SUS d 141       0.242   8.238  20.576  0.00  0.00     0.251 S 
ATOM     10  O5  SUS d 141      -0.293   9.302  16.943  0.00  0.00    -0.349 OA
ATOM     11  O8S SUS d 141      -1.114  14.302  14.200  0.00  0.00    -0.572 OA
ATOM     12  O4S SUS d 141       0.361   9.517  21.270  0.00  0.00    -0.572 OA
ATOM     13  O1S SUS d 141      -3.894  10.017  14.427  0.00  0.00    -0.296 OA
ATOM     14  O7S SUS d 141      -0.480  15.354  16.170  0.00  0.00    -0.572 OA
ATOM     15  O6  SUS d 141       0.617   8.489  19.083  0.00  0.00    -0.254 OA
ATOM     16  C5  SUS d 141       0.714  10.181  17.391  0.00  0.00     0.090 C 
ATOM     17  C4  SUS d 141       0.133  11.583  17.542  0.00  0.00     0.090 C 
ATOM     18  C1  SUS d 141      -0.733   9.625  15.643  0.00  0.00     0.150 C 
ATOM     19  O9S SUS d 141      -2.706  14.847  15.875  0.00  0.00    -0.572 OA
ATOM     20  S1  SUS d 141      -3.378  11.281  13.913  0.00  0.00     0.156 S 
ATOM     21  O2S SUS d 141      -4.029  12.436  14.526  0.00  0.00    -0.296 OA
ATOM     22  C2  SUS d 141      -1.423  10.983  15.664  0.00  0.00     0.083 C 
ATOM     23  O5S SUS d 141      -1.139   7.766  20.599  0.00  0.00    -0.572 OA
ATOM     24  H   SUS d 141       1.129  10.420  19.470  0.00  0.00     0.080 H 
ATOM     25  H   SUS d 141       2.324   9.485  18.603  0.00  0.00     0.080 H 
ATOM     26  H   SUS d 141      -2.991  10.557  12.085  0.00  0.00     0.231 HD
ATOM     27  H   SUS d 141      -1.534  12.316  14.178  0.00  0.00     0.140 HD
ATOM     28  H   SUS d 141       0.275  12.250  15.532  0.00  0.00     0.092 H 
ATOM     29  H   SUS d 141       0.790  13.370  18.010  0.00  0.00     0.210 HD
ATOM     30  H   SUS d 141      -3.436   9.280  13.994  0.00  0.00     0.231 HD
ATOM     31  H   SUS d 141       1.510  10.219  16.677  0.00  0.00     0.090 H 
ATOM     32  H   SUS d 141      -0.623  11.556  18.299  0.00  0.00     0.091 H 
ATOM     33  H   SUS d 141      -1.422   8.879  15.304  0.00  0.00     0.131 H 
ATOM     34  H   SUS d 141      -3.656  13.252  14.156  0.00  0.00     0.231 HD
ATOM     35  H   SUS d 141      -2.287  10.910  16.291  0.00  0.00     0.076 H 
ATOM     36  C1  IDY d 142       2.016   9.610  11.311  0.00  0.00     0.160 C 
ATOM     37  C3  IDY d 142       0.626   8.514  12.949  0.00  0.00     0.094 C 
ATOM     38  S   IDY d 142      -0.313  11.670  10.865  0.00  0.00     0.252 S 
ATOM     39  O3  IDY d 142      -0.164   7.238  12.796  0.00  0.00    -0.390 OA
ATOM     40  O4  IDY d 142       0.375   9.674  14.772  0.00  0.00    -0.348 OA
ATOM     41  C2  IDY d 142       0.588   9.428  11.772  0.00  0.00     0.134 C 
ATOM     42  C6  IDY d 142       3.799   9.542  14.658  0.00  0.00     0.206 C 
ATOM     43  O61 IDY d 142       3.774  10.806  14.849  0.00  0.00    -0.646 OA
ATOM     44  O62 IDY d 142       4.625   8.831  15.414  0.00  0.00    -0.646 OA
ATOM     45  C5  IDY d 142       2.983   8.895  13.555  0.00  0.00     0.152 C 
ATOM     46  OS2 IDY d 142      -1.572  11.201  10.253  0.00  0.00    -0.572 OA
ATOM     47  O2  IDY d 142       0.046  10.746  12.057  0.00  0.00    -0.244 OA
ATOM     48  OS1 IDY d 142      -0.465  13.057  11.377  0.00  0.00    -0.572 OA
ATOM     49  O5  IDY d 142       2.990   9.754  12.377  0.00  0.00    -0.340 OA
ATOM     50  O1  IDY d 142       2.192   8.398  10.457  0.00  0.00    -0.363 OA
ATOM     51  C7  IDY d 142       3.723   8.373  10.478  0.00  0.00     0.007 C 
ATOM     52  OS3 IDY d 142       0.736  11.633   9.805  0.00  0.00    -0.572 OA
ATOM     53  C4  IDY d 142       1.578   8.643  14.105  0.00  0.00     0.103 C 
ATOM     54  H   IDY d 142       2.190  10.530  10.793  0.00  0.00     0.133 H 
ATOM     55  H   IDY d 142       0.194   9.265  13.576  0.00  0.00     0.091 H 
ATOM     56  H   IDY d 142       0.314   6.628  12.212  0.00  0.00     0.210 HD
ATOM     57  H   IDY d 142      -0.054   8.984  11.041  0.00  0.00     0.097 H 
ATOM     58  H   IDY d 142       3.396   7.957  13.249  0.00  0.00     0.104 H 
ATOM     59  H   IDY d 142       4.074   7.544   9.900  0.00  0.00     0.066 H 
ATOM     60  H   IDY d 142       4.065   8.275  11.487  0.00  0.00     0.066 H 
ATOM     61  H   IDY d 142       4.100   9.284  10.061  0.00  0.00     0.066 H 
ATOM     62  H   IDY d 142       1.986   7.976  14.834  0.00  0.00     0.092 H 
ENDROOT
TORSDOF 19
ENDMDL
MODEL 76
REMARK VINA RESULT:      -5.4      2.497      3.932
REMARK  0 active torsions:
REMARK  status: ('A' for Active; 'I' for Inactive)
REMARK       I    between atoms: O3_1  and  C3_8 
REMARK       I    between atoms: O3_1  and  S3_11 
REMARK       I    between atoms: C1_2  and  O1_36 
REMARK       I    between atoms: C6_3  and  C5_27 
REMARK       I    between atoms: C6_3  and  O6_25 
REMARK       I    between atoms: O3S_4  and  S1_32 
REMARK       I    between atoms: C3_5  and  O3_9 
REMARK       I    between atoms: N_6  and  S1_32 
REMARK       I    between atoms: N_6  and  C2_39 
REMARK       I    between atoms: S_7  and  O2_30 
REMARK       I    between atoms: O4_12  and  C1_29 
REMARK       I    between atoms: O4_12  and  C4_40 
REMARK       I    between atoms: O4_13  and  C4_28 
REMARK       I    between atoms: C2_14  and  O2_30 
REMARK       I    between atoms: C6_15  and  C5_23 
REMARK       I    between atoms: S2_16  and  O6_25 
REMARK       I    between atoms: O1S_22  and  S1_32 
REMARK       I    between atoms: S1_32  and  O2S_33 
REMARK       I    between atoms: O1_36  and  C7_37 
ROOT
ATOM      1  O3  SUS d 141      -1.283   8.760  16.758  0.00  0.00    -0.247 OA
ATOM      2  C6  SUS d 141      -0.398  11.198  12.606  0.00  0.00     0.067 C 
ATOM      3  O3S SUS d 141      -2.139  12.037  20.374  0.00  0.00    -0.296 OA
ATOM      4  N   SUS d 141      -1.357  11.320  18.156  0.00  0.00    -0.210 NA
ATOM      5  C3  SUS d 141      -0.720   9.947  16.248  0.00  0.00     0.107 C 
ATOM      6  O6S SUS d 141      -1.777  12.513   9.779  0.00  0.00    -0.572 OA
ATOM      7  S3  SUS d 141      -0.890   8.051  17.930  0.00  0.00     0.252 S 
ATOM      8  O4  SUS d 141       0.263   8.931  14.312  0.00  0.00    -0.390 OA
ATOM      9  S2  SUS d 141      -2.272  11.780  10.942  0.00  0.00     0.251 S 
ATOM     10  O5  SUS d 141      -1.253  12.210  14.602  0.00  0.00    -0.349 OA
ATOM     11  O8S SUS d 141      -0.149   8.664  19.007  0.00  0.00    -0.572 OA
ATOM     12  O4S SUS d 141      -2.198  10.334  10.756  0.00  0.00    -0.572 OA
ATOM     13  O1S SUS d 141      -3.508  12.476  18.430  0.00  0.00    -0.296 OA
ATOM     14  O7S SUS d 141      -0.109   6.937  17.457  0.00  0.00    -0.572 OA
ATOM     15  O6  SUS d 141      -1.341  12.137  12.141  0.00  0.00    -0.254 OA
ATOM     16  C5  SUS d 141      -0.346  11.242  14.127  0.00  0.00     0.090 C 
ATOM     17  C4  SUS d 141      -0.692   9.883  14.725  0.00  0.00     0.090 C 
ATOM     18  C1  SUS d 141      -1.126  12.413  15.991  0.00  0.00     0.150 C 
ATOM     19  O9S SUS d 141      -2.125   7.483  18.425  0.00  0.00    -0.572 OA
ATOM     20  S1  SUS d 141      -2.633  11.520  19.101  0.00  0.00     0.156 S 
ATOM     21  O2S SUS d 141      -3.255  10.207  19.251  0.00  0.00    -0.296 OA
ATOM     22  C2  SUS d 141      -1.533  11.143  16.729  0.00  0.00     0.083 C 
ATOM     23  O5S SUS d 141      -3.625  12.184  11.313  0.00  0.00    -0.572 OA
ATOM     24  H   SUS d 141      -0.684  10.218  12.286  0.00  0.00     0.080 H 
ATOM     25  H   SUS d 141       0.567  11.436  12.209  0.00  0.00     0.080 H 
ATOM     26  H   SUS d 141      -1.734  12.907  20.235  0.00  0.00     0.231 HD
ATOM     27  H   SUS d 141      -0.865  10.494  18.498  0.00  0.00     0.140 HD
ATOM     28  H   SUS d 141       0.285  10.056  16.601  0.00  0.00     0.092 H 
ATOM     29  H   SUS d 141       0.043   8.066  14.692  0.00  0.00     0.210 HD
ATOM     30  H   SUS d 141      -3.056  13.330  18.353  0.00  0.00     0.231 HD
ATOM     31  H   SUS d 141       0.650  11.498  14.423  0.00  0.00     0.090 H 
ATOM     32  H   SUS d 141      -1.665   9.600  14.381  0.00  0.00     0.091 H 
ATOM     33  H   SUS d 141      -1.760  13.220  16.294  0.00  0.00     0.131 H 
ATOM     34  H   SUS d 141      -2.639   9.606  19.700  0.00  0.00     0.231 HD
ATOM     35  H   SUS d 141      -2.565  10.952  16.521  0.00  0.00     0.076 H 
ATOM     36  C1  IDY d 142       2.969  14.161  18.540  0.00  0.00     0.160 C 
ATOM     37  C3  IDY d 142       0.911  14.509  17.330  0.00  0.00     0.094 C 
ATOM     38  S   IDY d 142       1.352  12.401  20.580  0.00  0.00     0.252 S 
ATOM     39  O3  IDY d 142       0.026  15.730  17.330  0.00  0.00    -0.390 OA
ATOM     40  O4  IDY d 142       0.214  12.725  16.299  0.00  0.00    -0.348 OA
ATOM     41  C2  IDY d 142       1.463  14.125  18.662  0.00  0.00     0.134 C 
ATOM     42  C6  IDY d 142       3.367  12.947  14.970  0.00  0.00     0.206 C 
ATOM     43  O61 IDY d 142       3.490  11.708  15.262  0.00  0.00    -0.646 OA
ATOM     44  O62 IDY d 142       3.725  13.320  13.748  0.00  0.00    -0.646 OA
ATOM     45  C5  IDY d 142       2.912  13.959  16.003  0.00  0.00     0.152 C 
ATOM     46  OS2 IDY d 142       0.343  13.052  21.439  0.00  0.00    -0.572 OA
ATOM     47  O2  IDY d 142       1.087  12.792  19.103  0.00  0.00    -0.244 OA
ATOM     48  OS1 IDY d 142       1.263  10.922  20.695  0.00  0.00    -0.572 OA
ATOM     49  O5  IDY d 142       3.495  13.628  17.298  0.00  0.00    -0.340 OA
ATOM     50  O1  IDY d 142       3.234  15.613  18.766  0.00  0.00    -0.363 OA
ATOM     51  C7  IDY d 142       4.624  15.652  18.123  0.00  0.00     0.007 C 
ATOM     52  OS3 IDY d 142       2.692  12.866  21.039  0.00  0.00    -0.572 OA
ATOM     53  C4  IDY d 142       1.382  13.954  16.016  0.00  0.00     0.103 C 
ATOM     54  H   IDY d 142       3.474  13.519  19.231  0.00  0.00     0.133 H 
ATOM     55  H   IDY d 142       0.415  13.566  17.239  0.00  0.00     0.091 H 
ATOM     56  H   IDY d 142       0.573  16.527  17.417  0.00  0.00     0.210 HD
ATOM     57  H   IDY d 142       1.066  14.810  19.382  0.00  0.00     0.097 H 
ATOM     58  H   IDY d 142       3.241  14.949  15.766  0.00  0.00     0.104 H 
ATOM     59  H   IDY d 142       5.015  16.647  18.179  0.00  0.00     0.066 H 
ATOM     60  H   IDY d 142       4.552  15.355  17.098  0.00  0.00     0.066 H 
ATOM     61  H   IDY d 142       5.277  14.983  18.643  0.00  0.00     0.066 H 
ATOM     62  H   IDY d 142       1.376  14.290  15.001  0.00  0.00     0.092 H 
ENDROOT
TORSDOF 19
ENDMDL
MODEL 77
REMARK VINA RESULT:      -5.3      3.347      6.157
REMARK  0 active torsions:
REMARK  status: ('A' for Active; 'I' for Inactive)
REMARK       I    between atoms: O3_1  and  C3_8 
REMARK       I    between atoms: O3_1  and  S3_11 
REMARK       I    between atoms: C1_2  and  O1_36 
REMARK       I    between atoms: C6_3  and  C5_27 
REMARK       I    between atoms: C6_3  and  O6_25 
REMARK       I    between atoms: O3S_4  and  S1_32 
REMARK       I    between atoms: C3_5  and  O3_9 
REMARK       I    between atoms: N_6  and  S1_32 
REMARK       I    between atoms: N_6  and  C2_39 
REMARK       I    between atoms: S_7  and  O2_30 
REMARK       I    between atoms: O4_12  and  C1_29 
REMARK       I    between atoms: O4_12  and  C4_40 
REMARK       I    between atoms: O4_13  and  C4_28 
REMARK       I    between atoms: C2_14  and  O2_30 
REMARK       I    between atoms: C6_15  and  C5_23 
REMARK       I    between atoms: S2_16  and  O6_25 
REMARK       I    between atoms: O1S_22  and  S1_32 
REMARK       I    between atoms: S1_32  and  O2S_33 
REMARK       I    between atoms: O1_36  and  C7_37 
ROOT
ATOM      1  O3  SUS d 141      -1.462  11.046  11.577  0.00  0.00    -0.247 OA
ATOM      2  C6  SUS d 141       0.250   8.871  15.615  0.00  0.00     0.067 C 
ATOM      3  O3S SUS d 141      -1.491  15.947  12.301  0.00  0.00    -0.296 OA
ATOM      4  N   SUS d 141      -1.361  13.593  12.997  0.00  0.00    -0.210 NA
ATOM      5  C3  SUS d 141      -1.414  11.157  12.981  0.00  0.00     0.107 C 
ATOM      6  O6S SUS d 141       3.028   7.687  17.198  0.00  0.00    -0.572 OA
ATOM      7  S3  SUS d 141      -2.502  11.489  10.710  0.00  0.00     0.252 S 
ATOM      8  O4  SUS d 141      -1.658   8.812  13.414  0.00  0.00    -0.390 OA
ATOM      9  S2  SUS d 141       2.748   8.330  15.916  0.00  0.00     0.251 S 
ATOM     10  O5  SUS d 141       0.358  11.230  15.211  0.00  0.00    -0.349 OA
ATOM     11  O8S SUS d 141      -3.459  12.504  11.086  0.00  0.00    -0.572 OA
ATOM     12  O4S SUS d 141       2.395   7.364  14.879  0.00  0.00    -0.572 OA
ATOM     13  O1S SUS d 141       0.661  14.980  12.832  0.00  0.00    -0.296 OA
ATOM     14  O7S SUS d 141      -3.249  10.305  10.374  0.00  0.00    -0.572 OA
ATOM     15  O6  SUS d 141       1.507   9.252  16.126  0.00  0.00    -0.254 OA
ATOM     16  C5  SUS d 141      -0.459  10.093  15.048  0.00  0.00     0.090 C 
ATOM     17  C4  SUS d 141      -0.777   9.903  13.569  0.00  0.00     0.090 C 
ATOM     18  C1  SUS d 141      -0.317  12.417  14.858  0.00  0.00     0.150 C 
ATOM     19  O9S SUS d 141      -1.808  11.874   9.500  0.00  0.00    -0.572 OA
ATOM     20  S1  SUS d 141      -0.635  14.769  12.193  0.00  0.00     0.156 S 
ATOM     21  O2S SUS d 141      -0.505  14.316  10.811  0.00  0.00    -0.296 OA
ATOM     22  C2  SUS d 141      -0.622  12.402  13.365  0.00  0.00     0.083 C 
ATOM     23  O5S SUS d 141       3.848   9.181  15.474  0.00  0.00    -0.572 OA
ATOM     24  H   SUS d 141       0.386   8.144  14.840  0.00  0.00     0.080 H 
ATOM     25  H   SUS d 141      -0.340   8.448  16.401  0.00  0.00     0.080 H 
ATOM     26  H   SUS d 141      -1.553  16.218  13.231  0.00  0.00     0.231 HD
ATOM     27  H   SUS d 141      -2.148  13.286  12.424  0.00  0.00     0.140 HD
ATOM     28  H   SUS d 141      -2.404  11.251  13.374  0.00  0.00     0.092 H 
ATOM     29  H   SUS d 141      -1.861   8.691  12.473  0.00  0.00     0.210 HD
ATOM     30  H   SUS d 141       0.527  15.279  13.745  0.00  0.00     0.231 HD
ATOM     31  H   SUS d 141      -1.380  10.224  15.578  0.00  0.00     0.090 H 
ATOM     32  H   SUS d 141       0.138   9.713  13.048  0.00  0.00     0.091 H 
ATOM     33  H   SUS d 141       0.301  13.260  15.088  0.00  0.00     0.131 H 
ATOM     34  H   SUS d 141      -1.387  14.190  10.428  0.00  0.00     0.231 HD
ATOM     35  H   SUS d 141       0.307  12.385  12.834  0.00  0.00     0.076 H 
ATOM     36  C1  IDY d 142      -4.514  14.403  17.040  0.00  0.00     0.160 C 
ATOM     37  C3  IDY d 142      -2.121  14.139  16.886  0.00  0.00     0.094 C 
ATOM     38  S   IDY d 142      -4.484  15.452  14.078  0.00  0.00     0.252 S 
ATOM     39  O3  IDY d 142      -1.047  15.032  17.455  0.00  0.00    -0.390 OA
ATOM     40  O4  IDY d 142      -1.523  12.504  15.582  0.00  0.00    -0.348 OA
ATOM     41  C2  IDY d 142      -3.284  14.851  16.283  0.00  0.00     0.134 C 
ATOM     42  C6  IDY d 142      -3.581  10.792  17.725  0.00  0.00     0.206 C 
ATOM     43  O61 IDY d 142      -4.136  10.309  16.678  0.00  0.00    -0.646 OA
ATOM     44  O62 IDY d 142      -3.250   9.938  18.683  0.00  0.00    -0.646 OA
ATOM     45  C5  IDY d 142      -3.389  12.286  17.897  0.00  0.00     0.152 C 
ATOM     46  OS2 IDY d 142      -3.833  16.744  13.786  0.00  0.00    -0.572 OA
ATOM     47  O2  IDY d 142      -3.501  14.558  14.876  0.00  0.00    -0.244 OA
ATOM     48  OS1 IDY d 142      -4.840  14.748  12.819  0.00  0.00    -0.572 OA
ATOM     49  O5  IDY d 142      -4.551  12.990  17.365  0.00  0.00    -0.340 OA
ATOM     50  O1  IDY d 142      -4.468  15.320  18.217  0.00  0.00    -0.363 OA
ATOM     51  C7  IDY d 142      -5.365  14.488  19.139  0.00  0.00     0.007 C 
ATOM     52  OS3 IDY d 142      -5.720  15.744  14.861  0.00  0.00    -0.572 OA
ATOM     53  C4  IDY d 142      -2.084  12.670  17.199  0.00  0.00     0.103 C 
ATOM     54  H   IDY d 142      -5.419  14.474  16.474  0.00  0.00     0.133 H 
ATOM     55  H   IDY d 142      -1.896  13.667  15.953  0.00  0.00     0.091 H 
ATOM     56  H   IDY d 142      -1.350  15.407  18.297  0.00  0.00     0.210 HD
ATOM     57  H   IDY d 142      -3.088  15.901  16.351  0.00  0.00     0.097 H 
ATOM     58  H   IDY d 142      -3.313  12.564  18.927  0.00  0.00     0.104 H 
ATOM     59  H   IDY d 142      -5.470  14.986  20.079  0.00  0.00     0.066 H 
ATOM     60  H   IDY d 142      -4.924  13.525  19.292  0.00  0.00     0.066 H 
ATOM     61  H   IDY d 142      -6.328  14.371  18.688  0.00  0.00     0.066 H 
ATOM     62  H   IDY d 142      -1.541  12.050  17.880  0.00  0.00     0.092 H 
ENDROOT
TORSDOF 19
ENDMDL
MODEL 78
REMARK VINA RESULT:      -4.4      2.819      5.676
REMARK  0 active torsions:
REMARK  status: ('A' for Active; 'I' for Inactive)
REMARK       I    between atoms: O3_1  and  C3_8 
REMARK       I    between atoms: O3_1  and  S3_11 
REMARK       I    between atoms: C1_2  and  O1_36 
REMARK       I    between atoms: C6_3  and  C5_27 
REMARK       I    between atoms: C6_3  and  O6_25 
REMARK       I    between atoms: O3S_4  and  S1_32 
REMARK       I    between atoms: C3_5  and  O3_9 
REMARK       I    between atoms: N_6  and  S1_32 
REMARK       I    between atoms: N_6  and  C2_39 
REMARK       I    between atoms: S_7  and  O2_30 
REMARK       I    between atoms: O4_12  and  C1_29 
REMARK       I    between atoms: O4_12  and  C4_40 
REMARK       I    between atoms: O4_13  and  C4_28 
REMARK       I    between atoms: C2_14  and  O2_30 
REMARK       I    between atoms: C6_15  and  C5_23 
REMARK       I    between atoms: S2_16  and  O6_25 
REMARK       I    between atoms: O1S_22  and  S1_32 
REMARK       I    between atoms: S1_32  and  O2S_33 
REMARK       I    between atoms: O1_36  and  C7_37 
ROOT
ATOM      1  O3  SUS d 141       0.038   9.255  19.219  0.00  0.00    -0.247 OA
ATOM      2  C6  SUS d 141       1.352  13.759  20.620  0.00  0.00     0.067 C 
ATOM      3  O3S SUS d 141      -1.618   9.460  14.555  0.00  0.00    -0.296 OA
ATOM      4  N   SUS d 141      -0.954  10.401  16.726  0.00  0.00    -0.210 NA
ATOM      5  C3  SUS d 141      -0.271  10.620  19.055  0.00  0.00     0.107 C 
ATOM      6  O6S SUS d 141       3.918  15.993  20.822  0.00  0.00    -0.572 OA
ATOM      7  S3  SUS d 141      -0.861   8.151  19.153  0.00  0.00     0.252 S 
ATOM      8  O4  SUS d 141       0.103  11.227  21.343  0.00  0.00    -0.390 OA
ATOM      9  S2  SUS d 141       3.759  14.623  20.341  0.00  0.00     0.251 S 
ATOM     10  O5  SUS d 141       0.839  13.150  18.360  0.00  0.00    -0.349 OA
ATOM     11  O8S SUS d 141      -2.137   8.217  18.478  0.00  0.00    -0.572 OA
ATOM     12  O4S SUS d 141       3.957  13.639  21.400  0.00  0.00    -0.572 OA
ATOM     13  O1S SUS d 141       0.543  10.519  14.781  0.00  0.00    -0.296 OA
ATOM     14  O7S SUS d 141      -1.123   7.789  20.521  0.00  0.00    -0.572 OA
ATOM     15  O6  SUS d 141       2.286  14.477  19.847  0.00  0.00    -0.254 OA
ATOM     16  C5  SUS d 141       0.459  12.936  19.701  0.00  0.00     0.090 C 
ATOM     17  C4  SUS d 141       0.559  11.450  20.027  0.00  0.00     0.090 C 
ATOM     18  C1  SUS d 141      -0.059  12.547  17.456  0.00  0.00     0.150 C 
ATOM     19  O9S SUS d 141      -0.057   7.079  18.608  0.00  0.00    -0.572 OA
ATOM     20  S1  SUS d 141      -0.449   9.651  15.407  0.00  0.00     0.156 S 
ATOM     21  O2S SUS d 141       0.122   8.378  15.841  0.00  0.00    -0.296 OA
ATOM     22  C2  SUS d 141       0.003  11.032  17.613  0.00  0.00     0.083 C 
ATOM     23  O5S SUS d 141       4.625  14.335  19.201  0.00  0.00    -0.572 OA
ATOM     24  H   SUS d 141       1.871  13.106  21.291  0.00  0.00     0.080 H 
ATOM     25  H   SUS d 141       0.752  14.444  21.181  0.00  0.00     0.080 H 
ATOM     26  H   SUS d 141      -1.969  10.324  14.288  0.00  0.00     0.231 HD
ATOM     27  H   SUS d 141      -1.460   9.711  17.282  0.00  0.00     0.140 HD
ATOM     28  H   SUS d 141      -1.307  10.788  19.264  0.00  0.00     0.092 H 
ATOM     29  H   SUS d 141       0.167  10.282  21.551  0.00  0.00     0.210 HD
ATOM     30  H   SUS d 141       0.122  11.350  14.511  0.00  0.00     0.231 HD
ATOM     31  H   SUS d 141      -0.554  13.248  19.847  0.00  0.00     0.090 H 
ATOM     32  H   SUS d 141       1.583  11.152  19.937  0.00  0.00     0.091 H 
ATOM     33  H   SUS d 141       0.209  12.814  16.455  0.00  0.00     0.131 H 
ATOM     34  H   SUS d 141      -0.570   7.835  16.249  0.00  0.00     0.231 HD
ATOM     35  H   SUS d 141       0.990  10.709  17.354  0.00  0.00     0.076 H 
ATOM     36  C1  IDY d 142      -5.040  13.600  16.818  0.00  0.00     0.160 C 
ATOM     37  C3  IDY d 142      -2.709  13.973  16.323  0.00  0.00     0.094 C 
ATOM     38  S   IDY d 142      -4.650  10.618  15.907  0.00  0.00     0.252 S 
ATOM     39  O3  IDY d 142      -2.110  14.659  15.121  0.00  0.00    -0.390 OA
ATOM     40  O4  IDY d 142      -1.369  12.993  17.729  0.00  0.00    -0.348 OA
ATOM     41  C2  IDY d 142      -3.862  13.073  16.031  0.00  0.00     0.134 C 
ATOM     42  C6  IDY d 142      -3.253  14.824  19.932  0.00  0.00     0.206 C 
ATOM     43  O61 IDY d 142      -3.384  13.739  20.597  0.00  0.00    -0.646 OA
ATOM     44  O62 IDY d 142      -2.910  15.912  20.608  0.00  0.00    -0.646 OA
ATOM     45  C5  IDY d 142      -3.561  14.881  18.448  0.00  0.00     0.152 C 
ATOM     46  OS2 IDY d 142      -4.366  10.339  14.486  0.00  0.00    -0.572 OA
ATOM     47  O2  IDY d 142      -3.653  11.689  16.422  0.00  0.00    -0.244 OA
ATOM     48  OS1 IDY d 142      -4.482   9.390  16.727  0.00  0.00    -0.572 OA
ATOM     49  O5  IDY d 142      -4.726  14.051  18.161  0.00  0.00    -0.340 OA
ATOM     50  O1  IDY d 142      -5.540  14.663  15.897  0.00  0.00    -0.363 OA
ATOM     51  C7  IDY d 142      -6.333  15.458  16.939  0.00  0.00     0.007 C 
ATOM     52  OS3 IDY d 142      -6.061  11.095  15.992  0.00  0.00    -0.572 OA
ATOM     53  C4  IDY d 142      -2.307  14.433  17.696  0.00  0.00     0.103 C 
ATOM     54  H   IDY d 142      -5.771  12.855  17.053  0.00  0.00     0.133 H 
ATOM     55  H   IDY d 142      -2.146  13.159  16.730  0.00  0.00     0.091 H 
ATOM     56  H   IDY d 142      -2.695  15.378  14.834  0.00  0.00     0.210 HD
ATOM     57  H   IDY d 142      -4.009  13.074  14.972  0.00  0.00     0.097 H 
ATOM     58  H   IDY d 142      -3.808  15.871  18.128  0.00  0.00     0.104 H 
ATOM     59  H   IDY d 142      -6.793  16.301  16.469  0.00  0.00     0.066 H 
ATOM     60  H   IDY d 142      -5.672  15.795  17.709  0.00  0.00     0.066 H 
ATOM     61  H   IDY d 142      -7.088  14.832  17.366  0.00  0.00     0.066 H 
ATOM     62  H   IDY d 142      -1.774  15.271  18.093  0.00  0.00     0.092 H 
ENDROOT
TORSDOF 19
ENDMDL
MODEL 79
REMARK VINA RESULT:      -1.7      2.876      6.744
REMARK  0 active torsions:
REMARK  status: ('A' for Active; 'I' for Inactive)
REMARK       I    between atoms: O3_1  and  C3_8 
REMARK       I    between atoms: O3_1  and  S3_11 
REMARK       I    between atoms: C1_2  and  O1_36 
REMARK       I    between atoms: C6_3  and  C5_27 
REMARK       I    between atoms: C6_3  and  O6_25 
REMARK       I    between atoms: O3S_4  and  S1_32 
REMARK       I    between atoms: C3_5  and  O3_9 
REMARK       I    between atoms: N_6  and  S1_32 
REMARK       I    between atoms: N_6  and  C2_39 
REMARK       I    between atoms: S_7  and  O2_30 
REMARK       I    between atoms: O4_12  and  C1_29 
REMARK       I    between atoms: O4_12  and  C4_40 
REMARK       I    between atoms: O4_13  and  C4_28 
REMARK       I    between atoms: C2_14  and  O2_30 
REMARK       I    between atoms: C6_15  and  C5_23 
REMARK       I    between atoms: S2_16  and  O6_25 
REMARK       I    between atoms: O1S_22  and  S1_32 
REMARK       I    between atoms: S1_32  and  O2S_33 
REMARK       I    between atoms: O1_36  and  C7_37 
ROOT
ATOM      1  O3  SUS d 141      -4.953  12.929  15.194  0.00  0.00    -0.247 OA
ATOM      2  C6  SUS d 141      -1.729  14.539  11.880  0.00  0.00     0.067 C 
ATOM      3  O3S SUS d 141      -2.544  11.950  19.411  0.00  0.00    -0.296 OA
ATOM      4  N   SUS d 141      -2.722  12.417  17.004  0.00  0.00    -0.210 NA
ATOM      5  C3  SUS d 141      -3.615  12.800  14.770  0.00  0.00     0.107 C 
ATOM      6  O6S SUS d 141      -0.227  17.288  10.537  0.00  0.00    -0.572 OA
ATOM      7  S3  SUS d 141      -5.767  11.929  15.801  0.00  0.00     0.252 S 
ATOM      8  O4  SUS d 141      -4.095  12.928  12.425  0.00  0.00    -0.390 OA
ATOM      9  S2  SUS d 141      -1.222  17.043  11.577  0.00  0.00     0.251 S 
ATOM     10  O5  SUS d 141      -1.240  14.270  14.210  0.00  0.00    -0.349 OA
ATOM     11  O8S SUS d 141      -5.222  10.771  16.471  0.00  0.00    -0.572 OA
ATOM     12  O4S SUS d 141      -2.579  16.985  11.041  0.00  0.00    -0.572 OA
ATOM     13  O1S SUS d 141      -2.037  14.167  18.588  0.00  0.00    -0.296 OA
ATOM     14  O7S SUS d 141      -6.625  11.447  14.750  0.00  0.00    -0.572 OA
ATOM     15  O6  SUS d 141      -0.911  15.643  12.191  0.00  0.00    -0.254 OA
ATOM     16  C5  SUS d 141      -1.935  13.692  13.128  0.00  0.00     0.090 C 
ATOM     17  C4  SUS d 141      -3.415  13.579  13.475  0.00  0.00     0.090 C 
ATOM     18  C1  SUS d 141      -1.256  13.440  15.349  0.00  0.00     0.150 C 
ATOM     19  O9S SUS d 141      -6.624  12.674  16.697  0.00  0.00    -0.572 OA
ATOM     20  S1  SUS d 141      -2.918  13.008  18.477  0.00  0.00     0.156 S 
ATOM     21  O2S SUS d 141      -4.328  13.369  18.601  0.00  0.00    -0.296 OA
ATOM     22  C2  SUS d 141      -2.684  13.310  15.864  0.00  0.00     0.083 C 
ATOM     23  O5S SUS d 141      -1.139  18.017  12.661  0.00  0.00    -0.572 OA
ATOM     24  H   SUS d 141      -2.677  14.886  11.524  0.00  0.00     0.080 H 
ATOM     25  H   SUS d 141      -1.258  13.949  11.122  0.00  0.00     0.080 H 
ATOM     26  H   SUS d 141      -1.604  11.738  19.299  0.00  0.00     0.231 HD
ATOM     27  H   SUS d 141      -3.492  11.766  16.843  0.00  0.00     0.140 HD
ATOM     28  H   SUS d 141      -3.388  11.770  14.585  0.00  0.00     0.092 H 
ATOM     29  H   SUS d 141      -5.037  12.856  12.646  0.00  0.00     0.210 HD
ATOM     30  H   SUS d 141      -1.114  13.881  18.500  0.00  0.00     0.231 HD
ATOM     31  H   SUS d 141      -1.556  12.709  12.935  0.00  0.00     0.090 H 
ATOM     32  H   SUS d 141      -3.806  14.566  13.611  0.00  0.00     0.091 H 
ATOM     33  H   SUS d 141      -0.639  13.869  16.111  0.00  0.00     0.131 H 
ATOM     34  H   SUS d 141      -4.875  12.572  18.522  0.00  0.00     0.231 HD
ATOM     35  H   SUS d 141      -3.021  14.281  16.164  0.00  0.00     0.076 H 
ATOM     36  C1  IDY d 142       0.747   8.741  15.828  0.00  0.00     0.160 C 
ATOM     37  C3  IDY d 142       0.917  11.144  15.939  0.00  0.00     0.094 C 
ATOM     38  S   IDY d 142      -1.595   8.913  17.915  0.00  0.00     0.252 S 
ATOM     39  O3  IDY d 142       1.940  11.973  16.674  0.00  0.00    -0.390 OA
ATOM     40  O4  IDY d 142      -0.763  12.164  15.006  0.00  0.00    -0.348 OA
ATOM     41  C2  IDY d 142       0.420   9.948  16.677  0.00  0.00     0.134 C 
ATOM     42  C6  IDY d 142       0.245  10.217  12.370  0.00  0.00     0.206 C 
ATOM     43  O61 IDY d 142      -0.982   9.877  12.256  0.00  0.00    -0.646 OA
ATOM     44  O62 IDY d 142       0.878  10.585  11.264  0.00  0.00    -0.646 OA
ATOM     45  C5  IDY d 142       0.969  10.120  13.700  0.00  0.00     0.152 C 
ATOM     46  OS2 IDY d 142      -1.292   9.353  19.291  0.00  0.00    -0.572 OA
ATOM     47  O2  IDY d 142      -1.014   9.945  16.914  0.00  0.00    -0.244 OA
ATOM     48  OS1 IDY d 142      -3.063   8.831  17.703  0.00  0.00    -0.572 OA
ATOM     49  O5  IDY d 142       0.535   8.919  14.404  0.00  0.00    -0.340 OA
ATOM     50  O1  IDY d 142       2.163   8.492  16.228  0.00  0.00    -0.363 OA
ATOM     51  C7  IDY d 142       2.561   7.659  15.005  0.00  0.00     0.007 C 
ATOM     52  OS3 IDY d 142      -0.980   7.566  17.734  0.00  0.00    -0.572 OA
ATOM     53  C4  IDY d 142       0.686  11.406  14.477  0.00  0.00     0.103 C 
ATOM     54  H   IDY d 142       0.099   7.906  15.995  0.00  0.00     0.133 H 
ATOM     55  H   IDY d 142      -0.071  11.552  15.887  0.00  0.00     0.091 H 
ATOM     56  H   IDY d 142       2.796  11.516  16.662  0.00  0.00     0.210 HD
ATOM     57  H   IDY d 142       0.889   9.946  17.638  0.00  0.00     0.097 H 
ATOM     58  H   IDY d 142       2.028  10.031  13.573  0.00  0.00     0.104 H 
ATOM     59  H   IDY d 142       3.586   7.364  15.092  0.00  0.00     0.066 H 
ATOM     60  H   IDY d 142       2.433   8.244  14.118  0.00  0.00     0.066 H 
ATOM     61  H   IDY d 142       1.942   6.789  14.949  0.00  0.00     0.066 H 
ATOM     62  H   IDY d 142       1.182  11.971  13.717  0.00  0.00     0.092 H 
ENDROOT
TORSDOF 19
ENDMDL
