REMARK  0 active torsions:
REMARK  status: ('A' for Active; 'I' for Inactive)
REMARK       I    between atoms: O3_1  and  C3_8 
REMARK       I    between atoms: O3_1  and  S3_11 
REMARK       I    between atoms: C1_2  and  O1_36 
REMARK       I    between atoms: C6_3  and  C5_27 
REMARK       I    between atoms: C6_3  and  O6_25 
REMARK       I    between atoms: O3S_4  and  S1_32 
REMARK       I    between atoms: C3_5  and  O3_9 
REMARK       I    between atoms: N_6  and  S1_32 
REMARK       I    between atoms: N_6  and  C2_39 
REMARK       I    between atoms: S_7  and  O2_30 
REMARK       I    between atoms: O4_12  and  C1_29 
REMARK       I    between atoms: O4_12  and  C4_40 
REMARK       I    between atoms: O4_13  and  C4_28 
REMARK       I    between atoms: C2_14  and  O2_30 
REMARK       I    between atoms: C6_15  and  C5_23 
REMARK       I    between atoms: S2_16  and  O6_25 
REMARK       I    between atoms: O1S_22  and  S1_32 
REMARK       I    between atoms: S1_32  and  O2S_33 
REMARK       I    between atoms: O1_36  and  C7_37 
ROOT
ATOM      1  O3  SUS d 141      -1.001  11.094  14.109  0.00  0.00    -0.247 OA
ATOM      2  C6  SUS d 141      -0.924  15.534  16.171  0.00  0.00     0.067 C 
ATOM      3  O3S SUS d 141      -3.385   7.977  17.133  0.00  0.00    -0.296 OA
ATOM      4  N   SUS d 141      -2.226  10.065  16.549  0.00  0.00    -0.210 NA
ATOM      5  C3  SUS d 141      -0.947  11.757  15.351  0.00  0.00     0.107 C 
ATOM      6  O6S SUS d 141      -2.527  18.531  16.431  0.00  0.00    -0.572 OA
ATOM      7  S3  SUS d 141      -0.430   9.831  13.778  0.00  0.00     0.252 S 
ATOM      8  O4  SUS d 141       0.499  13.522  14.616  0.00  0.00    -0.390 OA
ATOM      9  S2  SUS d 141      -2.752  17.284  15.705  0.00  0.00     0.251 S 
ATOM     10  O5  SUS d 141      -2.257  13.707  16.963  0.00  0.00    -0.349 OA
ATOM     11  O8S SUS d 141      -0.086   8.840  14.771  0.00  0.00    -0.572 OA
ATOM     12  O4S SUS d 141      -2.072  17.266  14.413  0.00  0.00    -0.572 OA
ATOM     13  O1S SUS d 141      -4.676   9.979  16.717  0.00  0.00    -0.296 OA
ATOM     14  O7S SUS d 141       0.773  10.136  13.048  0.00  0.00    -0.572 OA
ATOM     15  O6  SUS d 141      -2.137  16.135  16.563  0.00  0.00    -0.254 OA
ATOM     16  C5  SUS d 141      -0.999  14.033  16.416  0.00  0.00     0.090 C 
ATOM     17  C4  SUS d 141      -0.791  13.256  15.121  0.00  0.00     0.090 C 
ATOM     18  C1  SUS d 141      -2.321  12.358  17.367  0.00  0.00     0.150 C 
ATOM     19  O9S SUS d 141      -1.349   9.276  12.808  0.00  0.00    -0.572 OA
ATOM     20  S1  SUS d 141      -3.531   9.172  16.307  0.00  0.00     0.156 S 
ATOM     21  O2S SUS d 141      -3.561   8.849  14.883  0.00  0.00    -0.296 OA
ATOM     22  C2  SUS d 141      -2.214  11.456  16.143  0.00  0.00     0.083 C 
ATOM     23  O5S SUS d 141      -4.172  16.988  15.544  0.00  0.00    -0.572 OA
ATOM     24  H   SUS d 141      -0.755  15.718  15.130  0.00  0.00     0.080 H 
ATOM     25  H   SUS d 141      -0.120  15.949  16.742  0.00  0.00     0.080 H 
ATOM     26  H   SUS d 141      -3.369   8.231  18.069  0.00  0.00     0.231 HD
ATOM     27  H   SUS d 141      -1.460   9.607  16.054  0.00  0.00     0.140 HD
ATOM     28  H   SUS d 141      -0.105  11.411  15.914  0.00  0.00     0.092 H 
ATOM     29  H   SUS d 141       0.632  13.028  13.792  0.00  0.00     0.210 HD
ATOM     30  H   SUS d 141      -4.615  10.169  17.666  0.00  0.00     0.231 HD
ATOM     31  H   SUS d 141      -0.222  13.764  17.101  0.00  0.00     0.090 H 
ATOM     32  H   SUS d 141      -1.533  13.569  14.416  0.00  0.00     0.091 H 
ATOM     33  H   SUS d 141      -3.252  12.178  17.863  0.00  0.00     0.131 H 
ATOM     34  H   SUS d 141      -2.784   8.314  14.656  0.00  0.00     0.231 HD
ATOM     35  H   SUS d 141      -3.057  11.647  15.512  0.00  0.00     0.076 H 
ATOM     36  C1  IDY d 142       0.494  10.029  20.969  0.00  0.00     0.160 C 
ATOM     37  C3  IDY d 142      -1.434  11.299  20.270  0.00  0.00     0.094 C 
ATOM     38  S   IDY d 142      -0.383   7.784  18.953  0.00  0.00     0.252 S 
ATOM     39  O3  IDY d 142      -2.744  11.479  20.996  0.00  0.00    -0.390 OA
ATOM     40  O4  IDY d 142      -1.256  12.081  18.248  0.00  0.00    -0.348 OA
ATOM     41  C2  IDY d 142      -0.866   9.921  20.318  0.00  0.00     0.134 C 
ATOM     42  C6  IDY d 142       1.604  13.392  19.612  0.00  0.00     0.206 C 
ATOM     43  O61 IDY d 142       2.210  12.929  18.585  0.00  0.00    -0.646 OA
ATOM     44  O62 IDY d 142       1.858  14.649  19.950  0.00  0.00    -0.646 OA
ATOM     45  C5  IDY d 142       0.700  12.514  20.456  0.00  0.00     0.152 C 
ATOM     46  OS2 IDY d 142      -1.627   7.035  19.218  0.00  0.00    -0.572 OA
ATOM     47  O2  IDY d 142      -0.684   9.304  19.015  0.00  0.00    -0.244 OA
ATOM     48  OS1 IDY d 142       0.142   7.466  17.600  0.00  0.00    -0.572 OA
ATOM     49  O5  IDY d 142       1.278  11.179  20.560  0.00  0.00    -0.340 OA
ATOM     50  O1  IDY d 142       0.117  10.004  22.413  0.00  0.00    -0.363 OA
ATOM     51  C7  IDY d 142       1.406  10.630  22.955  0.00  0.00     0.007 C 
ATOM     52  OS3 IDY d 142       0.609   7.378  19.990  0.00  0.00    -0.572 OA
ATOM     53  C4  IDY d 142      -0.686  12.518  19.810  0.00  0.00     0.103 C 
ATOM     54  H   IDY d 142       1.171   9.250  20.687  0.00  0.00     0.133 H 
ATOM     55  H   IDY d 142      -1.487  11.265  19.202  0.00  0.00     0.091 H 
ATOM     56  H   IDY d 142      -2.584  11.497  21.953  0.00  0.00     0.210 HD
ATOM     57  H   IDY d 142      -1.559   9.307  20.854  0.00  0.00     0.097 H 
ATOM     58  H   IDY d 142       0.605  12.882  21.456  0.00  0.00     0.104 H 
ATOM     59  H   IDY d 142       1.344  10.708  24.020  0.00  0.00     0.066 H 
ATOM     60  H   IDY d 142       1.534  11.605  22.533  0.00  0.00     0.066 H 
ATOM     61  H   IDY d 142       2.240  10.015  22.690  0.00  0.00     0.066 H 
ATOM     62  H   IDY d 142      -0.762  13.570  19.987  0.00  0.00     0.092 H 
ENDROOT
TORSDOF 19
