MODEL 1
REMARK VINA RESULT:     -13.7      0.000      0.000
REMARK  0 active torsions:
REMARK  status: ('A' for Active; 'I' for Inactive)
REMARK       I    between atoms: C8_1  and  C7_27 
REMARK       I    between atoms: O6_2  and  C6_34 
REMARK       I    between atoms: O4_3  and  C4_39 
REMARK       I    between atoms: O4_4  and  C4_6 
REMARK       I    between atoms: O2_7  and  C2_37 
REMARK       I    between atoms: C7_9  and  C8_15 
REMARK       I    between atoms: C7_9  and  N2_13 
REMARK       I    between atoms: N2_10  and  C2_53 
REMARK       I    between atoms: N2_10  and  C7_27 
REMARK       I    between atoms: C6_11  and  C5_48 
REMARK       I    between atoms: C5_12  and  C6_17 
REMARK       I    between atoms: N2_13  and  C2_19 
REMARK       I    between atoms: C2_16  and  O2_42 
REMARK       I    between atoms: C3_18  and  O3_23 
REMARK       I    between atoms: O3_20  and  C1_24 
REMARK       I    between atoms: O3_20  and  C3_22 
REMARK       I    between atoms: O6_21  and  C6_28 
REMARK       I    between atoms: O4_25  and  C4_50 
REMARK       I    between atoms: O4_26  and  C1_33 
REMARK       I    between atoms: O4_26  and  C4_41 
REMARK       I    between atoms: C6_28  and  C5_43 
REMARK       I    between atoms: C5_29  and  C6_34 
REMARK       I    between atoms: O3_30  and  C3_46 
REMARK       I    between atoms: C3_31  and  O3_49 
REMARK       I    between atoms: C1_38  and  O3_49 
ROOT
ATOM      1  C8  NAG d 404      -1.283  33.085  -4.405  0.00  0.00    -0.003 C 
ATOM      2  O6  NAG d 404      -3.583  25.931  -5.021  0.00  0.00    -0.398 OA
ATOM      3  N2  NAG d 404      -0.344  30.930  -3.814  0.00  0.00    -0.349 N 
ATOM      4  O3  NAG d 404       1.741  28.962  -5.166  0.00  0.00    -0.348 OA
ATOM      5  C3  NAG d 404       0.356  28.902  -5.095  0.00  0.00     0.093 C 
ATOM      6  O4  NAG d 404       0.298  26.878  -6.507  0.00  0.00    -0.390 OA
ATOM      7  C7  NAG d 404      -1.401  31.588  -4.386  0.00  0.00     0.214 C 
ATOM      8  C5  NAG d 404      -1.711  27.564  -5.420  0.00  0.00     0.089 C 
ATOM      9  C6  NAG d 404      -2.368  26.239  -5.722  0.00  0.00     0.043 C 
ATOM     10  O5  NAG d 404      -2.209  28.146  -4.220  0.00  0.00    -0.337 OA
ATOM     11  C1  NAG d 404      -1.286  28.647  -3.303  0.00  0.00     0.283 C 
ATOM     12  O7  NAG d 404      -2.381  31.011  -4.850  0.00  0.00    -0.274 OA
ATOM     13  C4  NAG d 404      -0.182  27.487  -5.303  0.00  0.00     0.089 C 
ATOM     14  C2  NAG d 404      -0.132  29.471  -3.770  0.00  0.00     0.102 C 
ATOM     15  H   NAG d 404      -0.358  33.376  -3.954  0.00  0.00     0.040 H 
ATOM     16  H   NAG d 404      -2.098  33.514  -3.858  0.00  0.00     0.040 H 
ATOM     17  H   NAG d 404      -1.311  33.431  -5.417  0.00  0.00     0.040 H 
ATOM     18  H   NAG d 404      -3.905  25.060  -5.299  0.00  0.00     0.209 HD
ATOM     19  H   NAG d 404       0.346  31.488  -3.388  0.00  0.00     0.163 HD
ATOM     20  H   NAG d 404      -0.026  29.498  -5.898  0.00  0.00     0.091 H 
ATOM     21  H   NAG d 404       1.265  26.811  -6.472  0.00  0.00     0.210 HD
ATOM     22  H   NAG d 404      -1.958  28.172  -6.264  0.00  0.00     0.090 H 
ATOM     23  H   NAG d 404      -2.587  26.219  -6.769  0.00  0.00     0.078 H 
ATOM     24  H   NAG d 404      -1.666  25.502  -5.391  0.00  0.00     0.078 H 
ATOM     25  H   NAG d 404       0.147  26.900  -4.471  0.00  0.00     0.091 H 
ATOM     26  H   NAG d 404       0.628  29.391  -3.022  0.00  0.00     0.085 H 
ATOM     27  O4  NAG d 402       9.353  28.192 -11.748  0.00  0.00    -0.390 OA
ATOM     28  O5  NAG d 402       7.123  28.946  -8.984  0.00  0.00    -0.349 OA
ATOM     29  C7  NAG d 402       6.177  33.148 -10.824  0.00  0.00     0.214 C 
ATOM     30  N2  NAG d 402       6.100  31.809 -11.072  0.00  0.00    -0.349 N 
ATOM     31  C8  NAG d 402       5.176  34.060 -11.513  0.00  0.00    -0.003 C 
ATOM     32  C2  NAG d 402       7.030  30.837 -10.476  0.00  0.00     0.087 C 
ATOM     33  O6  NAG d 402       9.335  27.664  -7.951  0.00  0.00    -0.398 OA
ATOM     34  C6  NAG d 402       8.631  27.121  -9.065  0.00  0.00     0.043 C 
ATOM     35  C3  NAG d 402       7.873  30.078 -11.487  0.00  0.00     0.093 C 
ATOM     36  O7  NAG d 402       7.002  33.647 -10.087  0.00  0.00    -0.274 OA
ATOM     37  C1  NAG d 402       6.234  29.857  -9.609  0.00  0.00     0.154 C 
ATOM     38  C4  NAG d 402       8.718  29.017 -10.767  0.00  0.00     0.089 C 
ATOM     39  C5  NAG d 402       7.862  28.123  -9.891  0.00  0.00     0.089 C 
ATOM     40  O3  NAG d 402       8.821  30.932 -12.081  0.00  0.00    -0.348 OA
ATOM     41  H   NAG d 402       9.908  28.742 -12.322  0.00  0.00     0.210 HD
ATOM     42  H   NAG d 402       5.394  31.480 -11.673  0.00  0.00     0.163 HD
ATOM     43  H   NAG d 402       4.521  33.475 -12.123  0.00  0.00     0.040 H 
ATOM     44  H   NAG d 402       5.699  34.766 -12.125  0.00  0.00     0.040 H 
ATOM     45  H   NAG d 402       4.604  34.583 -10.775  0.00  0.00     0.040 H 
ATOM     46  H   NAG d 402       7.728  31.396  -9.888  0.00  0.00     0.084 H 
ATOM     47  H   NAG d 402       9.797  26.951  -7.482  0.00  0.00     0.209 HD
ATOM     48  H   NAG d 402       7.938  26.395  -8.697  0.00  0.00     0.078 H 
ATOM     49  H   NAG d 402       9.376  26.711  -9.715  0.00  0.00     0.078 H 
ATOM     50  H   NAG d 402       7.198  29.659 -12.204  0.00  0.00     0.091 H 
ATOM     51  H   NAG d 402       5.559  29.271 -10.196  0.00  0.00     0.132 H 
ATOM     52  H   NAG d 402       9.433  29.523 -10.153  0.00  0.00     0.091 H 
ATOM     53  H   NAG d 402       7.241  27.567 -10.562  0.00  0.00     0.090 H 
ATOM     54  O4  GCU d 401       9.323  33.051 -16.981  0.00  0.00    -0.390 OA
ATOM     55  C4  GCU d 401       9.782  32.454 -15.763  0.00  0.00     0.097 C 
ATOM     56  C6  GCU d 401       9.227  30.099 -16.535  0.00  0.00     0.206 C 
ATOM     57  C2  GCU d 401       9.536  32.768 -13.305  0.00  0.00     0.110 C 
ATOM     58  O3  GCU d 401      10.493  34.485 -14.738  0.00  0.00    -0.390 OA
ATOM     59  C1  GCU d 401       8.693  31.494 -13.261  0.00  0.00     0.160 C 
ATOM     60  O2  GCU d 401       9.100  33.682 -12.311  0.00  0.00    -0.388 OA
ATOM     61  O6B GCU d 401       9.380  30.604 -17.668  0.00  0.00    -0.646 OA
ATOM     62  C3  GCU d 401       9.498  33.451 -14.651  0.00  0.00     0.092 C 
ATOM     63  O5  GCU d 401       9.243  30.627 -14.254  0.00  0.00    -0.340 OA
ATOM     64  C5  GCU d 401       8.977  31.164 -15.537  0.00  0.00     0.152 C 
ATOM     65  O6A GCU d 401       9.216  28.936 -16.080  0.00  0.00    -0.646 OA
ATOM     66  H   GCU d 401       9.817  33.869 -17.146  0.00  0.00     0.210 HD
ATOM     67  H   GCU d 401      10.824  32.218 -15.791  0.00  0.00     0.091 H 
ATOM     68  H   GCU d 401      10.546  32.468 -13.121  0.00  0.00     0.094 H 
ATOM     69  H   GCU d 401      10.445  34.905 -15.611  0.00  0.00     0.210 HD
ATOM     70  H   GCU d 401       7.657  31.697 -13.435  0.00  0.00     0.133 H 
ATOM     71  H   GCU d 401       8.183  33.944 -12.493  0.00  0.00     0.210 HD
ATOM     72  H   GCU d 401       8.520  33.873 -14.758  0.00  0.00     0.091 H 
ATOM     73  H   GCU d 401       7.955  31.464 -15.636  0.00  0.00     0.104 H 
ATOM     74  O4  GCU d 405      -1.881  28.900  -2.118  0.00  0.00    -0.189 OA
ATOM     75  O2  GCU d 403       3.913  30.068  -4.239  0.00  0.00    -0.388 OA
ATOM     76  C5  GCU d 403       3.166  30.067  -8.338  0.00  0.00     0.152 C 
ATOM     77  O5  GCU d 403       2.324  29.454  -7.399  0.00  0.00    -0.340 OA
ATOM     78  C6  GCU d 403       2.836  29.553  -9.693  0.00  0.00     0.206 C 
ATOM     79  C3  GCU d 403       4.783  30.336  -6.453  0.00  0.00     0.092 C 
ATOM     80  O3  GCU d 403       6.160  30.229  -6.060  0.00  0.00    -0.390 OA
ATOM     81  C1  GCU d 403       2.420  29.664  -6.018  0.00  0.00     0.160 C 
ATOM     82  O4  GCU d 403       5.517  30.564  -8.738  0.00  0.00    -0.348 OA
ATOM     83  O6A GCU d 403       2.668  28.318  -9.837  0.00  0.00    -0.646 OA
ATOM     84  C2  GCU d 403       3.872  29.532  -5.563  0.00  0.00     0.110 C 
ATOM     85  C4  GCU d 403       4.622  29.889  -7.896  0.00  0.00     0.103 C 
ATOM     86  O6B GCU d 403       2.752  30.398 -10.607  0.00  0.00    -0.646 OA
ATOM     87  H   GCU d 403       4.817  30.011  -3.895  0.00  0.00     0.210 HD
ATOM     88  H   GCU d 403       3.016  31.124  -8.393  0.00  0.00     0.104 H 
ATOM     89  H   GCU d 403       4.500  31.364  -6.356  0.00  0.00     0.091 H 
ATOM     90  H   GCU d 403       6.447  29.306  -6.137  0.00  0.00     0.210 HD
ATOM     91  H   GCU d 403       1.974  30.636  -5.980  0.00  0.00     0.133 H 
ATOM     92  H   GCU d 403       4.198  28.514  -5.601  0.00  0.00     0.094 H 
ATOM     93  H   GCU d 403       4.863  28.849  -7.967  0.00  0.00     0.092 H 
ENDROOT
TORSDOF 23
ENDMDL
MODEL 2
REMARK VINA RESULT:      -9.0      4.139      6.139
REMARK  0 active torsions:
REMARK  status: ('A' for Active; 'I' for Inactive)
REMARK       I    between atoms: C8_1  and  C7_27 
REMARK       I    between atoms: O6_2  and  C6_34 
REMARK       I    between atoms: O4_3  and  C4_39 
REMARK       I    between atoms: O4_4  and  C4_6 
REMARK       I    between atoms: O2_7  and  C2_37 
REMARK       I    between atoms: C7_9  and  C8_15 
REMARK       I    between atoms: C7_9  and  N2_13 
REMARK       I    between atoms: N2_10  and  C2_53 
REMARK       I    between atoms: N2_10  and  C7_27 
REMARK       I    between atoms: C6_11  and  C5_48 
REMARK       I    between atoms: C5_12  and  C6_17 
REMARK       I    between atoms: N2_13  and  C2_19 
REMARK       I    between atoms: C2_16  and  O2_42 
REMARK       I    between atoms: C3_18  and  O3_23 
REMARK       I    between atoms: O3_20  and  C1_24 
REMARK       I    between atoms: O3_20  and  C3_22 
REMARK       I    between atoms: O6_21  and  C6_28 
REMARK       I    between atoms: O4_25  and  C4_50 
REMARK       I    between atoms: O4_26  and  C1_33 
REMARK       I    between atoms: O4_26  and  C4_41 
REMARK       I    between atoms: C6_28  and  C5_43 
REMARK       I    between atoms: C5_29  and  C6_34 
REMARK       I    between atoms: O3_30  and  C3_46 
REMARK       I    between atoms: C3_31  and  O3_49 
REMARK       I    between atoms: C1_38  and  O3_49 
ROOT
ATOM      1  C8  NAG d 404       1.170  24.052   0.552  0.00  0.00    -0.003 C 
ATOM      2  O6  NAG d 404      -5.386  27.349  -1.177  0.00  0.00    -0.398 OA
ATOM      3  N2  NAG d 404      -0.221  24.155  -1.430  0.00  0.00    -0.349 N 
ATOM      4  O3  NAG d 404      -0.193  25.888  -4.085  0.00  0.00    -0.348 OA
ATOM      5  C3  NAG d 404      -0.989  25.984  -2.951  0.00  0.00     0.093 C 
ATOM      6  O4  NAG d 404      -2.104  28.009  -3.815  0.00  0.00    -0.390 OA
ATOM      7  C7  NAG d 404      -0.062  24.567  -0.133  0.00  0.00     0.214 C 
ATOM      8  C5  NAG d 404      -2.997  26.963  -1.868  0.00  0.00     0.089 C 
ATOM      9  C6  NAG d 404      -4.268  27.771  -1.973  0.00  0.00     0.043 C 
ATOM     10  O5  NAG d 404      -3.222  25.692  -1.265  0.00  0.00    -0.337 OA
ATOM     11  C1  NAG d 404      -2.669  24.569  -1.878  0.00  0.00     0.283 C 
ATOM     12  O7  NAG d 404      -0.863  25.300   0.443  0.00  0.00    -0.274 OA
ATOM     13  C4  NAG d 404      -2.299  26.724  -3.214  0.00  0.00     0.089 C 
ATOM     14  C2  NAG d 404      -1.261  24.600  -2.377  0.00  0.00     0.102 C 
ATOM     15  H   NAG d 404       1.724  23.436  -0.126  0.00  0.00     0.040 H 
ATOM     16  H   NAG d 404       0.889  23.476   1.409  0.00  0.00     0.040 H 
ATOM     17  H   NAG d 404       1.778  24.878   0.860  0.00  0.00     0.040 H 
ATOM     18  H   NAG d 404      -6.136  27.944  -1.331  0.00  0.00     0.209 HD
ATOM     19  H   NAG d 404       0.426  23.494  -1.766  0.00  0.00     0.163 HD
ATOM     20  H   NAG d 404      -0.445  26.563  -2.234  0.00  0.00     0.091 H 
ATOM     21  H   NAG d 404      -1.663  27.901  -4.672  0.00  0.00     0.210 HD
ATOM     22  H   NAG d 404      -2.360  27.563  -1.254  0.00  0.00     0.090 H 
ATOM     23  H   NAG d 404      -4.033  28.776  -1.690  0.00  0.00     0.078 H 
ATOM     24  H   NAG d 404      -4.589  27.648  -2.986  0.00  0.00     0.078 H 
ATOM     25  H   NAG d 404      -2.873  26.119  -3.884  0.00  0.00     0.091 H 
ATOM     26  H   NAG d 404      -1.186  23.854  -3.139  0.00  0.00     0.085 H 
ATOM     27  O4  NAG d 402       5.475  31.514 -10.256  0.00  0.00    -0.390 OA
ATOM     28  O5  NAG d 402       3.935  28.903  -8.258  0.00  0.00    -0.349 OA
ATOM     29  C7  NAG d 402       7.351  29.252  -5.071  0.00  0.00     0.214 C 
ATOM     30  N2  NAG d 402       6.355  29.957  -5.681  0.00  0.00    -0.349 N 
ATOM     31  C8  NAG d 402       7.778  29.679  -3.677  0.00  0.00    -0.003 C 
ATOM     32  C2  NAG d 402       5.877  29.645  -7.038  0.00  0.00     0.087 C 
ATOM     33  O6  NAG d 402       3.734  28.161 -10.905  0.00  0.00    -0.398 OA
ATOM     34  C6  NAG d 402       3.331  29.460 -10.479  0.00  0.00     0.043 C 
ATOM     35  C3  NAG d 402       6.078  30.765  -8.044  0.00  0.00     0.093 C 
ATOM     36  O7  NAG d 402       7.914  28.307  -5.585  0.00  0.00    -0.274 OA
ATOM     37  C1  NAG d 402       4.397  29.259  -6.965  0.00  0.00     0.154 C 
ATOM     38  C4  NAG d 402       5.444  30.377  -9.388  0.00  0.00     0.089 C 
ATOM     39  C5  NAG d 402       3.996  29.959  -9.219  0.00  0.00     0.089 C 
ATOM     40  O3  NAG d 402       7.445  30.925  -8.339  0.00  0.00    -0.348 OA
ATOM     41  H   NAG d 402       6.392  31.801 -10.379  0.00  0.00     0.210 HD
ATOM     42  H   NAG d 402       5.938  30.703  -5.194  0.00  0.00     0.163 HD
ATOM     43  H   NAG d 402       7.192  30.518  -3.366  0.00  0.00     0.040 H 
ATOM     44  H   NAG d 402       8.813  29.950  -3.688  0.00  0.00     0.040 H 
ATOM     45  H   NAG d 402       7.629  28.868  -2.996  0.00  0.00     0.040 H 
ATOM     46  H   NAG d 402       6.472  28.832  -7.396  0.00  0.00     0.084 H 
ATOM     47  H   NAG d 402       3.257  27.925 -11.717  0.00  0.00     0.209 HD
ATOM     48  H   NAG d 402       2.275  29.439 -10.310  0.00  0.00     0.078 H 
ATOM     49  H   NAG d 402       3.627  30.132 -11.257  0.00  0.00     0.078 H 
ATOM     50  H   NAG d 402       5.649  31.648  -7.618  0.00  0.00     0.091 H 
ATOM     51  H   NAG d 402       3.792  30.078  -6.639  0.00  0.00     0.132 H 
ATOM     52  H   NAG d 402       5.998  29.556  -9.791  0.00  0.00     0.091 H 
ATOM     53  H   NAG d 402       3.472  30.841  -8.916  0.00  0.00     0.090 H 
ATOM     54  O4  GCU d 401      11.061  34.703  -7.154  0.00  0.00    -0.390 OA
ATOM     55  C4  GCU d 401      10.412  33.729  -7.979  0.00  0.00     0.097 C 
ATOM     56  C6  GCU d 401       8.558  35.325  -8.661  0.00  0.00     0.206 C 
ATOM     57  C2  GCU d 401       9.674  31.355  -7.859  0.00  0.00     0.110 C 
ATOM     58  O3  GCU d 401      12.008  31.995  -7.625  0.00  0.00    -0.390 OA
ATOM     59  C1  GCU d 401       8.226  31.842  -7.816  0.00  0.00     0.160 C 
ATOM     60  O2  GCU d 401       9.811  30.155  -7.114  0.00  0.00    -0.388 OA
ATOM     61  O6B GCU d 401       9.424  36.189  -8.411  0.00  0.00    -0.646 OA
ATOM     62  C3  GCU d 401      10.654  32.375  -7.332  0.00  0.00     0.092 C 
ATOM     63  O5  GCU d 401       8.184  33.013  -8.633  0.00  0.00    -0.340 OA
ATOM     64  C5  GCU d 401       8.909  34.050  -7.996  0.00  0.00     0.152 C 
ATOM     65  O6A GCU d 401       7.488  35.306  -9.306  0.00  0.00    -0.646 OA
ATOM     66  H   GCU d 401      12.013  34.522  -7.128  0.00  0.00     0.210 HD
ATOM     67  H   GCU d 401      10.783  33.732  -8.983  0.00  0.00     0.091 H 
ATOM     68  H   GCU d 401       9.904  31.184  -8.890  0.00  0.00     0.094 H 
ATOM     69  H   GCU d 401      12.614  32.667  -7.276  0.00  0.00     0.210 HD
ATOM     70  H   GCU d 401       7.903  32.040  -6.815  0.00  0.00     0.133 H 
ATOM     71  H   GCU d 401       9.599  30.326  -6.183  0.00  0.00     0.210 HD
ATOM     72  H   GCU d 401      10.508  32.428  -6.274  0.00  0.00     0.091 H 
ATOM     73  H   GCU d 401       8.643  34.141  -6.964  0.00  0.00     0.104 H 
ATOM     74  O4  GCU d 405      -3.195  23.438  -1.364  0.00  0.00    -0.189 OA
ATOM     75  O2  GCU d 403       1.480  24.417  -5.440  0.00  0.00    -0.388 OA
ATOM     76  C5  GCU d 403       2.514  28.315  -4.389  0.00  0.00     0.152 C 
ATOM     77  O5  GCU d 403       1.271  27.738  -4.092  0.00  0.00    -0.340 OA
ATOM     78  C6  GCU d 403       2.413  29.790  -4.238  0.00  0.00     0.206 C 
ATOM     79  C3  GCU d 403       2.914  26.299  -5.810  0.00  0.00     0.092 C 
ATOM     80  O3  GCU d 403       3.413  25.830  -7.071  0.00  0.00    -0.390 OA
ATOM     81  C1  GCU d 403       1.005  26.368  -4.205  0.00  0.00     0.160 C 
ATOM     82  O4  GCU d 403       4.269  28.274  -6.077  0.00  0.00    -0.348 OA
ATOM     83  O6A GCU d 403       1.414  30.370  -4.727  0.00  0.00    -0.646 OA
ATOM     84  C2  GCU d 403       1.503  25.841  -5.550  0.00  0.00     0.110 C 
ATOM     85  C4  GCU d 403       2.984  27.816  -5.759  0.00  0.00     0.103 C 
ATOM     86  O6B GCU d 403       3.345  30.355  -3.632  0.00  0.00    -0.646 OA
ATOM     87  H   GCU d 403       1.789  24.024  -6.271  0.00  0.00     0.210 HD
ATOM     88  H   GCU d 403       3.278  28.013  -3.703  0.00  0.00     0.104 H 
ATOM     89  H   GCU d 403       3.532  25.880  -5.043  0.00  0.00     0.091 H 
ATOM     90  H   GCU d 403       2.872  26.193  -7.789  0.00  0.00     0.210 HD
ATOM     91  H   GCU d 403       1.514  26.040  -3.323  0.00  0.00     0.133 H 
ATOM     92  H   GCU d 403       0.893  26.198  -6.354  0.00  0.00     0.094 H 
ATOM     93  H   GCU d 403       2.325  28.219  -6.499  0.00  0.00     0.092 H 
ENDROOT
TORSDOF 23
ENDMDL
MODEL 3
REMARK VINA RESULT:      -8.0      2.373     12.185
REMARK  0 active torsions:
REMARK  status: ('A' for Active; 'I' for Inactive)
REMARK       I    between atoms: C8_1  and  C7_27 
REMARK       I    between atoms: O6_2  and  C6_34 
REMARK       I    between atoms: O4_3  and  C4_39 
REMARK       I    between atoms: O4_4  and  C4_6 
REMARK       I    between atoms: O2_7  and  C2_37 
REMARK       I    between atoms: C7_9  and  C8_15 
REMARK       I    between atoms: C7_9  and  N2_13 
REMARK       I    between atoms: N2_10  and  C2_53 
REMARK       I    between atoms: N2_10  and  C7_27 
REMARK       I    between atoms: C6_11  and  C5_48 
REMARK       I    between atoms: C5_12  and  C6_17 
REMARK       I    between atoms: N2_13  and  C2_19 
REMARK       I    between atoms: C2_16  and  O2_42 
REMARK       I    between atoms: C3_18  and  O3_23 
REMARK       I    between atoms: O3_20  and  C1_24 
REMARK       I    between atoms: O3_20  and  C3_22 
REMARK       I    between atoms: O6_21  and  C6_28 
REMARK       I    between atoms: O4_25  and  C4_50 
REMARK       I    between atoms: O4_26  and  C1_33 
REMARK       I    between atoms: O4_26  and  C4_41 
REMARK       I    between atoms: C6_28  and  C5_43 
REMARK       I    between atoms: C5_29  and  C6_34 
REMARK       I    between atoms: O3_30  and  C3_46 
REMARK       I    between atoms: C3_31  and  O3_49 
REMARK       I    between atoms: C1_38  and  O3_49 
ROOT
ATOM      1  C8  NAG d 404       7.925  27.807 -15.282  0.00  0.00    -0.003 C 
ATOM      2  O6  NAG d 404       9.388  35.068 -13.875  0.00  0.00    -0.398 OA
ATOM      3  N2  NAG d 404       9.133  29.004 -13.554  0.00  0.00    -0.349 N 
ATOM      4  O3  NAG d 404       8.443  29.966 -10.614  0.00  0.00    -0.348 OA
ATOM      5  C3  NAG d 404       8.508  30.676 -11.805  0.00  0.00     0.093 C 
ATOM      6  O4  NAG d 404       7.747  32.747 -10.698  0.00  0.00    -0.390 OA
ATOM      7  C7  NAG d 404       8.378  29.111 -14.693  0.00  0.00     0.214 C 
ATOM      8  C5  NAG d 404       8.557  32.886 -12.937  0.00  0.00     0.089 C 
ATOM      9  C6  NAG d 404       8.645  34.390 -12.849  0.00  0.00     0.043 C 
ATOM     10  O5  NAG d 404       9.528  32.345 -13.827  0.00  0.00    -0.337 OA
ATOM     11  C1  NAG d 404      10.273  31.249 -13.396  0.00  0.00     0.283 C 
ATOM     12  O7  NAG d 404       8.089  30.188 -15.209  0.00  0.00    -0.274 OA
ATOM     13  C4  NAG d 404       8.714  32.174 -11.586  0.00  0.00     0.089 C 
ATOM     14  C2  NAG d 404       9.603  30.110 -12.699  0.00  0.00     0.102 C 
ATOM     15  H   NAG d 404       8.285  26.999 -14.679  0.00  0.00     0.040 H 
ATOM     16  H   NAG d 404       8.312  27.711 -16.275  0.00  0.00     0.040 H 
ATOM     17  H   NAG d 404       6.856  27.781 -15.310  0.00  0.00     0.040 H 
ATOM     18  H   NAG d 404       9.371  36.023 -13.708  0.00  0.00     0.209 HD
ATOM     19  H   NAG d 404       9.387  28.095 -13.277  0.00  0.00     0.163 HD
ATOM     20  H   NAG d 404       7.562  30.562 -12.291  0.00  0.00     0.091 H 
ATOM     21  H   NAG d 404       7.814  32.322  -9.829  0.00  0.00     0.210 HD
ATOM     22  H   NAG d 404       7.569  32.707 -13.304  0.00  0.00     0.090 H 
ATOM     23  H   NAG d 404       7.646  34.773 -12.869  0.00  0.00     0.078 H 
ATOM     24  H   NAG d 404       9.187  34.582 -11.946  0.00  0.00     0.078 H 
ATOM     25  H   NAG d 404       9.686  32.298 -11.155  0.00  0.00     0.091 H 
ATOM     26  H   NAG d 404      10.352  29.621 -12.115  0.00  0.00     0.085 H 
ATOM     27  O4  NAG d 402       2.484  28.519  -2.598  0.00  0.00    -0.390 OA
ATOM     28  O5  NAG d 402       4.876  28.294  -5.320  0.00  0.00    -0.349 OA
ATOM     29  C7  NAG d 402       1.877  25.696  -7.811  0.00  0.00     0.214 C 
ATOM     30  N2  NAG d 402       2.029  26.915  -7.218  0.00  0.00    -0.349 N 
ATOM     31  C8  NAG d 402       0.937  25.593  -9.000  0.00  0.00    -0.003 C 
ATOM     32  C2  NAG d 402       2.896  27.127  -6.047  0.00  0.00     0.087 C 
ATOM     33  O6  NAG d 402       6.269  28.030  -2.956  0.00  0.00    -0.398 OA
ATOM     34  C6  NAG d 402       5.351  29.104  -3.146  0.00  0.00     0.043 C 
ATOM     35  C3  NAG d 402       2.162  27.600  -4.804  0.00  0.00     0.093 C 
ATOM     36  O7  NAG d 402       2.449  24.693  -7.436  0.00  0.00    -0.274 OA
ATOM     37  C1  NAG d 402       3.999  28.121  -6.422  0.00  0.00     0.154 C 
ATOM     38  C4  NAG d 402       3.172  27.897  -3.686  0.00  0.00     0.089 C 
ATOM     39  C5  NAG d 402       4.259  28.846  -4.154  0.00  0.00     0.089 C 
ATOM     40  O3  NAG d 402       1.359  26.569  -4.281  0.00  0.00    -0.348 OA
ATOM     41  H   NAG d 402       1.783  27.930  -2.280  0.00  0.00     0.210 HD
ATOM     42  H   NAG d 402       1.540  27.685  -7.588  0.00  0.00     0.163 HD
ATOM     43  H   NAG d 402       0.514  26.553  -9.205  0.00  0.00     0.040 H 
ATOM     44  H   NAG d 402       0.154  24.898  -8.776  0.00  0.00     0.040 H 
ATOM     45  H   NAG d 402       1.482  25.253  -9.856  0.00  0.00     0.040 H 
ATOM     46  H   NAG d 402       3.305  26.173  -5.789  0.00  0.00     0.084 H 
ATOM     47  H   NAG d 402       6.932  28.285  -2.295  0.00  0.00     0.209 HD
ATOM     48  H   NAG d 402       5.905  29.960  -3.471  0.00  0.00     0.078 H 
ATOM     49  H   NAG d 402       4.860  29.244  -2.206  0.00  0.00     0.078 H 
ATOM     50  H   NAG d 402       1.589  28.458  -5.088  0.00  0.00     0.091 H 
ATOM     51  H   NAG d 402       3.598  29.086  -6.648  0.00  0.00     0.132 H 
ATOM     52  H   NAG d 402       3.623  26.972  -3.392  0.00  0.00     0.091 H 
ATOM     53  H   NAG d 402       3.770  29.781  -4.334  0.00  0.00     0.090 H 
ATOM     54  O4  GCU d 401      -3.937  25.763  -4.069  0.00  0.00    -0.390 OA
ATOM     55  C4  GCU d 401      -2.592  25.737  -3.580  0.00  0.00     0.097 C 
ATOM     56  C6  GCU d 401      -2.653  28.170  -2.852  0.00  0.00     0.206 C 
ATOM     57  C2  GCU d 401      -0.337  24.986  -4.320  0.00  0.00     0.110 C 
ATOM     58  O3  GCU d 401      -2.193  23.438  -4.060  0.00  0.00    -0.390 OA
ATOM     59  C1  GCU d 401       0.065  26.453  -4.471  0.00  0.00     0.160 C 
ATOM     60  O2  GCU d 401       0.342  24.189  -5.278  0.00  0.00    -0.388 OA
ATOM     61  O6B GCU d 401      -3.881  27.953  -2.778  0.00  0.00    -0.646 OA
ATOM     62  C3  GCU d 401      -1.823  24.766  -4.462  0.00  0.00     0.092 C 
ATOM     63  O5  GCU d 401      -0.624  27.156  -3.436  0.00  0.00    -0.340 OA
ATOM     64  C5  GCU d 401      -2.012  27.154  -3.718  0.00  0.00     0.152 C 
ATOM     65  O6A GCU d 401      -1.878  29.036  -2.393  0.00  0.00    -0.646 OA
ATOM     66  H   GCU d 401      -4.327  24.878  -3.992  0.00  0.00     0.210 HD
ATOM     67  H   GCU d 401      -2.535  25.433  -2.556  0.00  0.00     0.091 H 
ATOM     68  H   GCU d 401      -0.058  24.699  -3.328  0.00  0.00     0.094 H 
ATOM     69  H   GCU d 401      -3.151  23.324  -4.161  0.00  0.00     0.210 HD
ATOM     70  H   GCU d 401      -0.176  26.833  -5.442  0.00  0.00     0.133 H 
ATOM     71  H   GCU d 401       0.078  24.463  -6.171  0.00  0.00     0.210 HD
ATOM     72  H   GCU d 401      -2.063  24.918  -5.494  0.00  0.00     0.091 H 
ATOM     73  H   GCU d 401      -2.209  27.426  -4.734  0.00  0.00     0.104 H 
ATOM     74  O4  GCU d 405      11.324  31.034 -14.216  0.00  0.00    -0.189 OA
ATOM     75  O2  GCU d 403       9.040  27.751  -9.376  0.00  0.00    -0.388 OA
ATOM     76  C5  GCU d 403       5.108  29.131  -9.392  0.00  0.00     0.152 C 
ATOM     77  O5  GCU d 403       6.173  29.822  -9.988  0.00  0.00    -0.340 OA
ATOM     78  C6  GCU d 403       3.957  30.058  -9.232  0.00  0.00     0.206 C 
ATOM     79  C3  GCU d 403       6.856  27.649  -8.398  0.00  0.00     0.092 C 
ATOM     80  O3  GCU d 403       7.283  26.968  -7.208  0.00  0.00    -0.390 OA
ATOM     81  C1  GCU d 403       7.434  29.258 -10.215  0.00  0.00     0.160 C 
ATOM     82  O4  GCU d 403       4.616  27.665  -7.511  0.00  0.00    -0.348 OA
ATOM     83  O6A GCU d 403       4.177  31.207  -8.784  0.00  0.00    -0.646 OA
ATOM     84  C2  GCU d 403       7.929  28.546  -8.957  0.00  0.00     0.110 C 
ATOM     85  C4  GCU d 403       5.604  28.458  -8.108  0.00  0.00     0.103 C 
ATOM     86  O6B GCU d 403       2.836  29.617  -9.556  0.00  0.00    -0.646 OA
ATOM     87  H   GCU d 403       9.399  27.271  -8.613  0.00  0.00     0.210 HD
ATOM     88  H   GCU d 403       4.745  28.333 -10.005  0.00  0.00     0.104 H 
ATOM     89  H   GCU d 403       6.646  26.903  -9.137  0.00  0.00     0.091 H 
ATOM     90  H   GCU d 403       7.484  27.619  -6.517  0.00  0.00     0.210 HD
ATOM     91  H   GCU d 403       7.180  28.654 -11.061  0.00  0.00     0.133 H 
ATOM     92  H   GCU d 403       8.194  29.248  -8.195  0.00  0.00     0.094 H 
ATOM     93  H   GCU d 403       5.843  29.228  -7.404  0.00  0.00     0.092 H 
ENDROOT
TORSDOF 23
ENDMDL
MODEL 4
REMARK VINA RESULT:      -7.9      2.465     12.229
REMARK  0 active torsions:
REMARK  status: ('A' for Active; 'I' for Inactive)
REMARK       I    between atoms: C8_1  and  C7_27 
REMARK       I    between atoms: O6_2  and  C6_34 
REMARK       I    between atoms: O4_3  and  C4_39 
REMARK       I    between atoms: O4_4  and  C4_6 
REMARK       I    between atoms: O2_7  and  C2_37 
REMARK       I    between atoms: C7_9  and  C8_15 
REMARK       I    between atoms: C7_9  and  N2_13 
REMARK       I    between atoms: N2_10  and  C2_53 
REMARK       I    between atoms: N2_10  and  C7_27 
REMARK       I    between atoms: C6_11  and  C5_48 
REMARK       I    between atoms: C5_12  and  C6_17 
REMARK       I    between atoms: N2_13  and  C2_19 
REMARK       I    between atoms: C2_16  and  O2_42 
REMARK       I    between atoms: C3_18  and  O3_23 
REMARK       I    between atoms: O3_20  and  C1_24 
REMARK       I    between atoms: O3_20  and  C3_22 
REMARK       I    between atoms: O6_21  and  C6_28 
REMARK       I    between atoms: O4_25  and  C4_50 
REMARK       I    between atoms: O4_26  and  C1_33 
REMARK       I    between atoms: O4_26  and  C4_41 
REMARK       I    between atoms: C6_28  and  C5_43 
REMARK       I    between atoms: C5_29  and  C6_34 
REMARK       I    between atoms: O3_30  and  C3_46 
REMARK       I    between atoms: C3_31  and  O3_49 
REMARK       I    between atoms: C1_38  and  O3_49 
ROOT
ATOM      1  C8  NAG d 404       7.969  25.877 -15.944  0.00  0.00    -0.003 C 
ATOM      2  O6  NAG d 404       9.489  33.258 -16.132  0.00  0.00    -0.398 OA
ATOM      3  N2  NAG d 404       9.261  27.392 -14.561  0.00  0.00    -0.349 N 
ATOM      4  O3  NAG d 404       8.720  28.943 -11.850  0.00  0.00    -0.348 OA
ATOM      5  C3  NAG d 404       8.723  29.393 -13.163  0.00  0.00     0.093 C 
ATOM      6  O4  NAG d 404       8.016  31.653 -12.468  0.00  0.00    -0.390 OA
ATOM      7  C7  NAG d 404       8.449  27.270 -15.658  0.00  0.00     0.214 C 
ATOM      8  C5  NAG d 404       8.711  31.323 -14.725  0.00  0.00     0.089 C 
ATOM      9  C6  NAG d 404       8.801  32.813 -14.953  0.00  0.00     0.043 C 
ATOM     10  O5  NAG d 404       9.637  30.603 -15.533  0.00  0.00    -0.337 OA
ATOM     11  C1  NAG d 404      10.404  29.611 -14.924  0.00  0.00     0.283 C 
ATOM     12  O7  NAG d 404       8.132  28.220 -16.369  0.00  0.00    -0.274 OA
ATOM     13  C4  NAG d 404       8.937  30.902 -13.267  0.00  0.00     0.089 C 
ATOM     14  C2  NAG d 404       9.771  28.646 -13.976  0.00  0.00     0.102 C 
ATOM     15  H   NAG d 404       8.361  25.206 -15.207  0.00  0.00     0.040 H 
ATOM     16  H   NAG d 404       8.305  25.575 -16.914  0.00  0.00     0.040 H 
ATOM     17  H   NAG d 404       6.900  25.855 -15.913  0.00  0.00     0.040 H 
ATOM     18  H   NAG d 404       9.479  34.228 -16.164  0.00  0.00     0.209 HD
ATOM     19  H   NAG d 404       9.530  26.556 -14.117  0.00  0.00     0.163 HD
ATOM     20  H   NAG d 404       7.753  29.190 -13.567  0.00  0.00     0.091 H 
ATOM     21  H   NAG d 404       8.128  31.415 -11.535  0.00  0.00     0.210 HD
ATOM     22  H   NAG d 404       7.706  31.081 -14.998  0.00  0.00     0.090 H 
ATOM     23  H   NAG d 404       7.802  33.191 -15.001  0.00  0.00     0.078 H 
ATOM     24  H   NAG d 404       9.387  33.180 -14.137  0.00  0.00     0.078 H 
ATOM     25  H   NAG d 404       9.929  31.103 -12.920  0.00  0.00     0.091 H 
ATOM     26  H   NAG d 404      10.551  28.280 -13.342  0.00  0.00     0.085 H 
ATOM     27  O4  NAG d 402       3.177  29.222  -3.420  0.00  0.00    -0.390 OA
ATOM     28  O5  NAG d 402       5.428  28.423  -6.154  0.00  0.00    -0.349 OA
ATOM     29  C7  NAG d 402       2.311  25.396  -7.906  0.00  0.00     0.214 C 
ATOM     30  N2  NAG d 402       2.491  26.710  -7.584  0.00  0.00    -0.349 N 
ATOM     31  C8  NAG d 402       1.313  25.059  -9.000  0.00  0.00    -0.003 C 
ATOM     32  C2  NAG d 402       3.415  27.149  -6.527  0.00  0.00     0.087 C 
ATOM     33  O6  NAG d 402       6.940  28.637  -3.859  0.00  0.00    -0.398 OA
ATOM     34  C6  NAG d 402       6.012  29.657  -4.220  0.00  0.00     0.043 C 
ATOM     35  C3  NAG d 402       2.746  27.874  -5.372  0.00  0.00     0.093 C 
ATOM     36  O7  NAG d 402       2.903  24.486  -7.362  0.00  0.00    -0.274 OA
ATOM     37  C1  NAG d 402       4.497  28.035  -7.152  0.00  0.00     0.154 C 
ATOM     38  C4  NAG d 402       3.810  28.384  -4.390  0.00  0.00     0.089 C 
ATOM     39  C5  NAG d 402       4.870  29.208  -5.097  0.00  0.00     0.089 C 
ATOM     40  O3  NAG d 402       1.972  26.979  -4.609  0.00  0.00    -0.348 OA
ATOM     41  H   NAG d 402       2.494  28.717  -2.953  0.00  0.00     0.210 HD
ATOM     42  H   NAG d 402       1.982  27.391  -8.079  0.00  0.00     0.163 HD
ATOM     43  H   NAG d 402       0.878  25.961  -9.377  0.00  0.00     0.040 H 
ATOM     44  H   NAG d 402       0.543  24.432  -8.600  0.00  0.00     0.040 H 
ATOM     45  H   NAG d 402       1.814  24.546  -9.794  0.00  0.00     0.040 H 
ATOM     46  H   NAG d 402       3.839  26.265  -6.099  0.00  0.00     0.084 H 
ATOM     47  H   NAG d 402       7.635  29.016  -3.299  0.00  0.00     0.209 HD
ATOM     48  H   NAG d 402       6.548  30.423  -4.740  0.00  0.00     0.078 H 
ATOM     49  H   NAG d 402       5.569  29.991  -3.304  0.00  0.00     0.078 H 
ATOM     50  H   NAG d 402       2.157  28.660  -5.796  0.00  0.00     0.091 H 
ATOM     51  H   NAG d 402       4.084  28.937  -7.552  0.00  0.00     0.132 H 
ATOM     52  H   NAG d 402       4.277  27.535  -3.936  0.00  0.00     0.091 H 
ATOM     53  H   NAG d 402       4.371  30.090  -5.440  0.00  0.00     0.090 H 
ATOM     54  O4  GCU d 401      -3.306  26.280  -3.971  0.00  0.00    -0.390 OA
ATOM     55  C4  GCU d 401      -1.938  26.343  -3.556  0.00  0.00     0.097 C 
ATOM     56  C6  GCU d 401      -1.965  28.874  -3.341  0.00  0.00     0.206 C 
ATOM     57  C2  GCU d 401       0.279  25.437  -4.237  0.00  0.00     0.110 C 
ATOM     58  O3  GCU d 401      -1.560  23.991  -3.573  0.00  0.00    -0.390 OA
ATOM     59  C1  GCU d 401       0.670  26.838  -4.707  0.00  0.00     0.160 C 
ATOM     60  O2  GCU d 401       0.909  24.454  -5.044  0.00  0.00    -0.388 OA
ATOM     61  O6B GCU d 401      -3.187  28.687  -3.162  0.00  0.00    -0.646 OA
ATOM     62  C3  GCU d 401      -1.213  25.205  -4.257  0.00  0.00     0.092 C 
ATOM     63  O5  GCU d 401       0.032  27.744  -3.804  0.00  0.00    -0.340 OA
ATOM     64  C5  GCU d 401      -1.368  27.696  -4.010  0.00  0.00     0.152 C 
ATOM     65  O6A GCU d 401      -1.170  29.809  -3.108  0.00  0.00    -0.646 OA
ATOM     66  H   GCU d 401      -3.690  25.433  -3.695  0.00  0.00     0.210 HD
ATOM     67  H   GCU d 401      -1.828  26.254  -2.495  0.00  0.00     0.091 H 
ATOM     68  H   GCU d 401       0.608  25.356  -3.223  0.00  0.00     0.094 H 
ATOM     69  H   GCU d 401      -2.522  23.868  -3.601  0.00  0.00     0.210 HD
ATOM     70  H   GCU d 401       0.379  27.013  -5.722  0.00  0.00     0.133 H 
ATOM     71  H   GCU d 401       0.599  24.541  -5.960  0.00  0.00     0.210 HD
ATOM     72  H   GCU d 401      -1.505  25.144  -5.284  0.00  0.00     0.091 H 
ATOM     73  H   GCU d 401      -1.616  27.756  -5.049  0.00  0.00     0.104 H 
ATOM     74  O4  GCU d 405      11.412  29.224 -15.734  0.00  0.00    -0.189 OA
ATOM     75  O2  GCU d 403       9.382  27.023 -10.215  0.00  0.00    -0.388 OA
ATOM     76  C5  GCU d 403       5.452  28.405 -10.318  0.00  0.00     0.152 C 
ATOM     77  O5  GCU d 403       6.484  28.950 -11.095  0.00  0.00    -0.340 OA
ATOM     78  C6  GCU d 403       4.309  29.355 -10.294  0.00  0.00     0.206 C 
ATOM     79  C3  GCU d 403       7.251  27.143  -9.129  0.00  0.00     0.092 C 
ATOM     80  O3  GCU d 403       7.739  26.717  -7.848  0.00  0.00    -0.390 OA
ATOM     81  C1  GCU d 403       7.733  28.340 -11.264  0.00  0.00     0.160 C 
ATOM     82  O4  GCU d 403       5.058  27.360  -8.153  0.00  0.00    -0.348 OA
ATOM     83  O6A GCU d 403       4.550  30.570 -10.103  0.00  0.00    -0.646 OA
ATOM     84  C2  GCU d 403       8.293  27.896  -9.914  0.00  0.00     0.110 C 
ATOM     85  C4  GCU d 403       6.014  28.006  -8.949  0.00  0.00     0.103 C 
ATOM     86  O6B GCU d 403       3.174  28.867 -10.464  0.00  0.00    -0.646 OA
ATOM     87  H   GCU d 403       9.780  26.707  -9.389  0.00  0.00     0.210 HD
ATOM     88  H   GCU d 403       5.060  27.501 -10.735  0.00  0.00     0.104 H 
ATOM     89  H   GCU d 403       7.004  26.264  -9.688  0.00  0.00     0.091 H 
ATOM     90  H   GCU d 403       7.973  27.494  -7.316  0.00  0.00     0.210 HD
ATOM     91  H   GCU d 403       7.438  27.577 -11.955  0.00  0.00     0.133 H 
ATOM     92  H   GCU d 403       8.595  28.738  -9.326  0.00  0.00     0.094 H 
ATOM     93  H   GCU d 403       6.287  28.901  -8.431  0.00  0.00     0.092 H 
ENDROOT
TORSDOF 23
ENDMDL
MODEL 5
REMARK VINA RESULT:      -7.7      2.687     12.347
REMARK  0 active torsions:
REMARK  status: ('A' for Active; 'I' for Inactive)
REMARK       I    between atoms: C8_1  and  C7_27 
REMARK       I    between atoms: O6_2  and  C6_34 
REMARK       I    between atoms: O4_3  and  C4_39 
REMARK       I    between atoms: O4_4  and  C4_6 
REMARK       I    between atoms: O2_7  and  C2_37 
REMARK       I    between atoms: C7_9  and  C8_15 
REMARK       I    between atoms: C7_9  and  N2_13 
REMARK       I    between atoms: N2_10  and  C2_53 
REMARK       I    between atoms: N2_10  and  C7_27 
REMARK       I    between atoms: C6_11  and  C5_48 
REMARK       I    between atoms: C5_12  and  C6_17 
REMARK       I    between atoms: N2_13  and  C2_19 
REMARK       I    between atoms: C2_16  and  O2_42 
REMARK       I    between atoms: C3_18  and  O3_23 
REMARK       I    between atoms: O3_20  and  C1_24 
REMARK       I    between atoms: O3_20  and  C3_22 
REMARK       I    between atoms: O6_21  and  C6_28 
REMARK       I    between atoms: O4_25  and  C4_50 
REMARK       I    between atoms: O4_26  and  C1_33 
REMARK       I    between atoms: O4_26  and  C4_41 
REMARK       I    between atoms: C6_28  and  C5_43 
REMARK       I    between atoms: C5_29  and  C6_34 
REMARK       I    between atoms: O3_30  and  C3_46 
REMARK       I    between atoms: C3_31  and  O3_49 
REMARK       I    between atoms: C1_38  and  O3_49 
ROOT
ATOM      1  C8  NAG d 404       8.311  25.267 -14.660  0.00  0.00    -0.003 C 
ATOM      2  O6  NAG d 404       8.732  32.718 -15.729  0.00  0.00    -0.398 OA
ATOM      3  N2  NAG d 404       9.298  27.116 -13.442  0.00  0.00    -0.349 N 
ATOM      4  O3  NAG d 404       8.407  28.879 -10.963  0.00  0.00    -0.348 OA
ATOM      5  C3  NAG d 404       8.406  29.164 -12.322  0.00  0.00     0.093 C 
ATOM      6  O4  NAG d 404       7.341  31.357 -11.937  0.00  0.00    -0.390 OA
ATOM      7  C7  NAG d 404       8.566  26.741 -14.538  0.00  0.00     0.214 C 
ATOM      8  C5  NAG d 404       8.183  30.869 -14.114  0.00  0.00     0.089 C 
ATOM      9  C6  NAG d 404       8.063  32.317 -14.524  0.00  0.00     0.043 C 
ATOM     10  O5  NAG d 404       9.241  30.206 -14.798  0.00  0.00    -0.337 OA
ATOM     11  C1  NAG d 404      10.117  29.423 -14.048  0.00  0.00     0.283 C 
ATOM     12  O7  NAG d 404       8.146  27.540 -15.371  0.00  0.00    -0.274 OA
ATOM     13  C4  NAG d 404       8.400  30.665 -12.608  0.00  0.00     0.089 C 
ATOM     14  C2  NAG d 404       9.590  28.493 -13.005  0.00  0.00     0.102 C 
ATOM     15  H   NAG d 404       8.762  24.757 -13.834  0.00  0.00     0.040 H 
ATOM     16  H   NAG d 404       8.732  24.906 -15.575  0.00  0.00     0.040 H 
ATOM     17  H   NAG d 404       7.256  25.086 -14.657  0.00  0.00     0.040 H 
ATOM     18  H   NAG d 404       8.581  33.663 -15.883  0.00  0.00     0.209 HD
ATOM     19  H   NAG d 404       9.667  26.390 -12.889  0.00  0.00     0.163 HD
ATOM     20  H   NAG d 404       7.497  28.769 -12.725  0.00  0.00     0.091 H 
ATOM     21  H   NAG d 404       7.443  31.252 -10.978  0.00  0.00     0.210 HD
ATOM     22  H   NAG d 404       7.238  30.446 -14.383  0.00  0.00     0.090 H 
ATOM     23  H   NAG d 404       7.022  32.530 -14.647  0.00  0.00     0.078 H 
ATOM     24  H   NAG d 404       8.550  32.864 -13.744  0.00  0.00     0.078 H 
ATOM     25  H   NAG d 404       9.334  31.055 -12.261  0.00  0.00     0.091 H 
ATOM     26  H   NAG d 404      10.385  28.329 -12.308  0.00  0.00     0.085 H 
ATOM     27  O4  NAG d 402       2.495  29.320  -2.796  0.00  0.00    -0.390 OA
ATOM     28  O5  NAG d 402       4.965  28.551  -5.343  0.00  0.00    -0.349 OA
ATOM     29  C7  NAG d 402       2.414  24.897  -6.789  0.00  0.00     0.214 C 
ATOM     30  N2  NAG d 402       2.383  26.251  -6.630  0.00  0.00    -0.349 N 
ATOM     31  C8  NAG d 402       1.529  24.283  -7.860  0.00  0.00    -0.003 C 
ATOM     32  C2  NAG d 402       3.182  26.950  -5.610  0.00  0.00     0.087 C 
ATOM     33  O6  NAG d 402       6.320  29.265  -3.051  0.00  0.00    -0.398 OA
ATOM     34  C6  NAG d 402       5.269  30.082  -3.563  0.00  0.00     0.043 C 
ATOM     35  C3  NAG d 402       2.359  27.697  -4.575  0.00  0.00     0.093 C 
ATOM     36  O7  NAG d 402       3.107  24.159  -6.119  0.00  0.00    -0.274 OA
ATOM     37  C1  NAG d 402       4.149  27.909  -6.310  0.00  0.00     0.154 C 
ATOM     38  C4  NAG d 402       3.290  28.477  -3.635  0.00  0.00     0.089 C 
ATOM     39  C5  NAG d 402       4.248  29.362  -4.410  0.00  0.00     0.089 C 
ATOM     40  O3  NAG d 402       1.691  26.793  -3.728  0.00  0.00    -0.348 OA
ATOM     41  H   NAG d 402       1.873  28.776  -2.289  0.00  0.00     0.210 HD
ATOM     42  H   NAG d 402       1.803  26.783  -7.221  0.00  0.00     0.163 HD
ATOM     43  H   NAG d 402       0.984  25.057  -8.359  0.00  0.00     0.040 H 
ATOM     44  H   NAG d 402       0.842  23.599  -7.407  0.00  0.00     0.040 H 
ATOM     45  H   NAG d 402       2.137  23.761  -8.569  0.00  0.00     0.040 H 
ATOM     46  H   NAG d 402       3.711  26.198  -5.063  0.00  0.00     0.084 H 
ATOM     47  H   NAG d 402       6.924  29.810  -2.523  0.00  0.00     0.209 HD
ATOM     48  H   NAG d 402       5.710  30.852  -4.160  0.00  0.00     0.078 H 
ATOM     49  H   NAG d 402       4.739  30.452  -2.710  0.00  0.00     0.078 H 
ATOM     50  H   NAG d 402       1.681  28.328  -5.111  0.00  0.00     0.091 H 
ATOM     51  H   NAG d 402       3.627  28.683  -6.832  0.00  0.00     0.132 H 
ATOM     52  H   NAG d 402       3.855  27.770  -3.065  0.00  0.00     0.091 H 
ATOM     53  H   NAG d 402       3.642  30.111  -4.874  0.00  0.00     0.090 H 
ATOM     54  O4  GCU d 401      -3.450  25.381  -3.158  0.00  0.00    -0.390 OA
ATOM     55  C4  GCU d 401      -2.128  25.700  -2.714  0.00  0.00     0.097 C 
ATOM     56  C6  GCU d 401      -2.538  28.205  -2.819  0.00  0.00     0.206 C 
ATOM     57  C2  GCU d 401       0.228  25.067  -3.214  0.00  0.00     0.110 C 
ATOM     58  O3  GCU d 401      -1.406  23.448  -2.426  0.00  0.00    -0.390 OA
ATOM     59  C1  GCU d 401       0.430  26.444  -3.844  0.00  0.00     0.160 C 
ATOM     60  O2  GCU d 401       1.033  24.102  -3.873  0.00  0.00    -0.388 OA
ATOM     61  O6B GCU d 401      -3.726  27.857  -2.653  0.00  0.00    -0.646 OA
ATOM     62  C3  GCU d 401      -1.210  24.610  -3.247  0.00  0.00     0.092 C 
ATOM     63  O5  GCU d 401      -0.376  27.344  -3.081  0.00  0.00    -0.340 OA
ATOM     64  C5  GCU d 401      -1.742  27.060  -3.319  0.00  0.00     0.152 C 
ATOM     65  O6A GCU d 401      -1.901  29.271  -2.683  0.00  0.00    -0.646 OA
ATOM     66  H   GCU d 401      -3.717  24.524  -2.788  0.00  0.00     0.210 HD
ATOM     67  H   GCU d 401      -2.056  25.757  -1.649  0.00  0.00     0.091 H 
ATOM     68  H   GCU d 401       0.518  25.159  -2.188  0.00  0.00     0.094 H 
ATOM     69  H   GCU d 401      -2.337  23.177  -2.465  0.00  0.00     0.210 HD
ATOM     70  H   GCU d 401       0.164  26.451  -4.881  0.00  0.00     0.133 H 
ATOM     71  H   GCU d 401       0.758  24.031  -4.801  0.00  0.00     0.210 HD
ATOM     72  H   GCU d 401      -1.442  24.383  -4.266  0.00  0.00     0.091 H 
ATOM     73  H   GCU d 401      -1.948  26.957  -4.364  0.00  0.00     0.104 H 
ATOM     74  O4  GCU d 405      11.208  29.100 -14.774  0.00  0.00    -0.189 OA
ATOM     75  O2  GCU d 403       9.268  27.292  -9.082  0.00  0.00    -0.388 OA
ATOM     76  C5  GCU d 403       5.187  28.038  -9.469  0.00  0.00     0.152 C 
ATOM     77  O5  GCU d 403       6.162  28.637 -10.279  0.00  0.00    -0.340 OA
ATOM     78  C6  GCU d 403       3.916  28.799  -9.598  0.00  0.00     0.206 C 
ATOM     79  C3  GCU d 403       7.095  27.216  -8.082  0.00  0.00     0.092 C 
ATOM     80  O3  GCU d 403       7.579  27.026  -6.744  0.00  0.00    -0.390 OA
ATOM     81  C1  GCU d 403       7.494  28.208 -10.335  0.00  0.00     0.160 C 
ATOM     82  O4  GCU d 403       4.850  27.212  -7.203  0.00  0.00    -0.348 OA
ATOM     83  O6A GCU d 403       3.966  30.051  -9.553  0.00  0.00    -0.646 OA
ATOM     84  C2  GCU d 403       8.049  28.020  -8.924  0.00  0.00     0.110 C 
ATOM     85  C4  GCU d 403       5.736  27.896  -8.046  0.00  0.00     0.103 C 
ATOM     86  O6B GCU d 403       2.875  28.127  -9.737  0.00  0.00    -0.646 OA
ATOM     87  H   GCU d 403       9.669  27.141  -8.213  0.00  0.00     0.210 HD
ATOM     88  H   GCU d 403       4.952  27.042  -9.781  0.00  0.00     0.104 H 
ATOM     89  H   GCU d 403       7.007  26.249  -8.532  0.00  0.00     0.091 H 
ATOM     90  H   GCU d 403       7.671  27.887  -6.307  0.00  0.00     0.210 HD
ATOM     91  H   GCU d 403       7.348  27.332 -10.933  0.00  0.00     0.133 H 
ATOM     92  H   GCU d 403       8.196  28.962  -8.439  0.00  0.00     0.094 H 
ATOM     93  H   GCU d 403       5.849  28.878  -7.637  0.00  0.00     0.092 H 
ENDROOT
TORSDOF 23
ENDMDL
MODEL 6
REMARK VINA RESULT:      -7.4      2.254     12.141
REMARK  0 active torsions:
REMARK  status: ('A' for Active; 'I' for Inactive)
REMARK       I    between atoms: C8_1  and  C7_27 
REMARK       I    between atoms: O6_2  and  C6_34 
REMARK       I    between atoms: O4_3  and  C4_39 
REMARK       I    between atoms: O4_4  and  C4_6 
REMARK       I    between atoms: O2_7  and  C2_37 
REMARK       I    between atoms: C7_9  and  C8_15 
REMARK       I    between atoms: C7_9  and  N2_13 
REMARK       I    between atoms: N2_10  and  C2_53 
REMARK       I    between atoms: N2_10  and  C7_27 
REMARK       I    between atoms: C6_11  and  C5_48 
REMARK       I    between atoms: C5_12  and  C6_17 
REMARK       I    between atoms: N2_13  and  C2_19 
REMARK       I    between atoms: C2_16  and  O2_42 
REMARK       I    between atoms: C3_18  and  O3_23 
REMARK       I    between atoms: O3_20  and  C1_24 
REMARK       I    between atoms: O3_20  and  C3_22 
REMARK       I    between atoms: O6_21  and  C6_28 
REMARK       I    between atoms: O4_25  and  C4_50 
REMARK       I    between atoms: O4_26  and  C1_33 
REMARK       I    between atoms: O4_26  and  C4_41 
REMARK       I    between atoms: C6_28  and  C5_43 
REMARK       I    between atoms: C5_29  and  C6_34 
REMARK       I    between atoms: O3_30  and  C3_46 
REMARK       I    between atoms: C3_31  and  O3_49 
REMARK       I    between atoms: C1_38  and  O3_49 
ROOT
ATOM      1  C8  NAG d 404       8.903  27.434 -15.375  0.00  0.00    -0.003 C 
ATOM      2  O6  NAG d 404       9.938  34.888 -14.927  0.00  0.00    -0.398 OA
ATOM      3  N2  NAG d 404       9.996  28.917 -13.799  0.00  0.00    -0.349 N 
ATOM      4  O3  NAG d 404       9.173  30.221 -11.030  0.00  0.00    -0.348 OA
ATOM      5  C3  NAG d 404       9.235  30.769 -12.304  0.00  0.00     0.093 C 
ATOM      6  O4  NAG d 404       8.334  32.922 -11.502  0.00  0.00    -0.390 OA
ATOM      7  C7  NAG d 404       9.269  28.828 -14.957  0.00  0.00     0.214 C 
ATOM      8  C5  NAG d 404       9.198  32.807 -13.721  0.00  0.00     0.089 C 
ATOM      9  C6  NAG d 404       9.204  34.313 -13.835  0.00  0.00     0.043 C 
ATOM     10  O5  NAG d 404      10.221  32.208 -14.510  0.00  0.00    -0.337 OA
ATOM     11  C1  NAG d 404      11.011  31.223 -13.920  0.00  0.00     0.283 C 
ATOM     12  O7  NAG d 404       8.938  29.809 -15.619  0.00  0.00    -0.274 OA
ATOM     13  C4  NAG d 404       9.354  32.292 -12.284  0.00  0.00     0.089 C 
ATOM     14  C2  NAG d 404      10.382  30.151 -13.091  0.00  0.00     0.102 C 
ATOM     15  H   NAG d 404       9.288  26.735 -14.662  0.00  0.00     0.040 H 
ATOM     16  H   NAG d 404       9.322  27.228 -16.338  0.00  0.00     0.040 H 
ATOM     17  H   NAG d 404       7.838  27.344 -15.422  0.00  0.00     0.040 H 
ATOM     18  H   NAG d 404       9.865  35.855 -14.891  0.00  0.00     0.209 HD
ATOM     19  H   NAG d 404      10.290  28.068 -13.397  0.00  0.00     0.163 HD
ATOM     20  H   NAG d 404       8.309  30.538 -12.790  0.00  0.00     0.091 H 
ATOM     21  H   NAG d 404       8.398  32.621 -10.582  0.00  0.00     0.210 HD
ATOM     22  H   NAG d 404       8.231  32.525 -14.082  0.00  0.00     0.090 H 
ATOM     23  H   NAG d 404       8.187  34.632 -13.927  0.00  0.00     0.078 H 
ATOM     24  H   NAG d 404       9.709  34.653 -12.955  0.00  0.00     0.078 H 
ATOM     25  H   NAG d 404      10.305  32.527 -11.854  0.00  0.00     0.091 H 
ATOM     26  H   NAG d 404      11.140  29.787 -12.430  0.00  0.00     0.085 H 
ATOM     27  O4  NAG d 402       3.075  29.520  -3.019  0.00  0.00    -0.390 OA
ATOM     28  O5  NAG d 402       5.551  29.070  -5.635  0.00  0.00    -0.349 OA
ATOM     29  C7  NAG d 402       2.766  25.998  -7.816  0.00  0.00     0.214 C 
ATOM     30  N2  NAG d 402       2.837  27.292  -7.389  0.00  0.00    -0.349 N 
ATOM     31  C8  NAG d 402       1.868  25.685  -9.000  0.00  0.00    -0.003 C 
ATOM     32  C2  NAG d 402       3.657  27.706  -6.240  0.00  0.00     0.087 C 
ATOM     33  O6  NAG d 402       6.890  29.202  -3.229  0.00  0.00    -0.398 OA
ATOM     34  C6  NAG d 402       5.922  30.188  -3.581  0.00  0.00     0.043 C 
ATOM     35  C3  NAG d 402       2.865  28.299  -5.088  0.00  0.00     0.093 C 
ATOM     36  O7  NAG d 402       3.380  25.088  -7.298  0.00  0.00    -0.274 OA
ATOM     37  C1  NAG d 402       4.717  28.702  -6.722  0.00  0.00     0.154 C 
ATOM     38  C4  NAG d 402       3.826  28.798  -3.999  0.00  0.00     0.089 C 
ATOM     39  C5  NAG d 402       4.873  29.736  -4.568  0.00  0.00     0.089 C 
ATOM     40  O3  NAG d 402       2.104  27.303  -4.448  0.00  0.00    -0.348 OA
ATOM     41  H   NAG d 402       2.397  28.940  -2.639  0.00  0.00     0.210 HD
ATOM     42  H   NAG d 402       2.318  27.977  -7.870  0.00  0.00     0.163 HD
ATOM     43  H   NAG d 402       1.400  26.584  -9.341  0.00  0.00     0.040 H 
ATOM     44  H   NAG d 402       1.117  24.983  -8.701  0.00  0.00     0.040 H 
ATOM     45  H   NAG d 402       2.454  25.265  -9.790  0.00  0.00     0.040 H 
ATOM     46  H   NAG d 402       4.110  26.820  -5.848  0.00  0.00     0.084 H 
ATOM     47  H   NAG d 402       7.519  29.579  -2.594  0.00  0.00     0.209 HD
ATOM     48  H   NAG d 402       6.439  31.022  -4.006  0.00  0.00     0.078 H 
ATOM     49  H   NAG d 402       5.397  30.423  -2.678  0.00  0.00     0.078 H 
ATOM     50  H   NAG d 402       2.255  29.077  -5.496  0.00  0.00     0.091 H 
ATOM     51  H   NAG d 402       4.272  29.605  -7.084  0.00  0.00     0.132 H 
ATOM     52  H   NAG d 402       4.317  27.948  -3.574  0.00  0.00     0.091 H 
ATOM     53  H   NAG d 402       4.341  30.610  -4.881  0.00  0.00     0.090 H 
ATOM     54  O4  GCU d 401      -3.147  26.235  -4.240  0.00  0.00    -0.390 OA
ATOM     55  C4  GCU d 401      -1.817  26.350  -3.724  0.00  0.00     0.097 C 
ATOM     56  C6  GCU d 401      -2.027  28.851  -3.331  0.00  0.00     0.206 C 
ATOM     57  C2  GCU d 401       0.496  25.636  -4.308  0.00  0.00     0.110 C 
ATOM     58  O3  GCU d 401      -1.283  24.033  -3.882  0.00  0.00    -0.390 OA
ATOM     59  C1  GCU d 401       0.823  27.090  -4.647  0.00  0.00     0.160 C 
ATOM     60  O2  GCU d 401       1.242  24.758  -5.136  0.00  0.00    -0.388 OA
ATOM     61  O6B GCU d 401      -3.243  28.577  -3.254  0.00  0.00    -0.646 OA
ATOM     62  C3  GCU d 401      -0.972  25.316  -4.451  0.00  0.00     0.092 C 
ATOM     63  O5  GCU d 401       0.068  27.884  -3.731  0.00  0.00    -0.340 OA
ATOM     64  C5  GCU d 401      -1.309  27.766  -4.039  0.00  0.00     0.152 C 
ATOM     65  O6A GCU d 401      -1.313  29.812  -2.976  0.00  0.00    -0.646 OA
ATOM     66  H   GCU d 401      -3.490  25.347  -4.052  0.00  0.00     0.210 HD
ATOM     67  H   GCU d 401      -1.772  26.188  -2.667  0.00  0.00     0.091 H 
ATOM     68  H   GCU d 401       0.761  25.499  -3.281  0.00  0.00     0.094 H 
ATOM     69  H   GCU d 401      -2.230  23.854  -3.987  0.00  0.00     0.210 HD
ATOM     70  H   GCU d 401       0.590  27.323  -5.666  0.00  0.00     0.133 H 
ATOM     71  H   GCU d 401       0.990  24.895  -6.063  0.00  0.00     0.210 HD
ATOM     72  H   GCU d 401      -1.190  25.315  -5.498  0.00  0.00     0.091 H 
ATOM     73  H   GCU d 401      -1.491  27.890  -5.086  0.00  0.00     0.104 H 
ATOM     74  O4  GCU d 405      12.094  30.961 -14.682  0.00  0.00    -0.189 OA
ATOM     75  O2  GCU d 403       9.851  28.227  -9.493  0.00  0.00    -0.388 OA
ATOM     76  C5  GCU d 403       5.854  29.369  -9.777  0.00  0.00     0.152 C 
ATOM     77  O5  GCU d 403       6.897  30.034 -10.438  0.00  0.00    -0.340 OA
ATOM     78  C6  GCU d 403       4.651  30.242  -9.767  0.00  0.00     0.206 C 
ATOM     79  C3  GCU d 403       7.650  28.133  -8.556  0.00  0.00     0.092 C 
ATOM     80  O3  GCU d 403       8.079  27.642  -7.277  0.00  0.00    -0.390 OA
ATOM     81  C1  GCU d 403       8.192  29.516 -10.560  0.00  0.00     0.160 C 
ATOM     82  O4  GCU d 403       5.387  28.141  -7.726  0.00  0.00    -0.348 OA
ATOM     83  O6A GCU d 403       4.797  31.452  -9.473  0.00  0.00    -0.646 OA
ATOM     84  C2  GCU d 403       8.689  29.007  -9.209  0.00  0.00     0.110 C 
ATOM     85  C4  GCU d 403       6.349  28.902  -8.404  0.00  0.00     0.103 C 
ATOM     86  O6B GCU d 403       3.565  29.700 -10.052  0.00  0.00    -0.646 OA
ATOM     87  H   GCU d 403      10.214  27.874  -8.666  0.00  0.00     0.210 HD
ATOM     88  H   GCU d 403       5.552  28.477 -10.285  0.00  0.00     0.104 H 
ATOM     89  H   GCU d 403       7.500  27.286  -9.192  0.00  0.00     0.091 H 
ATOM     90  H   GCU d 403       8.224  28.390  -6.676  0.00  0.00     0.210 HD
ATOM     91  H   GCU d 403       7.995  28.791 -11.323  0.00  0.00     0.133 H 
ATOM     92  H   GCU d 403       8.895  29.818  -8.543  0.00  0.00     0.094 H 
ATOM     93  H   GCU d 403       6.526  29.771  -7.805  0.00  0.00     0.092 H 
ENDROOT
TORSDOF 23
ENDMDL
MODEL 7
REMARK VINA RESULT:      -7.4      2.059      2.361
REMARK  0 active torsions:
REMARK  status: ('A' for Active; 'I' for Inactive)
REMARK       I    between atoms: C8_1  and  C7_27 
REMARK       I    between atoms: O6_2  and  C6_34 
REMARK       I    between atoms: O4_3  and  C4_39 
REMARK       I    between atoms: O4_4  and  C4_6 
REMARK       I    between atoms: O2_7  and  C2_37 
REMARK       I    between atoms: C7_9  and  C8_15 
REMARK       I    between atoms: C7_9  and  N2_13 
REMARK       I    between atoms: N2_10  and  C2_53 
REMARK       I    between atoms: N2_10  and  C7_27 
REMARK       I    between atoms: C6_11  and  C5_48 
REMARK       I    between atoms: C5_12  and  C6_17 
REMARK       I    between atoms: N2_13  and  C2_19 
REMARK       I    between atoms: C2_16  and  O2_42 
REMARK       I    between atoms: C3_18  and  O3_23 
REMARK       I    between atoms: O3_20  and  C1_24 
REMARK       I    between atoms: O3_20  and  C3_22 
REMARK       I    between atoms: O6_21  and  C6_28 
REMARK       I    between atoms: O4_25  and  C4_50 
REMARK       I    between atoms: O4_26  and  C1_33 
REMARK       I    between atoms: O4_26  and  C4_41 
REMARK       I    between atoms: C6_28  and  C5_43 
REMARK       I    between atoms: C5_29  and  C6_34 
REMARK       I    between atoms: O3_30  and  C3_46 
REMARK       I    between atoms: C3_31  and  O3_49 
REMARK       I    between atoms: C1_38  and  O3_49 
ROOT
ATOM      1  C8  NAG d 404      -0.350  30.966  -4.537  0.00  0.00    -0.003 C 
ATOM      2  O6  NAG d 404      -0.065  23.451  -5.072  0.00  0.00    -0.398 OA
ATOM      3  N2  NAG d 404       1.237  29.263  -3.863  0.00  0.00    -0.349 N 
ATOM      4  O3  NAG d 404       3.920  28.106  -5.093  0.00  0.00    -0.348 OA
ATOM      5  C3  NAG d 404       2.636  27.580  -5.071  0.00  0.00     0.093 C 
ATOM      6  O4  NAG d 404       3.326  25.644  -6.437  0.00  0.00    -0.390 OA
ATOM      7  C7  NAG d 404       0.045  29.518  -4.488  0.00  0.00     0.214 C 
ATOM      8  C5  NAG d 404       1.159  25.618  -5.441  0.00  0.00     0.089 C 
ATOM      9  C6  NAG d 404       1.003  24.146  -5.735  0.00  0.00     0.043 C 
ATOM     10  O5  NAG d 404       0.444  26.008  -4.273  0.00  0.00    -0.337 OA
ATOM     11  C1  NAG d 404       1.103  26.800  -3.334  0.00  0.00     0.283 C 
ATOM     12  O7  NAG d 404      -0.661  28.639  -4.974  0.00  0.00    -0.274 OA
ATOM     13  C4  NAG d 404       2.618  26.065  -5.266  0.00  0.00     0.089 C 
ATOM     14  C2  NAG d 404       1.929  27.963  -3.778  0.00  0.00     0.102 C 
ATOM     15  H   NAG d 404       0.402  31.558  -4.059  0.00  0.00     0.040 H 
ATOM     16  H   NAG d 404      -1.284  31.098  -4.030  0.00  0.00     0.040 H 
ATOM     17  H   NAG d 404      -0.451  31.273  -5.557  0.00  0.00     0.040 H 
ATOM     18  H   NAG d 404      -0.061  22.519  -5.342  0.00  0.00     0.209 HD
ATOM     19  H   NAG d 404       1.679  30.026  -3.425  0.00  0.00     0.163 HD
ATOM     20  H   NAG d 404       2.108  28.005  -5.900  0.00  0.00     0.091 H 
ATOM     21  H   NAG d 404       4.256  25.909  -6.365  0.00  0.00     0.210 HD
ATOM     22  H   NAG d 404       0.757  26.099  -6.307  0.00  0.00     0.090 H 
ATOM     23  H   NAG d 404       0.847  24.044  -6.789  0.00  0.00     0.078 H 
ATOM     24  H   NAG d 404       1.898  23.694  -5.362  0.00  0.00     0.078 H 
ATOM     25  H   NAG d 404       3.090  25.632  -4.409  0.00  0.00     0.091 H 
ATOM     26  H   NAG d 404       2.639  28.152  -3.001  0.00  0.00     0.085 H 
ATOM     27  O4  NAG d 402      11.614  29.903 -11.372  0.00  0.00    -0.390 OA
ATOM     28  O5  NAG d 402       9.147  29.881  -8.709  0.00  0.00    -0.349 OA
ATOM     29  C7  NAG d 402       6.912  33.497 -10.678  0.00  0.00     0.214 C 
ATOM     30  N2  NAG d 402       7.304  32.208 -10.898  0.00  0.00    -0.349 N 
ATOM     31  C8  NAG d 402       5.692  34.009 -11.424  0.00  0.00    -0.003 C 
ATOM     32  C2  NAG d 402       8.482  31.614 -10.247  0.00  0.00     0.087 C 
ATOM     33  O6  NAG d 402      11.616  29.434  -7.567  0.00  0.00    -0.398 OA
ATOM     34  C6  NAG d 402      11.185  28.675  -8.694  0.00  0.00     0.043 C 
ATOM     35  C3  NAG d 402       9.574  31.177 -11.208  0.00  0.00     0.093 C 
ATOM     36  O7  NAG d 402       7.488  34.252  -9.923  0.00  0.00    -0.274 OA
ATOM     37  C1  NAG d 402       8.029  30.431  -9.387  0.00  0.00     0.154 C 
ATOM     38  C4  NAG d 402      10.697  30.472 -10.434  0.00  0.00     0.089 C 
ATOM     39  C5  NAG d 402      10.157  29.349  -9.569  0.00  0.00     0.089 C 
ATOM     40  O3  NAG d 402      10.201  32.296 -11.787  0.00  0.00    -0.348 OA
ATOM     41  H   NAG d 402      11.974  30.603 -11.938  0.00  0.00     0.210 HD
ATOM     42  H   NAG d 402       6.777  31.654 -11.517  0.00  0.00     0.163 HD
ATOM     43  H   NAG d 402       5.300  33.230 -12.045  0.00  0.00     0.040 H 
ATOM     44  H   NAG d 402       5.970  34.844 -12.032  0.00  0.00     0.040 H 
ATOM     45  H   NAG d 402       4.946  34.313 -10.720  0.00  0.00     0.040 H 
ATOM     46  H   NAG d 402       8.924  32.382  -9.647  0.00  0.00     0.084 H 
ATOM     47  H   NAG d 402      12.271  28.925  -7.065  0.00  0.00     0.209 HD
ATOM     48  H   NAG d 402      10.763  27.760  -8.334  0.00  0.00     0.078 H 
ATOM     49  H   NAG d 402      12.051  28.536  -9.306  0.00  0.00     0.078 H 
ATOM     50  H   NAG d 402       9.111  30.548 -11.940  0.00  0.00     0.091 H 
ATOM     51  H   NAG d 402       7.617  29.645  -9.985  0.00  0.00     0.132 H 
ATOM     52  H   NAG d 402      11.172  31.196  -9.806  0.00  0.00     0.091 H 
ATOM     53  H   NAG d 402       9.790  28.609 -10.250  0.00  0.00     0.090 H 
ATOM     54  O4  GCU d 401      10.162  34.416 -16.712  0.00  0.00    -0.390 OA
ATOM     55  C4  GCU d 401      10.744  34.021 -15.465  0.00  0.00     0.097 C 
ATOM     56  C6  GCU d 401      11.052  31.610 -16.203  0.00  0.00     0.206 C 
ATOM     57  C2  GCU d 401      10.303  34.255 -13.026  0.00  0.00     0.110 C 
ATOM     58  O3  GCU d 401      10.682  36.181 -14.462  0.00  0.00    -0.390 OA
ATOM     59  C1  GCU d 401       9.940  32.771 -12.983  0.00  0.00     0.160 C 
ATOM     60  O2  GCU d 401       9.542  34.976 -12.069  0.00  0.00    -0.388 OA
ATOM     61  O6B GCU d 401      11.073  32.127 -17.340  0.00  0.00    -0.646 OA
ATOM     62  C3  GCU d 401      10.093  34.873 -14.387  0.00  0.00     0.092 C 
ATOM     63  O5  GCU d 401      10.792  32.133 -13.935  0.00  0.00    -0.340 OA
ATOM     64  C5  GCU d 401      10.415  32.536 -15.239  0.00  0.00     0.152 C 
ATOM     65  O6A GCU d 401      11.416  30.516 -15.722  0.00  0.00    -0.646 OA
ATOM     66  H   GCU d 401      10.357  35.351 -16.877  0.00  0.00     0.210 HD
ATOM     67  H   GCU d 401      11.805  34.151 -15.450  0.00  0.00     0.091 H 
ATOM     68  H   GCU d 401      11.347  34.317 -12.798  0.00  0.00     0.094 H 
ATOM     69  H   GCU d 401      10.532  36.553 -15.345  0.00  0.00     0.210 HD
ATOM     70  H   GCU d 401       8.904  32.609 -13.200  0.00  0.00     0.133 H 
ATOM     71  H   GCU d 401       8.599  34.910 -12.291  0.00  0.00     0.210 HD
ATOM     72  H   GCU d 401       9.036  34.937 -14.539  0.00  0.00     0.091 H 
ATOM     73  H   GCU d 401       9.357  32.472 -15.382  0.00  0.00     0.104 H 
ATOM     74  O4  GCU d 405       0.408  26.847  -2.178  0.00  0.00    -0.189 OA
ATOM     75  O2  GCU d 403       5.548  29.891  -4.112  0.00  0.00    -0.388 OA
ATOM     76  C5  GCU d 403       5.020  29.599  -8.235  0.00  0.00     0.152 C 
ATOM     77  O5  GCU d 403       4.396  28.746  -7.313  0.00  0.00    -0.340 OA
ATOM     78  C6  GCU d 403       4.940  28.991  -9.589  0.00  0.00     0.206 C 
ATOM     79  C3  GCU d 403       6.369  30.418  -6.298  0.00  0.00     0.092 C 
ATOM     80  O3  GCU d 403       7.683  30.788  -5.853  0.00  0.00    -0.390 OA
ATOM     81  C1  GCU d 403       4.357  28.989  -5.935  0.00  0.00     0.160 C 
ATOM     82  O4  GCU d 403       7.078  30.861  -8.559  0.00  0.00    -0.348 OA
ATOM     83  O6A GCU d 403       5.207  27.772  -9.710  0.00  0.00    -0.646 OA
ATOM     84  C2  GCU d 403       5.747  29.362  -5.423  0.00  0.00     0.110 C 
ATOM     85  C4  GCU d 403       6.430  29.930  -7.736  0.00  0.00     0.103 C 
ATOM     86  O6B GCU d 403       4.614  29.750 -10.524  0.00  0.00    -0.646 OA
ATOM     87  H   GCU d 403       6.403  30.147  -3.733  0.00  0.00     0.210 HD
ATOM     88  H   GCU d 403       4.523  30.543  -8.319  0.00  0.00     0.104 H 
ATOM     89  H   GCU d 403       5.751  31.290  -6.235  0.00  0.00     0.091 H 
ATOM     90  H   GCU d 403       8.269  30.016  -5.898  0.00  0.00     0.210 HD
ATOM     91  H   GCU d 403       3.607  29.752  -5.935  0.00  0.00     0.133 H 
ATOM     92  H   GCU d 403       6.400  28.513  -5.426  0.00  0.00     0.094 H 
ATOM     93  H   GCU d 403       7.012  29.033  -7.774  0.00  0.00     0.092 H 
ENDROOT
TORSDOF 23
ENDMDL
MODEL 8
REMARK VINA RESULT:      -7.2      3.129      5.617
REMARK  0 active torsions:
REMARK  status: ('A' for Active; 'I' for Inactive)
REMARK       I    between atoms: C8_1  and  C7_27 
REMARK       I    between atoms: O6_2  and  C6_34 
REMARK       I    between atoms: O4_3  and  C4_39 
REMARK       I    between atoms: O4_4  and  C4_6 
REMARK       I    between atoms: O2_7  and  C2_37 
REMARK       I    between atoms: C7_9  and  C8_15 
REMARK       I    between atoms: C7_9  and  N2_13 
REMARK       I    between atoms: N2_10  and  C2_53 
REMARK       I    between atoms: N2_10  and  C7_27 
REMARK       I    between atoms: C6_11  and  C5_48 
REMARK       I    between atoms: C5_12  and  C6_17 
REMARK       I    between atoms: N2_13  and  C2_19 
REMARK       I    between atoms: C2_16  and  O2_42 
REMARK       I    between atoms: C3_18  and  O3_23 
REMARK       I    between atoms: O3_20  and  C1_24 
REMARK       I    between atoms: O3_20  and  C3_22 
REMARK       I    between atoms: O6_21  and  C6_28 
REMARK       I    between atoms: O4_25  and  C4_50 
REMARK       I    between atoms: O4_26  and  C1_33 
REMARK       I    between atoms: O4_26  and  C4_41 
REMARK       I    between atoms: C6_28  and  C5_43 
REMARK       I    between atoms: C5_29  and  C6_34 
REMARK       I    between atoms: O3_30  and  C3_46 
REMARK       I    between atoms: C3_31  and  O3_49 
REMARK       I    between atoms: C1_38  and  O3_49 
ROOT
ATOM      1  C8  NAG d 404       4.793  23.889  -3.443  0.00  0.00    -0.003 C 
ATOM      2  O6  NAG d 404       5.369  29.858   1.125  0.00  0.00    -0.398 OA
ATOM      3  N2  NAG d 404       3.631  26.006  -3.243  0.00  0.00    -0.349 N 
ATOM      4  O3  NAG d 404       3.833  28.807  -4.714  0.00  0.00    -0.348 OA
ATOM      5  C3  NAG d 404       4.291  28.407  -3.466  0.00  0.00     0.093 C 
ATOM      6  O4  NAG d 404       5.360  30.596  -3.073  0.00  0.00    -0.390 OA
ATOM      7  C7  NAG d 404       4.639  25.215  -2.757  0.00  0.00     0.214 C 
ATOM      8  C5  NAG d 404       5.216  29.059  -1.256  0.00  0.00     0.089 C 
ATOM      9  C6  NAG d 404       5.583  30.139  -0.267  0.00  0.00     0.043 C 
ATOM     10  O5  NAG d 404       4.378  28.065  -0.674  0.00  0.00    -0.337 OA
ATOM     11  C1  NAG d 404       3.246  27.667  -1.383  0.00  0.00     0.283 C 
ATOM     12  O7  NAG d 404       5.369  25.550  -1.828  0.00  0.00    -0.274 OA
ATOM     13  C4  NAG d 404       4.515  29.583  -2.517  0.00  0.00     0.089 C 
ATOM     14  C2  NAG d 404       3.333  27.396  -2.850  0.00  0.00     0.102 C 
ATOM     15  H   NAG d 404       4.062  23.801  -4.219  0.00  0.00     0.040 H 
ATOM     16  H   NAG d 404       4.656  23.101  -2.732  0.00  0.00     0.040 H 
ATOM     17  H   NAG d 404       5.773  23.819  -3.868  0.00  0.00     0.040 H 
ATOM     18  H   NAG d 404       5.641  30.624   1.655  0.00  0.00     0.209 HD
ATOM     19  H   NAG d 404       3.045  25.606  -3.925  0.00  0.00     0.163 HD
ATOM     20  H   NAG d 404       5.244  27.943  -3.614  0.00  0.00     0.091 H 
ATOM     21  H   NAG d 404       4.950  30.954  -3.876  0.00  0.00     0.210 HD
ATOM     22  H   NAG d 404       6.158  28.638  -1.539  0.00  0.00     0.090 H 
ATOM     23  H   NAG d 404       6.623  30.353  -0.395  0.00  0.00     0.078 H 
ATOM     24  H   NAG d 404       4.922  30.951  -0.488  0.00  0.00     0.078 H 
ATOM     25  H   NAG d 404       3.556  30.012  -2.316  0.00  0.00     0.091 H 
ATOM     26  H   NAG d 404       2.347  27.520  -3.246  0.00  0.00     0.085 H 
ATOM     27  O4  NAG d 402       6.856  33.583 -13.075  0.00  0.00    -0.390 OA
ATOM     28  O5  NAG d 402       5.269  31.490 -10.569  0.00  0.00    -0.349 OA
ATOM     29  C7  NAG d 402       7.827  27.814 -11.944  0.00  0.00     0.214 C 
ATOM     30  N2  NAG d 402       7.920  29.077 -11.437  0.00  0.00    -0.349 N 
ATOM     31  C8  NAG d 402       8.951  26.838 -11.642  0.00  0.00    -0.003 C 
ATOM     32  C2  NAG d 402       6.901  30.109 -11.684  0.00  0.00     0.087 C 
ATOM     33  O6  NAG d 402       3.321  33.099 -11.672  0.00  0.00    -0.398 OA
ATOM     34  C6  NAG d 402       4.545  33.655 -11.198  0.00  0.00     0.043 C 
ATOM     35  C3  NAG d 402       7.412  31.325 -12.436  0.00  0.00     0.093 C 
ATOM     36  O7  NAG d 402       6.896  27.432 -12.623  0.00  0.00    -0.274 OA
ATOM     37  C1  NAG d 402       6.292  30.533 -10.344  0.00  0.00     0.154 C 
ATOM     38  C4  NAG d 402       6.301  32.380 -12.537  0.00  0.00     0.089 C 
ATOM     39  C5  NAG d 402       5.717  32.705 -11.175  0.00  0.00     0.089 C 
ATOM     40  O3  NAG d 402       7.697  30.995 -13.775  0.00  0.00    -0.348 OA
ATOM     41  H   NAG d 402       7.236  33.401 -13.948  0.00  0.00     0.210 HD
ATOM     42  H   NAG d 402       8.701  29.307 -10.884  0.00  0.00     0.163 HD
ATOM     43  H   NAG d 402       9.690  27.321 -11.037  0.00  0.00     0.040 H 
ATOM     44  H   NAG d 402       9.397  26.513 -12.559  0.00  0.00     0.040 H 
ATOM     45  H   NAG d 402       8.558  25.993 -11.117  0.00  0.00     0.040 H 
ATOM     46  H   NAG d 402       6.163  29.670 -12.322  0.00  0.00     0.084 H 
ATOM     47  H   NAG d 402       2.628  33.778 -11.652  0.00  0.00     0.209 HD
ATOM     48  H   NAG d 402       4.384  34.007 -10.201  0.00  0.00     0.078 H 
ATOM     49  H   NAG d 402       4.806  34.430 -11.889  0.00  0.00     0.078 H 
ATOM     50  H   NAG d 402       8.276  31.677 -11.912  0.00  0.00     0.091 H 
ATOM     51  H   NAG d 402       7.017  31.005  -9.714  0.00  0.00     0.132 H 
ATOM     52  H   NAG d 402       5.526  31.988 -13.161  0.00  0.00     0.091 H 
ATOM     53  H   NAG d 402       6.501  33.187 -10.630  0.00  0.00     0.090 H 
ATOM     54  O4  GCU d 401      12.250  30.456 -16.555  0.00  0.00    -0.390 OA
ATOM     55  C4  GCU d 401      10.887  30.838 -16.343  0.00  0.00     0.097 C 
ATOM     56  C6  GCU d 401      11.521  33.012 -15.192  0.00  0.00     0.206 C 
ATOM     57  C2  GCU d 401       8.768  29.851 -15.486  0.00  0.00     0.110 C 
ATOM     58  O3  GCU d 401       9.923  28.947 -17.426  0.00  0.00    -0.390 OA
ATOM     59  C1  GCU d 401       8.895  30.738 -14.248  0.00  0.00     0.160 C 
ATOM     60  O2  GCU d 401       8.135  28.626 -15.151  0.00  0.00    -0.388 OA
ATOM     61  O6B GCU d 401      12.560  32.885 -15.873  0.00  0.00    -0.646 OA
ATOM     62  C3  GCU d 401      10.098  29.555 -16.136  0.00  0.00     0.092 C 
ATOM     63  O5  GCU d 401       9.489  31.957 -14.700  0.00  0.00    -0.340 OA
ATOM     64  C5  GCU d 401      10.831  31.707 -15.076  0.00  0.00     0.152 C 
ATOM     65  O6A GCU d 401      10.967  33.957 -14.592  0.00  0.00    -0.646 OA
ATOM     66  H   GCU d 401      12.312  29.906 -17.352  0.00  0.00     0.210 HD
ATOM     67  H   GCU d 401      10.485  31.391 -17.166  0.00  0.00     0.091 H 
ATOM     68  H   GCU d 401       8.176  30.399 -16.190  0.00  0.00     0.094 H 
ATOM     69  H   GCU d 401      10.791  28.768 -17.819  0.00  0.00     0.210 HD
ATOM     70  H   GCU d 401       9.476  30.270 -13.481  0.00  0.00     0.133 H 
ATOM     71  H   GCU d 401       8.684  28.143 -14.513  0.00  0.00     0.210 HD
ATOM     72  H   GCU d 401      10.621  28.888 -15.483  0.00  0.00     0.091 H 
ATOM     73  H   GCU d 401      11.349  31.134 -14.336  0.00  0.00     0.104 H 
ATOM     74  O4  GCU d 405       2.419  26.947  -0.595  0.00  0.00    -0.189 OA
ATOM     75  O2  GCU d 403       2.287  28.247  -6.737  0.00  0.00    -0.388 OA
ATOM     76  C5  GCU d 403       6.328  29.051  -7.365  0.00  0.00     0.152 C 
ATOM     77  O5  GCU d 403       5.715  29.107  -6.105  0.00  0.00    -0.340 OA
ATOM     78  C6  GCU d 403       7.633  29.759  -7.302  0.00  0.00     0.206 C 
ATOM     79  C3  GCU d 403       4.015  28.838  -8.286  0.00  0.00     0.092 C 
ATOM     80  O3  GCU d 403       3.116  29.272  -9.318  0.00  0.00    -0.390 OA
ATOM     81  C1  GCU d 403       4.439  28.596  -5.840  0.00  0.00     0.160 C 
ATOM     82  O4  GCU d 403       5.854  29.440  -9.722  0.00  0.00    -0.348 OA
ATOM     83  O6A GCU d 403       7.678  30.871  -6.724  0.00  0.00    -0.646 OA
ATOM     84  C2  GCU d 403       3.450  29.060  -6.908  0.00  0.00     0.110 C 
ATOM     85  C4  GCU d 403       5.344  29.561  -8.423  0.00  0.00     0.103 C 
ATOM     86  O6B GCU d 403       8.604  29.191  -7.840  0.00  0.00    -0.646 OA
ATOM     87  H   GCU d 403       1.619  28.498  -7.393  0.00  0.00     0.210 HD
ATOM     88  H   GCU d 403       6.564  28.050  -7.660  0.00  0.00     0.104 H 
ATOM     89  H   GCU d 403       4.159  27.785  -8.407  0.00  0.00     0.091 H 
ATOM     90  H   GCU d 403       2.964  30.226  -9.235  0.00  0.00     0.210 HD
ATOM     91  H   GCU d 403       4.693  27.556  -5.816  0.00  0.00     0.133 H 
ATOM     92  H   GCU d 403       3.237  30.103  -6.808  0.00  0.00     0.094 H 
ATOM     93  H   GCU d 403       5.191  30.606  -8.253  0.00  0.00     0.092 H 
ENDROOT
TORSDOF 23
ENDMDL
MODEL 9
REMARK VINA RESULT:      -7.2      4.348     12.542
REMARK  0 active torsions:
REMARK  status: ('A' for Active; 'I' for Inactive)
REMARK       I    between atoms: C8_1  and  C7_27 
REMARK       I    between atoms: O6_2  and  C6_34 
REMARK       I    between atoms: O4_3  and  C4_39 
REMARK       I    between atoms: O4_4  and  C4_6 
REMARK       I    between atoms: O2_7  and  C2_37 
REMARK       I    between atoms: C7_9  and  C8_15 
REMARK       I    between atoms: C7_9  and  N2_13 
REMARK       I    between atoms: N2_10  and  C2_53 
REMARK       I    between atoms: N2_10  and  C7_27 
REMARK       I    between atoms: C6_11  and  C5_48 
REMARK       I    between atoms: C5_12  and  C6_17 
REMARK       I    between atoms: N2_13  and  C2_19 
REMARK       I    between atoms: C2_16  and  O2_42 
REMARK       I    between atoms: C3_18  and  O3_23 
REMARK       I    between atoms: O3_20  and  C1_24 
REMARK       I    between atoms: O3_20  and  C3_22 
REMARK       I    between atoms: O6_21  and  C6_28 
REMARK       I    between atoms: O4_25  and  C4_50 
REMARK       I    between atoms: O4_26  and  C1_33 
REMARK       I    between atoms: O4_26  and  C4_41 
REMARK       I    between atoms: C6_28  and  C5_43 
REMARK       I    between atoms: C5_29  and  C6_34 
REMARK       I    between atoms: O3_30  and  C3_46 
REMARK       I    between atoms: C3_31  and  O3_49 
REMARK       I    between atoms: C1_38  and  O3_49 
ROOT
ATOM      1  C8  NAG d 404       7.323  34.688  -9.657  0.00  0.00    -0.003 C 
ATOM      2  O6  NAG d 404      12.562  35.335  -4.275  0.00  0.00    -0.398 OA
ATOM      3  N2  NAG d 404       9.004  33.213  -8.721  0.00  0.00    -0.349 N 
ATOM      4  O3  NAG d 404       8.984  30.908  -6.545  0.00  0.00    -0.348 OA
ATOM      5  C3  NAG d 404       9.421  32.223  -6.465  0.00  0.00     0.093 C 
ATOM      6  O4  NAG d 404       9.939  31.982  -4.063  0.00  0.00    -0.390 OA
ATOM      7  C7  NAG d 404       8.425  34.454  -8.665  0.00  0.00     0.214 C 
ATOM      8  C5  NAG d 404      10.673  33.950  -5.192  0.00  0.00     0.089 C 
ATOM      9  C6  NAG d 404      11.578  34.316  -4.041  0.00  0.00     0.043 C 
ATOM     10  O5  NAG d 404      11.177  34.422  -6.438  0.00  0.00    -0.337 OA
ATOM     11  C1  NAG d 404      11.195  33.536  -7.514  0.00  0.00     0.283 C 
ATOM     12  O7  NAG d 404       8.774  35.323  -7.870  0.00  0.00    -0.274 OA
ATOM     13  C4  NAG d 404      10.421  32.442  -5.331  0.00  0.00     0.089 C 
ATOM     14  C2  NAG d 404      10.013  32.667  -7.795  0.00  0.00     0.102 C 
ATOM     15  H   NAG d 404       7.182  33.807 -10.248  0.00  0.00     0.040 H 
ATOM     16  H   NAG d 404       7.584  35.507 -10.294  0.00  0.00     0.040 H 
ATOM     17  H   NAG d 404       6.417  34.915  -9.135  0.00  0.00     0.040 H 
ATOM     18  H   NAG d 404      13.077  35.478  -3.465  0.00  0.00     0.209 HD
ATOM     19  H   NAG d 404       8.716  32.625  -9.456  0.00  0.00     0.163 HD
ATOM     20  H   NAG d 404       8.565  32.826  -6.242  0.00  0.00     0.091 H 
ATOM     21  H   NAG d 404       9.767  31.029  -4.110  0.00  0.00     0.210 HD
ATOM     22  H   NAG d 404       9.747  34.430  -4.955  0.00  0.00     0.090 H 
ATOM     23  H   NAG d 404      10.956  34.648  -3.237  0.00  0.00     0.078 H 
ATOM     24  H   NAG d 404      12.142  33.429  -3.842  0.00  0.00     0.078 H 
ATOM     25  H   NAG d 404      11.303  31.890  -5.579  0.00  0.00     0.091 H 
ATOM     26  H   NAG d 404      10.373  31.825  -8.348  0.00  0.00     0.085 H 
ATOM     27  O4  NAG d 402       3.280  24.167  -1.658  0.00  0.00    -0.390 OA
ATOM     28  O5  NAG d 402       5.128  26.164  -4.062  0.00  0.00    -0.349 OA
ATOM     29  C7  NAG d 402       1.174  28.266  -5.436  0.00  0.00     0.214 C 
ATOM     30  N2  NAG d 402       1.979  28.061  -4.354  0.00  0.00    -0.349 N 
ATOM     31  C8  NAG d 402       0.324  29.525  -5.466  0.00  0.00    -0.003 C 
ATOM     32  C2  NAG d 402       2.827  26.868  -4.209  0.00  0.00     0.087 C 
ATOM     33  O6  NAG d 402       6.163  23.609  -4.122  0.00  0.00    -0.398 OA
ATOM     34  C6  NAG d 402       5.989  24.297  -2.886  0.00  0.00     0.043 C 
ATOM     35  C3  NAG d 402       2.487  26.000  -3.010  0.00  0.00     0.093 C 
ATOM     36  O7  NAG d 402       1.100  27.496  -6.371  0.00  0.00    -0.274 OA
ATOM     37  C1  NAG d 402       4.293  27.307  -4.147  0.00  0.00     0.154 C 
ATOM     38  C4  NAG d 402       3.502  24.853  -2.893  0.00  0.00     0.089 C 
ATOM     39  C5  NAG d 402       4.928  25.370  -2.890  0.00  0.00     0.089 C 
ATOM     40  O3  NAG d 402       1.253  25.352  -3.202  0.00  0.00    -0.348 OA
ATOM     41  H   NAG d 402       2.373  23.827  -1.636  0.00  0.00     0.210 HD
ATOM     42  H   NAG d 402       1.993  28.739  -3.641  0.00  0.00     0.163 HD
ATOM     43  H   NAG d 402       0.501  30.096  -4.578  0.00  0.00     0.040 H 
ATOM     44  H   NAG d 402      -0.710  29.256  -5.517  0.00  0.00     0.040 H 
ATOM     45  H   NAG d 402       0.584  30.110  -6.323  0.00  0.00     0.040 H 
ATOM     46  H   NAG d 402       2.644  26.252  -5.065  0.00  0.00     0.084 H 
ATOM     47  H   NAG d 402       6.862  22.943  -4.025  0.00  0.00     0.209 HD
ATOM     48  H   NAG d 402       6.921  24.755  -2.628  0.00  0.00     0.078 H 
ATOM     49  H   NAG d 402       5.665  23.561  -2.180  0.00  0.00     0.078 H 
ATOM     50  H   NAG d 402       2.480  26.641  -2.153  0.00  0.00     0.091 H 
ATOM     51  H   NAG d 402       4.491  27.895  -3.275  0.00  0.00     0.132 H 
ATOM     52  H   NAG d 402       3.370  24.206  -3.734  0.00  0.00     0.091 H 
ATOM     53  H   NAG d 402       5.035  25.921  -1.979  0.00  0.00     0.090 H 
ATOM     54  O4  GCU d 401      -3.606  25.942  -1.013  0.00  0.00    -0.390 OA
ATOM     55  C4  GCU d 401      -2.495  25.216  -1.549  0.00  0.00     0.097 C 
ATOM     56  C6  GCU d 401      -1.197  25.302   0.632  0.00  0.00     0.206 C 
ATOM     57  C2  GCU d 401      -1.036  25.231  -3.566  0.00  0.00     0.110 C 
ATOM     58  O3  GCU d 401      -3.437  24.874  -3.712  0.00  0.00    -0.390 OA
ATOM     59  C1  GCU d 401       0.108  25.747  -2.693  0.00  0.00     0.160 C 
ATOM     60  O2  GCU d 401      -0.918  25.744  -4.884  0.00  0.00    -0.388 OA
ATOM     61  O6B GCU d 401      -2.340  25.406   1.125  0.00  0.00    -0.646 OA
ATOM     62  C3  GCU d 401      -2.397  25.586  -3.021  0.00  0.00     0.092 C 
ATOM     63  O5  GCU d 401      -0.070  25.135  -1.415  0.00  0.00    -0.340 OA
ATOM     64  C5  GCU d 401      -1.231  25.668  -0.802  0.00  0.00     0.152 C 
ATOM     65  O6A GCU d 401      -0.069  24.990   1.070  0.00  0.00    -0.646 OA
ATOM     66  H   GCU d 401      -4.419  25.673  -1.470  0.00  0.00     0.210 HD
ATOM     67  H   GCU d 401      -2.608  24.158  -1.441  0.00  0.00     0.091 H 
ATOM     68  H   GCU d 401      -0.954  24.164  -3.570  0.00  0.00     0.094 H 
ATOM     69  H   GCU d 401      -4.299  25.121  -3.341  0.00  0.00     0.210 HD
ATOM     70  H   GCU d 401       0.109  26.815  -2.629  0.00  0.00     0.133 H 
ATOM     71  H   GCU d 401      -0.994  26.711  -4.862  0.00  0.00     0.210 HD
ATOM     72  H   GCU d 401      -2.521  26.640  -3.157  0.00  0.00     0.091 H 
ATOM     73  H   GCU d 401      -1.252  26.737  -0.861  0.00  0.00     0.104 H 
ATOM     74  O4  GCU d 405      11.947  34.027  -8.523  0.00  0.00    -0.189 OA
ATOM     75  O2  GCU d 403       8.267  28.955  -8.116  0.00  0.00    -0.388 OA
ATOM     76  C5  GCU d 403       5.752  30.166  -5.023  0.00  0.00     0.152 C 
ATOM     77  O5  GCU d 403       7.017  30.726  -5.255  0.00  0.00    -0.340 OA
ATOM     78  C6  GCU d 403       5.305  30.529  -3.653  0.00  0.00     0.206 C 
ATOM     79  C3  GCU d 403       6.399  28.441  -6.710  0.00  0.00     0.092 C 
ATOM     80  O3  GCU d 403       6.389  27.040  -7.023  0.00  0.00    -0.390 OA
ATOM     81  C1  GCU d 403       7.754  30.516  -6.426  0.00  0.00     0.160 C 
ATOM     82  O4  GCU d 403       4.547  28.059  -5.216  0.00  0.00    -0.348 OA
ATOM     83  O6A GCU d 403       6.127  30.424  -2.712  0.00  0.00    -0.646 OA
ATOM     84  C2  GCU d 403       7.784  29.029  -6.774  0.00  0.00     0.110 C 
ATOM     85  C4  GCU d 403       5.804  28.666  -5.331  0.00  0.00     0.103 C 
ATOM     86  O6B GCU d 403       4.125  30.914  -3.533  0.00  0.00    -0.646 OA
ATOM     87  H   GCU d 403       8.308  28.027  -8.394  0.00  0.00     0.210 HD
ATOM     88  H   GCU d 403       5.004  30.562  -5.678  0.00  0.00     0.104 H 
ATOM     89  H   GCU d 403       5.806  28.940  -7.449  0.00  0.00     0.091 H 
ATOM     90  H   GCU d 403       6.920  26.559  -6.369  0.00  0.00     0.210 HD
ATOM     91  H   GCU d 403       7.203  31.167  -7.073  0.00  0.00     0.133 H 
ATOM     92  H   GCU d 403       8.399  28.485  -6.089  0.00  0.00     0.094 H 
ATOM     93  H   GCU d 403       6.434  28.202  -4.600  0.00  0.00     0.092 H 
ENDROOT
TORSDOF 23
ENDMDL
MODEL 10
REMARK VINA RESULT:      -7.2      3.888      6.173
REMARK  0 active torsions:
REMARK  status: ('A' for Active; 'I' for Inactive)
REMARK       I    between atoms: C8_1  and  C7_27 
REMARK       I    between atoms: O6_2  and  C6_34 
REMARK       I    between atoms: O4_3  and  C4_39 
REMARK       I    between atoms: O4_4  and  C4_6 
REMARK       I    between atoms: O2_7  and  C2_37 
REMARK       I    between atoms: C7_9  and  C8_15 
REMARK       I    between atoms: C7_9  and  N2_13 
REMARK       I    between atoms: N2_10  and  C2_53 
REMARK       I    between atoms: N2_10  and  C7_27 
REMARK       I    between atoms: C6_11  and  C5_48 
REMARK       I    between atoms: C5_12  and  C6_17 
REMARK       I    between atoms: N2_13  and  C2_19 
REMARK       I    between atoms: C2_16  and  O2_42 
REMARK       I    between atoms: C3_18  and  O3_23 
REMARK       I    between atoms: O3_20  and  C1_24 
REMARK       I    between atoms: O3_20  and  C3_22 
REMARK       I    between atoms: O6_21  and  C6_28 
REMARK       I    between atoms: O4_25  and  C4_50 
REMARK       I    between atoms: O4_26  and  C1_33 
REMARK       I    between atoms: O4_26  and  C4_41 
REMARK       I    between atoms: C6_28  and  C5_43 
REMARK       I    between atoms: C5_29  and  C6_34 
REMARK       I    between atoms: O3_30  and  C3_46 
REMARK       I    between atoms: C3_31  and  O3_49 
REMARK       I    between atoms: C1_38  and  O3_49 
ROOT
ATOM      1  C8  NAG d 404       7.779  23.457  -3.956  0.00  0.00    -0.003 C 
ATOM      2  O6  NAG d 404       5.883  28.703   1.115  0.00  0.00    -0.398 OA
ATOM      3  N2  NAG d 404       5.868  24.914  -3.636  0.00  0.00    -0.349 N 
ATOM      4  O3  NAG d 404       4.957  27.693  -4.858  0.00  0.00    -0.348 OA
ATOM      5  C3  NAG d 404       5.522  27.388  -3.627  0.00  0.00     0.093 C 
ATOM      6  O4  NAG d 404       5.628  29.774  -3.002  0.00  0.00    -0.390 OA
ATOM      7  C7  NAG d 404       7.102  24.542  -3.171  0.00  0.00     0.214 C 
ATOM      8  C5  NAG d 404       6.087  28.139  -1.328  0.00  0.00     0.089 C 
ATOM      9  C6  NAG d 404       5.983  29.177  -0.237  0.00  0.00     0.043 C 
ATOM     10  O5  NAG d 404       5.707  26.845  -0.873  0.00  0.00    -0.337 OA
ATOM     11  C1  NAG d 404       4.834  26.102  -1.666  0.00  0.00     0.283 C 
ATOM     12  O7  NAG d 404       7.628  25.048  -2.183  0.00  0.00    -0.274 OA
ATOM     13  C4  NAG d 404       5.249  28.461  -2.573  0.00  0.00     0.089 C 
ATOM     14  C2  NAG d 404       5.038  26.028  -3.144  0.00  0.00     0.102 C 
ATOM     15  H   NAG d 404       7.151  23.161  -4.771  0.00  0.00     0.040 H 
ATOM     16  H   NAG d 404       7.958  22.615  -3.320  0.00  0.00     0.040 H 
ATOM     17  H   NAG d 404       8.710  23.821  -4.338  0.00  0.00     0.040 H 
ATOM     18  H   NAG d 404       5.822  29.459   1.719  0.00  0.00     0.209 HD
ATOM     19  H   NAG d 404       5.498  24.381  -4.377  0.00  0.00     0.163 HD
ATOM     20  H   NAG d 404       6.582  27.356  -3.767  0.00  0.00     0.091 H 
ATOM     21  H   NAG d 404       5.118  30.016  -3.791  0.00  0.00     0.210 HD
ATOM     22  H   NAG d 404       7.122  28.154  -1.600  0.00  0.00     0.090 H 
ATOM     23  H   NAG d 404       6.854  29.795  -0.297  0.00  0.00     0.078 H 
ATOM     24  H   NAG d 404       5.056  29.678  -0.421  0.00  0.00     0.078 H 
ATOM     25  H   NAG d 404       4.196  28.456  -2.385  0.00  0.00     0.091 H 
ATOM     26  H   NAG d 404       4.089  25.790  -3.575  0.00  0.00     0.085 H 
ATOM     27  O4  NAG d 402       5.923  34.049 -12.637  0.00  0.00    -0.390 OA
ATOM     28  O5  NAG d 402       5.271  31.270 -10.394  0.00  0.00    -0.349 OA
ATOM     29  C7  NAG d 402       9.095  29.052 -11.945  0.00  0.00     0.214 C 
ATOM     30  N2  NAG d 402       8.673  30.195 -11.331  0.00  0.00    -0.349 N 
ATOM     31  C8  NAG d 402      10.511  28.576 -11.672  0.00  0.00    -0.003 C 
ATOM     32  C2  NAG d 402       7.330  30.759 -11.540  0.00  0.00     0.087 C 
ATOM     33  O6  NAG d 402       2.857  32.077 -11.452  0.00  0.00    -0.398 OA
ATOM     34  C6  NAG d 402       3.754  33.023 -10.875  0.00  0.00     0.043 C 
ATOM     35  C3  NAG d 402       7.324  32.144 -12.163  0.00  0.00     0.093 C 
ATOM     36  O7  NAG d 402       8.401  28.400 -12.698  0.00  0.00    -0.274 OA
ATOM     37  C1  NAG d 402       6.588  30.778 -10.200  0.00  0.00     0.154 C 
ATOM     38  C4  NAG d 402       5.886  32.679 -12.229  0.00  0.00     0.089 C 
ATOM     39  C5  NAG d 402       5.206  32.615 -10.874  0.00  0.00     0.089 C 
ATOM     40  O3  NAG d 402       7.732  32.082 -13.509  0.00  0.00    -0.348 OA
ATOM     41  H   NAG d 402       6.354  34.116 -13.503  0.00  0.00     0.210 HD
ATOM     42  H   NAG d 402       9.292  30.661 -10.724  0.00  0.00     0.163 HD
ATOM     43  H   NAG d 402      10.990  29.251 -10.994  0.00  0.00     0.040 H 
ATOM     44  H   NAG d 402      11.060  28.542 -12.590  0.00  0.00     0.040 H 
ATOM     45  H   NAG d 402      10.481  27.598 -11.239  0.00  0.00     0.040 H 
ATOM     46  H   NAG d 402       6.835  30.127 -12.247  0.00  0.00     0.084 H 
ATOM     47  H   NAG d 402       1.951  32.422 -11.408  0.00  0.00     0.209 HD
ATOM     48  H   NAG d 402       3.455  33.186  -9.861  0.00  0.00     0.078 H 
ATOM     49  H   NAG d 402       3.692  33.900 -11.485  0.00  0.00     0.078 H 
ATOM     50  H   NAG d 402       7.971  32.756 -11.571  0.00  0.00     0.091 H 
ATOM     51  H   NAG d 402       7.059  31.435  -9.499  0.00  0.00     0.132 H 
ATOM     52  H   NAG d 402       5.338  32.074 -12.920  0.00  0.00     0.091 H 
ATOM     53  H   NAG d 402       5.728  33.313 -10.254  0.00  0.00     0.090 H 
ATOM     54  O4  GCU d 401      12.154  33.653 -16.103  0.00  0.00    -0.390 OA
ATOM     55  C4  GCU d 401      10.749  33.444 -15.926  0.00  0.00     0.097 C 
ATOM     56  C6  GCU d 401      10.453  35.570 -14.569  0.00  0.00     0.206 C 
ATOM     57  C2  GCU d 401       9.188  31.624 -15.257  0.00  0.00     0.110 C 
ATOM     58  O3  GCU d 401      10.628  31.438 -17.207  0.00  0.00    -0.390 OA
ATOM     59  C1  GCU d 401       8.938  32.366 -13.944  0.00  0.00     0.160 C 
ATOM     60  O2  GCU d 401       9.091  30.223 -15.055  0.00  0.00    -0.388 OA
ATOM     61  O6B GCU d 401      11.465  35.931 -15.207  0.00  0.00    -0.646 OA
ATOM     62  C3  GCU d 401      10.533  31.940 -15.864  0.00  0.00     0.092 C 
ATOM     63  O5  GCU d 401       9.004  33.757 -14.264  0.00  0.00    -0.340 OA
ATOM     64  C5  GCU d 401      10.339  34.095 -14.595  0.00  0.00     0.152 C 
ATOM     65  O6A GCU d 401       9.563  36.158 -13.919  0.00  0.00    -0.646 OA
ATOM     66  H   GCU d 401      12.438  33.250 -16.939  0.00  0.00     0.210 HD
ATOM     67  H   GCU d 401      10.170  33.869 -16.718  0.00  0.00     0.091 H 
ATOM     68  H   GCU d 401       8.435  31.957 -15.940  0.00  0.00     0.094 H 
ATOM     69  H   GCU d 401      11.501  31.656 -17.572  0.00  0.00     0.210 HD
ATOM     70  H   GCU d 401       9.649  32.094 -13.192  0.00  0.00     0.133 H 
ATOM     71  H   GCU d 401       9.779  29.937 -14.434  0.00  0.00     0.210 HD
ATOM     72  H   GCU d 401      11.271  31.475 -15.245  0.00  0.00     0.091 H 
ATOM     73  H   GCU d 401      11.033  33.705 -13.881  0.00  0.00     0.104 H 
ATOM     74  O4  GCU d 405       4.353  25.042  -0.981  0.00  0.00    -0.189 OA
ATOM     75  O2  GCU d 403       3.783  26.764  -6.993  0.00  0.00    -0.388 OA
ATOM     76  C5  GCU d 403       7.177  29.153  -7.357  0.00  0.00     0.152 C 
ATOM     77  O5  GCU d 403       6.579  28.843  -6.127  0.00  0.00    -0.340 OA
ATOM     78  C6  GCU d 403       8.092  30.310  -7.172  0.00  0.00     0.206 C 
ATOM     79  C3  GCU d 403       5.150  28.134  -8.402  0.00  0.00     0.092 C 
ATOM     80  O3  GCU d 403       4.164  28.273  -9.436  0.00  0.00    -0.390 OA
ATOM     81  C1  GCU d 403       5.609  27.846  -5.967  0.00  0.00     0.160 C 
ATOM     82  O4  GCU d 403       6.615  29.547  -9.694  0.00  0.00    -0.348 OA
ATOM     83  O6A GCU d 403       7.686  31.289  -6.503  0.00  0.00    -0.646 OA
ATOM     84  C2  GCU d 403       4.529  27.982  -7.039  0.00  0.00     0.110 C 
ATOM     85  C4  GCU d 403       6.084  29.333  -8.415  0.00  0.00     0.103 C 
ATOM     86  O6B GCU d 403       9.215  30.226  -7.709  0.00  0.00    -0.646 OA
ATOM     87  H   GCU d 403       3.077  26.792  -7.657  0.00  0.00     0.210 HD
ATOM     88  H   GCU d 403       7.795  28.360  -7.723  0.00  0.00     0.104 H 
ATOM     89  H   GCU d 403       5.703  27.240  -8.603  0.00  0.00     0.091 H 
ATOM     90  H   GCU d 403       3.644  29.077  -9.281  0.00  0.00     0.210 HD
ATOM     91  H   GCU d 403       6.255  26.994  -6.017  0.00  0.00     0.133 H 
ATOM     92  H   GCU d 403       3.917  28.842  -6.864  0.00  0.00     0.094 H 
ATOM     93  H   GCU d 403       5.525  30.211  -8.166  0.00  0.00     0.092 H 
ENDROOT
TORSDOF 23
ENDMDL
MODEL 11
REMARK VINA RESULT:      -7.2      4.009     12.030
REMARK  0 active torsions:
REMARK  status: ('A' for Active; 'I' for Inactive)
REMARK       I    between atoms: C8_1  and  C7_27 
REMARK       I    between atoms: O6_2  and  C6_34 
REMARK       I    between atoms: O4_3  and  C4_39 
REMARK       I    between atoms: O4_4  and  C4_6 
REMARK       I    between atoms: O2_7  and  C2_37 
REMARK       I    between atoms: C7_9  and  C8_15 
REMARK       I    between atoms: C7_9  and  N2_13 
REMARK       I    between atoms: N2_10  and  C2_53 
REMARK       I    between atoms: N2_10  and  C7_27 
REMARK       I    between atoms: C6_11  and  C5_48 
REMARK       I    between atoms: C5_12  and  C6_17 
REMARK       I    between atoms: N2_13  and  C2_19 
REMARK       I    between atoms: C2_16  and  O2_42 
REMARK       I    between atoms: C3_18  and  O3_23 
REMARK       I    between atoms: O3_20  and  C1_24 
REMARK       I    between atoms: O3_20  and  C3_22 
REMARK       I    between atoms: O6_21  and  C6_28 
REMARK       I    between atoms: O4_25  and  C4_50 
REMARK       I    between atoms: O4_26  and  C1_33 
REMARK       I    between atoms: O4_26  and  C4_41 
REMARK       I    between atoms: C6_28  and  C5_43 
REMARK       I    between atoms: C5_29  and  C6_34 
REMARK       I    between atoms: O3_30  and  C3_46 
REMARK       I    between atoms: C3_31  and  O3_49 
REMARK       I    between atoms: C1_38  and  O3_49 
ROOT
ATOM      1  C8  NAG d 404      12.507  30.208 -13.672  0.00  0.00    -0.003 C 
ATOM      2  O6  NAG d 404       7.646  26.354 -17.956  0.00  0.00    -0.398 OA
ATOM      3  N2  NAG d 404      10.162  30.449 -14.237  0.00  0.00    -0.349 N 
ATOM      4  O3  NAG d 404       7.437  29.678 -12.813  0.00  0.00    -0.348 OA
ATOM      5  C3  NAG d 404       8.110  29.073 -13.865  0.00  0.00     0.093 C 
ATOM      6  O4  NAG d 404       6.463  27.237 -13.958  0.00  0.00    -0.390 OA
ATOM      7  C7  NAG d 404      11.295  29.694 -14.392  0.00  0.00     0.214 C 
ATOM      8  C5  NAG d 404       8.065  27.416 -15.714  0.00  0.00     0.089 C 
ATOM      9  C6  NAG d 404       7.292  26.439 -16.567  0.00  0.00     0.043 C 
ATOM     10  O5  NAG d 404       8.784  28.360 -16.502  0.00  0.00    -0.337 OA
ATOM     11  C1  NAG d 404       8.697  29.706 -16.151  0.00  0.00     0.283 C 
ATOM     12  O7  NAG d 404      11.332  28.671 -15.071  0.00  0.00    -0.274 OA
ATOM     13  C4  NAG d 404       7.195  28.200 -14.723  0.00  0.00     0.089 C 
ATOM     14  C2  NAG d 404       8.808  30.120 -14.720  0.00  0.00     0.102 C 
ATOM     15  H   NAG d 404      12.255  31.104 -13.144  0.00  0.00     0.040 H 
ATOM     16  H   NAG d 404      13.282  30.417 -14.381  0.00  0.00     0.040 H 
ATOM     17  H   NAG d 404      12.848  29.470 -12.977  0.00  0.00     0.040 H 
ATOM     18  H   NAG d 404       7.082  25.697 -18.394  0.00  0.00     0.209 HD
ATOM     19  H   NAG d 404      10.262  31.299 -13.751  0.00  0.00     0.163 HD
ATOM     20  H   NAG d 404       8.843  28.422 -13.436  0.00  0.00     0.091 H 
ATOM     21  H   NAG d 404       5.898  27.695 -13.317  0.00  0.00     0.210 HD
ATOM     22  H   NAG d 404       8.740  26.797 -15.160  0.00  0.00     0.090 H 
ATOM     23  H   NAG d 404       7.424  25.467 -16.142  0.00  0.00     0.078 H 
ATOM     24  H   NAG d 404       6.287  26.805 -16.562  0.00  0.00     0.078 H 
ATOM     25  H   NAG d 404       6.497  28.854 -15.203  0.00  0.00     0.091 H 
ATOM     26  H   NAG d 404       8.318  31.067 -14.633  0.00  0.00     0.085 H 
ATOM     27  O4  NAG d 402       2.997  27.547  -4.004  0.00  0.00    -0.390 OA
ATOM     28  O5  NAG d 402       4.720  29.029  -6.834  0.00  0.00    -0.349 OA
ATOM     29  C7  NAG d 402       8.851  28.405  -4.714  0.00  0.00     0.214 C 
ATOM     30  N2  NAG d 402       7.759  27.739  -5.189  0.00  0.00    -0.349 N 
ATOM     31  C8  NAG d 402      10.174  27.659  -4.658  0.00  0.00    -0.003 C 
ATOM     32  C2  NAG d 402       6.425  28.355  -5.269  0.00  0.00     0.087 C 
ATOM     33  O6  NAG d 402       2.438  30.505  -6.376  0.00  0.00    -0.398 OA
ATOM     34  C6  NAG d 402       2.380  29.085  -6.477  0.00  0.00     0.043 C 
ATOM     35  C3  NAG d 402       5.370  27.671  -4.417  0.00  0.00     0.093 C 
ATOM     36  O7  NAG d 402       8.819  29.557  -4.333  0.00  0.00    -0.274 OA
ATOM     37  C1  NAG d 402       5.982  28.389  -6.734  0.00  0.00     0.154 C 
ATOM     38  C4  NAG d 402       4.001  28.323  -4.663  0.00  0.00     0.089 C 
ATOM     39  C5  NAG d 402       3.662  28.363  -6.141  0.00  0.00     0.089 C 
ATOM     40  O3  NAG d 402       5.618  27.894  -3.049  0.00  0.00    -0.348 OA
ATOM     41  H   NAG d 402       3.192  27.506  -3.055  0.00  0.00     0.210 HD
ATOM     42  H   NAG d 402       7.869  26.809  -5.492  0.00  0.00     0.163 HD
ATOM     43  H   NAG d 402      10.038  26.664  -5.025  0.00  0.00     0.040 H 
ATOM     44  H   NAG d 402      10.519  27.622  -3.645  0.00  0.00     0.040 H 
ATOM     45  H   NAG d 402      10.895  28.168  -5.262  0.00  0.00     0.040 H 
ATOM     46  H   NAG d 402       6.517  29.343  -4.869  0.00  0.00     0.084 H 
ATOM     47  H   NAG d 402       1.574  30.881  -6.609  0.00  0.00     0.209 HD
ATOM     48  H   NAG d 402       2.114  28.835  -7.483  0.00  0.00     0.078 H 
ATOM     49  H   NAG d 402       1.661  28.765  -5.752  0.00  0.00     0.078 H 
ATOM     50  H   NAG d 402       5.390  26.632  -4.669  0.00  0.00     0.091 H 
ATOM     51  H   NAG d 402       5.856  27.403  -7.130  0.00  0.00     0.132 H 
ATOM     52  H   NAG d 402       4.037  29.324  -4.288  0.00  0.00     0.091 H 
ATOM     53  H   NAG d 402       3.535  27.343  -6.438  0.00  0.00     0.090 H 
ATOM     54  O4  GCU d 401       7.312  24.756   0.955  0.00  0.00    -0.390 OA
ATOM     55  C4  GCU d 401       6.526  25.785   0.346  0.00  0.00     0.097 C 
ATOM     56  C6  GCU d 401       4.837  24.141  -0.600  0.00  0.00     0.206 C 
ATOM     57  C2  GCU d 401       6.844  27.800  -1.082  0.00  0.00     0.110 C 
ATOM     58  O3  GCU d 401       7.848  27.609   1.125  0.00  0.00    -0.390 OA
ATOM     59  C1  GCU d 401       6.201  27.039  -2.241  0.00  0.00     0.160 C 
ATOM     60  O2  GCU d 401       7.819  28.708  -1.570  0.00  0.00    -0.388 OA
ATOM     61  O6B GCU d 401       5.222  23.438   0.358  0.00  0.00    -0.646 OA
ATOM     62  C3  GCU d 401       7.488  26.889  -0.065  0.00  0.00     0.092 C 
ATOM     63  O5  GCU d 401       5.206  26.200  -1.652  0.00  0.00    -0.340 OA
ATOM     64  C5  GCU d 401       5.842  25.187  -0.894  0.00  0.00     0.152 C 
ATOM     65  O6A GCU d 401       3.839  24.142  -1.351  0.00  0.00    -0.646 OA
ATOM     66  H   GCU d 401       7.755  25.110   1.742  0.00  0.00     0.210 HD
ATOM     67  H   GCU d 401       5.778  26.173   1.006  0.00  0.00     0.091 H 
ATOM     68  H   GCU d 401       6.053  28.328  -0.591  0.00  0.00     0.094 H 
ATOM     69  H   GCU d 401       8.258  27.000   1.759  0.00  0.00     0.210 HD
ATOM     70  H   GCU d 401       6.922  26.477  -2.796  0.00  0.00     0.133 H 
ATOM     71  H   GCU d 401       8.528  28.214  -2.011  0.00  0.00     0.210 HD
ATOM     72  H   GCU d 401       8.362  26.479  -0.525  0.00  0.00     0.091 H 
ATOM     73  H   GCU d 401       6.637  24.725  -1.441  0.00  0.00     0.104 H 
ATOM     74  O4  GCU d 405       9.188  30.488 -17.137  0.00  0.00    -0.189 OA
ATOM     75  O2  GCU d 403       7.210  31.808 -11.325  0.00  0.00    -0.388 OA
ATOM     76  C5  GCU d 403       7.729  28.074  -9.549  0.00  0.00     0.152 C 
ATOM     77  O5  GCU d 403       7.620  28.263 -10.934  0.00  0.00    -0.340 OA
ATOM     78  C6  GCU d 403       7.508  26.638  -9.236  0.00  0.00     0.206 C 
ATOM     79  C3  GCU d 403       7.051  30.470  -9.345  0.00  0.00     0.092 C 
ATOM     80  O3  GCU d 403       6.226  31.402  -8.630  0.00  0.00    -0.390 OA
ATOM     81  C1  GCU d 403       7.705  29.515 -11.555  0.00  0.00     0.160 C 
ATOM     82  O4  GCU d 403       6.933  28.998  -7.441  0.00  0.00    -0.348 OA
ATOM     83  O6A GCU d 403       6.550  26.049  -9.791  0.00  0.00    -0.646 OA
ATOM     84  C2  GCU d 403       6.817  30.526 -10.832  0.00  0.00     0.110 C 
ATOM     85  C4  GCU d 403       6.801  29.062  -8.834  0.00  0.00     0.103 C 
ATOM     86  O6B GCU d 403       8.300  26.114  -8.427  0.00  0.00    -0.646 OA
ATOM     87  H   GCU d 403       6.676  32.495 -10.898  0.00  0.00     0.210 HD
ATOM     88  H   GCU d 403       8.710  28.295  -9.182  0.00  0.00     0.104 H 
ATOM     89  H   GCU d 403       8.071  30.745  -9.172  0.00  0.00     0.091 H 
ATOM     90  H   GCU d 403       5.292  31.179  -8.769  0.00  0.00     0.210 HD
ATOM     91  H   GCU d 403       8.765  29.647 -11.488  0.00  0.00     0.133 H 
ATOM     92  H   GCU d 403       5.781  30.322 -11.005  0.00  0.00     0.094 H 
ATOM     93  H   GCU d 403       5.792  28.785  -9.058  0.00  0.00     0.092 H 
ENDROOT
TORSDOF 23
ENDMDL
MODEL 12
REMARK VINA RESULT:      -7.2      4.420     12.460
REMARK  0 active torsions:
REMARK  status: ('A' for Active; 'I' for Inactive)
REMARK       I    between atoms: C8_1  and  C7_27 
REMARK       I    between atoms: O6_2  and  C6_34 
REMARK       I    between atoms: O4_3  and  C4_39 
REMARK       I    between atoms: O4_4  and  C4_6 
REMARK       I    between atoms: O2_7  and  C2_37 
REMARK       I    between atoms: C7_9  and  C8_15 
REMARK       I    between atoms: C7_9  and  N2_13 
REMARK       I    between atoms: N2_10  and  C2_53 
REMARK       I    between atoms: N2_10  and  C7_27 
REMARK       I    between atoms: C6_11  and  C5_48 
REMARK       I    between atoms: C5_12  and  C6_17 
REMARK       I    between atoms: N2_13  and  C2_19 
REMARK       I    between atoms: C2_16  and  O2_42 
REMARK       I    between atoms: C3_18  and  O3_23 
REMARK       I    between atoms: O3_20  and  C1_24 
REMARK       I    between atoms: O3_20  and  C3_22 
REMARK       I    between atoms: O6_21  and  C6_28 
REMARK       I    between atoms: O4_25  and  C4_50 
REMARK       I    between atoms: O4_26  and  C1_33 
REMARK       I    between atoms: O4_26  and  C4_41 
REMARK       I    between atoms: C6_28  and  C5_43 
REMARK       I    between atoms: C5_29  and  C6_34 
REMARK       I    between atoms: O3_30  and  C3_46 
REMARK       I    between atoms: C3_31  and  O3_49 
REMARK       I    between atoms: C1_38  and  O3_49 
ROOT
ATOM      1  C8  NAG d 404       7.009  34.467 -10.123  0.00  0.00    -0.003 C 
ATOM      2  O6  NAG d 404      12.052  36.177  -4.786  0.00  0.00    -0.398 OA
ATOM      3  N2  NAG d 404       8.889  33.316  -9.116  0.00  0.00    -0.349 N 
ATOM      4  O3  NAG d 404       9.206  31.148  -6.825  0.00  0.00    -0.348 OA
ATOM      5  C3  NAG d 404       9.437  32.516  -6.812  0.00  0.00     0.093 C 
ATOM      6  O4  NAG d 404       9.969  32.478  -4.402  0.00  0.00    -0.390 OA
ATOM      7  C7  NAG d 404       8.127  34.455  -9.122  0.00  0.00     0.214 C 
ATOM      8  C5  NAG d 404      10.402  34.476  -5.630  0.00  0.00     0.089 C 
ATOM      9  C6  NAG d 404      11.233  35.033  -4.500  0.00  0.00     0.043 C 
ATOM     10  O5  NAG d 404      10.836  34.955  -6.899  0.00  0.00    -0.337 OA
ATOM     11  C1  NAG d 404      10.997  34.030  -7.929  0.00  0.00     0.283 C 
ATOM     12  O7  NAG d 404       8.334  35.406  -8.373  0.00  0.00    -0.274 OA
ATOM     13  C4  NAG d 404      10.384  32.942  -5.692  0.00  0.00     0.089 C 
ATOM     14  C2  NAG d 404       9.963  32.978  -8.164  0.00  0.00     0.102 C 
ATOM     15  H   NAG d 404       7.008  33.547 -10.669  0.00  0.00     0.040 H 
ATOM     16  H   NAG d 404       7.146  35.284 -10.801  0.00  0.00     0.040 H 
ATOM     17  H   NAG d 404       6.075  34.580  -9.613  0.00  0.00     0.040 H 
ATOM     18  H   NAG d 404      12.533  36.438  -3.985  0.00  0.00     0.209 HD
ATOM     19  H   NAG d 404       8.699  32.654  -9.819  0.00  0.00     0.163 HD
ATOM     20  H   NAG d 404       8.497  32.991  -6.619  0.00  0.00     0.091 H 
ATOM     21  H   NAG d 404       9.945  31.509  -4.400  0.00  0.00     0.210 HD
ATOM     22  H   NAG d 404       9.412  34.820  -5.417  0.00  0.00     0.090 H 
ATOM     23  H   NAG d 404      10.562  35.306  -3.713  0.00  0.00     0.078 H 
ATOM     24  H   NAG d 404      11.924  34.254  -4.257  0.00  0.00     0.078 H 
ATOM     25  H   NAG d 404      11.342  32.519  -5.913  0.00  0.00     0.091 H 
ATOM     26  H   NAG d 404      10.451  32.174  -8.673  0.00  0.00     0.085 H 
ATOM     27  O4  NAG d 402       4.565  23.869  -1.597  0.00  0.00    -0.390 OA
ATOM     28  O5  NAG d 402       6.103  26.001  -4.101  0.00  0.00    -0.349 OA
ATOM     29  C7  NAG d 402       1.883  27.403  -5.576  0.00  0.00     0.214 C 
ATOM     30  N2  NAG d 402       2.703  27.378  -4.486  0.00  0.00    -0.349 N 
ATOM     31  C8  NAG d 402       0.852  28.514  -5.669  0.00  0.00    -0.003 C 
ATOM     32  C2  NAG d 402       3.722  26.336  -4.282  0.00  0.00     0.087 C 
ATOM     33  O6  NAG d 402       7.516  23.634  -4.032  0.00  0.00    -0.398 OA
ATOM     34  C6  NAG d 402       7.231  24.349  -2.833  0.00  0.00     0.043 C 
ATOM     35  C3  NAG d 402       3.511  25.489  -3.039  0.00  0.00     0.093 C 
ATOM     36  O7  NAG d 402       1.934  26.584  -6.471  0.00  0.00    -0.274 OA
ATOM     37  C1  NAG d 402       5.103  26.997  -4.243  0.00  0.00     0.154 C 
ATOM     38  C4  NAG d 402       4.687  24.518  -2.866  0.00  0.00     0.089 C 
ATOM     39  C5  NAG d 402       6.018  25.245  -2.890  0.00  0.00     0.089 C 
ATOM     40  O3  NAG d 402       2.391  24.651  -3.197  0.00  0.00    -0.348 OA
ATOM     41  H   NAG d 402       3.720  23.395  -1.557  0.00  0.00     0.210 HD
ATOM     42  H   NAG d 402       2.608  28.085  -3.808  0.00  0.00     0.163 HD
ATOM     43  H   NAG d 402       0.933  29.149  -4.812  0.00  0.00     0.040 H 
ATOM     44  H   NAG d 402      -0.129  28.087  -5.706  0.00  0.00     0.040 H 
ATOM     45  H   NAG d 402       1.025  29.087  -6.555  0.00  0.00     0.040 H 
ATOM     46  H   NAG d 402       3.641  25.658  -5.105  0.00  0.00     0.084 H 
ATOM     47  H   NAG d 402       8.307  23.088  -3.903  0.00  0.00     0.209 HD
ATOM     48  H   NAG d 402       8.080  24.956  -2.600  0.00  0.00     0.078 H 
ATOM     49  H   NAG d 402       7.017  23.609  -2.090  0.00  0.00     0.078 H 
ATOM     50  H   NAG d 402       3.400  26.163  -2.216  0.00  0.00     0.091 H 
ATOM     51  H   NAG d 402       5.203  27.651  -3.402  0.00  0.00     0.132 H 
ATOM     52  H   NAG d 402       4.661  23.816  -3.673  0.00  0.00     0.091 H 
ATOM     53  H   NAG d 402       6.034  25.852  -2.009  0.00  0.00     0.090 H 
ATOM     54  O4  GCU d 401      -2.516  24.601  -1.036  0.00  0.00    -0.390 OA
ATOM     55  C4  GCU d 401      -1.304  24.027  -1.536  0.00  0.00     0.097 C 
ATOM     56  C6  GCU d 401      -0.049  24.420   0.636  0.00  0.00     0.206 C 
ATOM     57  C2  GCU d 401       0.150  24.164  -3.553  0.00  0.00     0.110 C 
ATOM     58  O3  GCU d 401      -2.167  23.438  -3.678  0.00  0.00    -0.390 OA
ATOM     59  C1  GCU d 401       1.196  24.891  -2.708  0.00  0.00     0.160 C 
ATOM     60  O2  GCU d 401       0.197  24.622  -4.895  0.00  0.00    -0.388 OA
ATOM     61  O6B GCU d 401      -1.197  24.373   1.125  0.00  0.00    -0.646 OA
ATOM     62  C3  GCU d 401      -1.254  24.334  -3.025  0.00  0.00     0.092 C 
ATOM     63  O5  GCU d 401       1.104  24.324  -1.400  0.00  0.00    -0.340 OA
ATOM     64  C5  GCU d 401      -0.128  24.705  -0.814  0.00  0.00     0.152 C 
ATOM     65  O6A GCU d 401       1.110  24.306   1.089  0.00  0.00    -0.646 OA
ATOM     66  H   GCU d 401      -3.275  24.189  -1.478  0.00  0.00     0.210 HD
ATOM     67  H   GCU d 401      -1.255  22.971  -1.374  0.00  0.00     0.091 H 
ATOM     68  H   GCU d 401       0.393  23.123  -3.503  0.00  0.00     0.094 H 
ATOM     69  H   GCU d 401      -3.059  23.568  -3.319  0.00  0.00     0.210 HD
ATOM     70  H   GCU d 401       1.034  25.949  -2.698  0.00  0.00     0.133 H 
ATOM     71  H   GCU d 401      -0.026  25.566  -4.922  0.00  0.00     0.210 HD
ATOM     72  H   GCU d 401      -1.536  25.348  -3.214  0.00  0.00     0.091 H 
ATOM     73  H   GCU d 401      -0.312  25.752  -0.927  0.00  0.00     0.104 H 
ATOM     74  O4  GCU d 405      11.671  34.579  -8.961  0.00  0.00    -0.189 OA
ATOM     75  O2  GCU d 403       8.806  29.031  -8.295  0.00  0.00    -0.388 OA
ATOM     76  C5  GCU d 403       6.115  29.998  -5.265  0.00  0.00     0.152 C 
ATOM     77  O5  GCU d 403       7.281  30.732  -5.526  0.00  0.00    -0.340 OA
ATOM     78  C6  GCU d 403       5.609  30.357  -3.914  0.00  0.00     0.206 C 
ATOM     79  C3  GCU d 403       7.029  28.309  -6.863  0.00  0.00     0.092 C 
ATOM     80  O3  GCU d 403       7.235  26.909  -7.104  0.00  0.00    -0.390 OA
ATOM     81  C1  GCU d 403       8.050  30.579  -6.686  0.00  0.00     0.160 C 
ATOM     82  O4  GCU d 403       5.247  27.724  -5.349  0.00  0.00    -0.348 OA
ATOM     83  O6A GCU d 403       6.431  30.426  -2.970  0.00  0.00    -0.646 OA
ATOM     84  C2  GCU d 403       8.309  29.098  -6.958  0.00  0.00     0.110 C 
ATOM     85  C4  GCU d 403       6.397  28.510  -5.496  0.00  0.00     0.103 C 
ATOM     86  O6B GCU d 403       4.383  30.562  -3.813  0.00  0.00    -0.646 OA
ATOM     87  H   GCU d 403       8.990  28.108  -8.526  0.00  0.00     0.210 HD
ATOM     88  H   GCU d 403       5.320  30.241  -5.938  0.00  0.00     0.104 H 
ATOM     89  H   GCU d 403       6.372  28.674  -7.625  0.00  0.00     0.091 H 
ATOM     90  H   GCU d 403       7.829  26.548  -6.427  0.00  0.00     0.210 HD
ATOM     91  H   GCU d 403       7.410  31.104  -7.364  0.00  0.00     0.133 H 
ATOM     92  H   GCU d 403       8.995  28.689  -6.246  0.00  0.00     0.094 H 
ATOM     93  H   GCU d 403       7.086  28.185  -4.743  0.00  0.00     0.092 H 
ENDROOT
TORSDOF 23
ENDMDL
MODEL 13
REMARK VINA RESULT:      -6.8      2.924      3.555
REMARK  0 active torsions:
REMARK  status: ('A' for Active; 'I' for Inactive)
REMARK       I    between atoms: C8_1  and  C7_27 
REMARK       I    between atoms: O6_2  and  C6_34 
REMARK       I    between atoms: O4_3  and  C4_39 
REMARK       I    between atoms: O4_4  and  C4_6 
REMARK       I    between atoms: O2_7  and  C2_37 
REMARK       I    between atoms: C7_9  and  C8_15 
REMARK       I    between atoms: C7_9  and  N2_13 
REMARK       I    between atoms: N2_10  and  C2_53 
REMARK       I    between atoms: N2_10  and  C7_27 
REMARK       I    between atoms: C6_11  and  C5_48 
REMARK       I    between atoms: C5_12  and  C6_17 
REMARK       I    between atoms: N2_13  and  C2_19 
REMARK       I    between atoms: C2_16  and  O2_42 
REMARK       I    between atoms: C3_18  and  O3_23 
REMARK       I    between atoms: O3_20  and  C1_24 
REMARK       I    between atoms: O3_20  and  C3_22 
REMARK       I    between atoms: O6_21  and  C6_28 
REMARK       I    between atoms: O4_25  and  C4_50 
REMARK       I    between atoms: O4_26  and  C1_33 
REMARK       I    between atoms: O4_26  and  C4_41 
REMARK       I    between atoms: C6_28  and  C5_43 
REMARK       I    between atoms: C5_29  and  C6_34 
REMARK       I    between atoms: O3_30  and  C3_46 
REMARK       I    between atoms: C3_31  and  O3_49 
REMARK       I    between atoms: C1_38  and  O3_49 
ROOT
ATOM      1  C8  NAG d 404      -1.705  31.050  -4.501  0.00  0.00    -0.003 C 
ATOM      2  O6  NAG d 404      -3.171  23.655  -4.534  0.00  0.00    -0.398 OA
ATOM      3  N2  NAG d 404      -0.823  29.127  -3.319  0.00  0.00    -0.349 N 
ATOM      4  O3  NAG d 404       1.712  27.258  -3.684  0.00  0.00    -0.348 OA
ATOM      5  C3  NAG d 404       0.377  27.041  -3.995  0.00  0.00     0.093 C 
ATOM      6  O4  NAG d 404       0.893  24.850  -5.008  0.00  0.00    -0.390 OA
ATOM      7  C7  NAG d 404      -1.710  29.567  -4.266  0.00  0.00     0.214 C 
ATOM      8  C5  NAG d 404      -1.394  25.431  -4.659  0.00  0.00     0.089 C 
ATOM      9  C6  NAG d 404      -1.830  24.007  -4.907  0.00  0.00     0.043 C 
ATOM     10  O5  NAG d 404      -2.267  26.108  -3.761  0.00  0.00    -0.337 OA
ATOM     11  C1  NAG d 404      -1.698  26.838  -2.719  0.00  0.00     0.283 C 
ATOM     12  O7  NAG d 404      -2.462  28.818  -4.883  0.00  0.00    -0.274 OA
ATOM     13  C4  NAG d 404       0.033  25.556  -4.106  0.00  0.00     0.089 C 
ATOM     14  C2  NAG d 404      -0.523  27.724  -2.975  0.00  0.00     0.102 C 
ATOM     15  H   NAG d 404      -0.980  31.511  -3.864  0.00  0.00     0.040 H 
ATOM     16  H   NAG d 404      -2.675  31.448  -4.284  0.00  0.00     0.040 H 
ATOM     17  H   NAG d 404      -1.459  31.248  -5.523  0.00  0.00     0.040 H 
ATOM     18  H   NAG d 404      -3.329  22.721  -4.742  0.00  0.00     0.209 HD
ATOM     19  H   NAG d 404      -0.334  29.818  -2.816  0.00  0.00     0.163 HD
ATOM     20  H   NAG d 404       0.205  27.471  -4.960  0.00  0.00     0.091 H 
ATOM     21  H   NAG d 404       1.808  24.906  -4.692  0.00  0.00     0.210 HD
ATOM     22  H   NAG d 404      -1.425  25.883  -5.628  0.00  0.00     0.090 H 
ATOM     23  H   NAG d 404      -1.727  23.818  -5.955  0.00  0.00     0.078 H 
ATOM     24  H   NAG d 404      -1.204  23.414  -4.274  0.00  0.00     0.078 H 
ATOM     25  H   NAG d 404       0.144  25.134  -3.130  0.00  0.00     0.091 H 
ATOM     26  H   NAG d 404      -0.015  27.840  -2.041  0.00  0.00     0.085 H 
ATOM     27  O4  NAG d 402      10.967  26.516  -7.640  0.00  0.00    -0.390 OA
ATOM     28  O5  NAG d 402       7.968  27.367  -5.779  0.00  0.00    -0.349 OA
ATOM     29  C7  NAG d 402       7.293  31.131  -8.486  0.00  0.00     0.214 C 
ATOM     30  N2  NAG d 402       7.395  29.771  -8.517  0.00  0.00    -0.349 N 
ATOM     31  C8  NAG d 402       6.475  31.812  -9.570  0.00  0.00    -0.003 C 
ATOM     32  C2  NAG d 402       8.178  29.010  -7.531  0.00  0.00     0.087 C 
ATOM     33  O6  NAG d 402       9.865  26.517  -3.968  0.00  0.00    -0.398 OA
ATOM     34  C6  NAG d 402       9.566  25.745  -5.128  0.00  0.00     0.043 C 
ATOM     35  C3  NAG d 402       9.337  28.226  -8.124  0.00  0.00     0.093 C 
ATOM     36  O7  NAG d 402       7.823  31.823  -7.640  0.00  0.00    -0.274 OA
ATOM     37  C1  NAG d 402       7.237  28.070  -6.771  0.00  0.00     0.154 C 
ATOM     38  C4  NAG d 402      10.009  27.385  -7.029  0.00  0.00     0.089 C 
ATOM     39  C5  NAG d 402       9.002  26.523  -6.292  0.00  0.00     0.089 C 
ATOM     40  O3  NAG d 402      10.351  29.098  -8.561  0.00  0.00    -0.348 OA
ATOM     41  H   NAG d 402      11.623  27.044  -8.119  0.00  0.00     0.210 HD
ATOM     42  H   NAG d 402       6.926  29.279  -9.229  0.00  0.00     0.163 HD
ATOM     43  H   NAG d 402       6.077  31.073 -10.233  0.00  0.00     0.040 H 
ATOM     44  H   NAG d 402       7.101  32.484 -10.119  0.00  0.00     0.040 H 
ATOM     45  H   NAG d 402       5.672  32.358  -9.120  0.00  0.00     0.040 H 
ATOM     46  H   NAG d 402       8.626  29.724  -6.873  0.00  0.00     0.084 H 
ATOM     47  H   NAG d 402      10.220  25.937  -3.276  0.00  0.00     0.209 HD
ATOM     48  H   NAG d 402       8.852  24.998  -4.853  0.00  0.00     0.078 H 
ATOM     49  H   NAG d 402      10.499  25.342  -5.465  0.00  0.00     0.078 H 
ATOM     50  H   NAG d 402       8.939  27.634  -8.921  0.00  0.00     0.091 H 
ATOM     51  H   NAG d 402       6.812  27.331  -7.418  0.00  0.00     0.132 H 
ATOM     52  H   NAG d 402      10.470  28.053  -6.332  0.00  0.00     0.091 H 
ATOM     53  H   NAG d 402       8.652  25.809  -7.007  0.00  0.00     0.090 H 
ATOM     54  O4  GCU d 401      12.119  30.568 -13.406  0.00  0.00    -0.390 OA
ATOM     55  C4  GCU d 401      12.240  30.204 -12.027  0.00  0.00     0.097 C 
ATOM     56  C6  GCU d 401      12.119  27.716 -12.519  0.00  0.00     0.206 C 
ATOM     57  C2  GCU d 401      11.255  30.822  -9.825  0.00  0.00     0.110 C 
ATOM     58  O3  GCU d 401      12.460  32.428 -11.197  0.00  0.00    -0.390 OA
ATOM     59  C1  GCU d 401      10.536  29.474  -9.806  0.00  0.00     0.160 C 
ATOM     60  O2  GCU d 401      10.476  31.804  -9.160  0.00  0.00    -0.388 OA
ATOM     61  O6B GCU d 401      12.562  28.075 -13.631  0.00  0.00    -0.646 OA
ATOM     62  C3  GCU d 401      11.565  31.304 -11.221  0.00  0.00     0.092 C 
ATOM     63  O5  GCU d 401      11.419  28.551 -10.446  0.00  0.00    -0.340 OA
ATOM     64  C5  GCU d 401      11.506  28.870 -11.823  0.00  0.00     0.152 C 
ATOM     65  O6A GCU d 401      12.062  26.634 -11.897  0.00  0.00    -0.646 OA
ATOM     66  H   GCU d 401      12.576  31.410 -13.560  0.00  0.00     0.210 HD
ATOM     67  H   GCU d 401      13.260  30.094 -11.721  0.00  0.00     0.091 H 
ATOM     68  H   GCU d 401      12.185  30.674  -9.317  0.00  0.00     0.094 H 
ATOM     69  H   GCU d 401      12.642  32.715 -12.106  0.00  0.00     0.210 HD
ATOM     70  H   GCU d 401       9.585  29.523 -10.296  0.00  0.00     0.133 H 
ATOM     71  H   GCU d 401       9.638  31.926  -9.633  0.00  0.00     0.210 HD
ATOM     72  H   GCU d 401      10.635  31.585 -11.667  0.00  0.00     0.091 H 
ATOM     73  H   GCU d 401      10.539  29.028 -12.254  0.00  0.00     0.104 H 
ATOM     74  O4  GCU d 405      -2.635  27.178  -1.808  0.00  0.00    -0.189 OA
ATOM     75  O2  GCU d 403       3.421  28.736  -2.383  0.00  0.00    -0.388 OA
ATOM     76  C5  GCU d 403       3.924  28.079  -6.466  0.00  0.00     0.152 C 
ATOM     77  O5  GCU d 403       2.891  27.505  -5.713  0.00  0.00    -0.340 OA
ATOM     78  C6  GCU d 403       4.049  27.348  -7.754  0.00  0.00     0.206 C 
ATOM     79  C3  GCU d 403       4.885  28.799  -4.276  0.00  0.00     0.092 C 
ATOM     80  O3  GCU d 403       6.088  28.915  -3.500  0.00  0.00    -0.390 OA
ATOM     81  C1  GCU d 403       2.558  27.913  -4.416  0.00  0.00     0.160 C 
ATOM     82  O4  GCU d 403       6.243  28.798  -6.267  0.00  0.00    -0.348 OA
ATOM     83  O6A GCU d 403       4.026  26.094  -7.731  0.00  0.00    -0.646 OA
ATOM     84  C2  GCU d 403       3.815  28.022  -3.555  0.00  0.00     0.110 C 
ATOM     85  C4  GCU d 403       5.193  28.142  -5.610  0.00  0.00     0.103 C 
ATOM     86  O6B GCU d 403       4.176  28.043  -8.782  0.00  0.00    -0.646 OA
ATOM     87  H   GCU d 403       4.185  28.836  -1.794  0.00  0.00     0.210 HD
ATOM     88  H   GCU d 403       3.717  29.093  -6.737  0.00  0.00     0.104 H 
ATOM     89  H   GCU d 403       4.509  29.789  -4.435  0.00  0.00     0.091 H 
ATOM     90  H   GCU d 403       6.454  28.032  -3.338  0.00  0.00     0.210 HD
ATOM     91  H   GCU d 403       2.047  28.820  -4.667  0.00  0.00     0.133 H 
ATOM     92  H   GCU d 403       4.213  27.055  -3.330  0.00  0.00     0.094 H 
ATOM     93  H   GCU d 403       5.522  27.139  -5.436  0.00  0.00     0.092 H 
ENDROOT
TORSDOF 23
ENDMDL
MODEL 14
REMARK VINA RESULT:      -6.7      2.187      2.732
REMARK  0 active torsions:
REMARK  status: ('A' for Active; 'I' for Inactive)
REMARK       I    between atoms: C8_1  and  C7_27 
REMARK       I    between atoms: O6_2  and  C6_34 
REMARK       I    between atoms: O4_3  and  C4_39 
REMARK       I    between atoms: O4_4  and  C4_6 
REMARK       I    between atoms: O2_7  and  C2_37 
REMARK       I    between atoms: C7_9  and  C8_15 
REMARK       I    between atoms: C7_9  and  N2_13 
REMARK       I    between atoms: N2_10  and  C2_53 
REMARK       I    between atoms: N2_10  and  C7_27 
REMARK       I    between atoms: C6_11  and  C5_48 
REMARK       I    between atoms: C5_12  and  C6_17 
REMARK       I    between atoms: N2_13  and  C2_19 
REMARK       I    between atoms: C2_16  and  O2_42 
REMARK       I    between atoms: C3_18  and  O3_23 
REMARK       I    between atoms: O3_20  and  C1_24 
REMARK       I    between atoms: O3_20  and  C3_22 
REMARK       I    between atoms: O6_21  and  C6_28 
REMARK       I    between atoms: O4_25  and  C4_50 
REMARK       I    between atoms: O4_26  and  C1_33 
REMARK       I    between atoms: O4_26  and  C4_41 
REMARK       I    between atoms: C6_28  and  C5_43 
REMARK       I    between atoms: C5_29  and  C6_34 
REMARK       I    between atoms: O3_30  and  C3_46 
REMARK       I    between atoms: C3_31  and  O3_49 
REMARK       I    between atoms: C1_38  and  O3_49 
ROOT
ATOM      1  C8  NAG d 404      -1.002  30.109  -3.475  0.00  0.00    -0.003 C 
ATOM      2  O6  NAG d 404      -4.200  23.826  -6.146  0.00  0.00    -0.398 OA
ATOM      3  N2  NAG d 404      -0.413  27.758  -3.474  0.00  0.00    -0.349 N 
ATOM      4  O3  NAG d 404       1.482  25.936  -5.244  0.00  0.00    -0.348 OA
ATOM      5  C3  NAG d 404       0.101  26.070  -5.244  0.00  0.00     0.093 C 
ATOM      6  O4  NAG d 404      -0.123  24.536  -7.165  0.00  0.00    -0.390 OA
ATOM      7  C7  NAG d 404      -1.323  28.699  -3.878  0.00  0.00     0.214 C 
ATOM      8  C5  NAG d 404      -2.097  25.200  -6.005  0.00  0.00     0.089 C 
ATOM      9  C6  NAG d 404      -2.904  24.122  -6.688  0.00  0.00     0.043 C 
ATOM     10  O5  NAG d 404      -2.603  25.505  -4.709  0.00  0.00    -0.337 OA
ATOM     11  C1  NAG d 404      -1.695  25.592  -3.656  0.00  0.00     0.283 C 
ATOM     12  O7  NAG d 404      -2.334  28.425  -4.520  0.00  0.00    -0.274 OA
ATOM     13  C4  NAG d 404      -0.607  24.863  -5.858  0.00  0.00     0.089 C 
ATOM     14  C2  NAG d 404      -0.406  26.327  -3.832  0.00  0.00     0.102 C 
ATOM     15  H   NAG d 404      -0.084  30.123  -2.927  0.00  0.00     0.040 H 
ATOM     16  H   NAG d 404      -1.790  30.493  -2.860  0.00  0.00     0.040 H 
ATOM     17  H   NAG d 404      -0.904  30.717  -4.351  0.00  0.00     0.040 H 
ATOM     18  H   NAG d 404      -4.615  23.121  -6.668  0.00  0.00     0.209 HD
ATOM     19  H   NAG d 404       0.311  28.069  -2.885  0.00  0.00     0.163 HD
ATOM     20  H   NAG d 404      -0.133  26.912  -5.861  0.00  0.00     0.091 H 
ATOM     21  H   NAG d 404       0.820  24.316  -7.115  0.00  0.00     0.210 HD
ATOM     22  H   NAG d 404      -2.193  26.045  -6.655  0.00  0.00     0.090 H 
ATOM     23  H   NAG d 404      -3.042  24.421  -7.706  0.00  0.00     0.078 H 
ATOM     24  H   NAG d 404      -2.337  23.226  -6.550  0.00  0.00     0.078 H 
ATOM     25  H   NAG d 404      -0.427  24.030  -5.211  0.00  0.00     0.091 H 
ATOM     26  H   NAG d 404       0.276  25.933  -3.108  0.00  0.00     0.085 H 
ATOM     27  O4  NAG d 402       9.406  25.825 -11.495  0.00  0.00    -0.390 OA
ATOM     28  O5  NAG d 402       7.092  26.133  -8.714  0.00  0.00    -0.349 OA
ATOM     29  C7  NAG d 402       6.871  30.770  -9.342  0.00  0.00     0.214 C 
ATOM     30  N2  NAG d 402       6.633  29.576  -9.956  0.00  0.00    -0.349 N 
ATOM     31  C8  NAG d 402       6.061  31.976  -9.786  0.00  0.00    -0.003 C 
ATOM     32  C2  NAG d 402       7.373  28.349  -9.622  0.00  0.00     0.087 C 
ATOM     33  O6  NAG d 402       9.022  24.299  -7.999  0.00  0.00    -0.398 OA
ATOM     34  C6  NAG d 402       8.339  24.191  -9.246  0.00  0.00     0.043 C 
ATOM     35  C3  NAG d 402       8.180  27.772 -10.773  0.00  0.00     0.093 C 
ATOM     36  O7  NAG d 402       7.697  30.919  -8.465  0.00  0.00    -0.274 OA
ATOM     37  C1  NAG d 402       6.386  27.304  -9.092  0.00  0.00     0.154 C 
ATOM     38  C4  NAG d 402       8.815  26.440 -10.347  0.00  0.00     0.089 C 
ATOM     39  C5  NAG d 402       7.779  25.484  -9.787  0.00  0.00     0.089 C 
ATOM     40  O3  NAG d 402       9.279  28.600 -11.069  0.00  0.00    -0.348 OA
ATOM     41  H   NAG d 402      10.073  26.418 -11.872  0.00  0.00     0.210 HD
ATOM     42  H   NAG d 402       5.937  29.533 -10.651  0.00  0.00     0.163 HD
ATOM     43  H   NAG d 402       5.381  31.684 -10.559  0.00  0.00     0.040 H 
ATOM     44  H   NAG d 402       6.721  32.732 -10.157  0.00  0.00     0.040 H 
ATOM     45  H   NAG d 402       5.509  32.360  -8.953  0.00  0.00     0.040 H 
ATOM     46  H   NAG d 402       8.092  28.615  -8.876  0.00  0.00     0.084 H 
ATOM     47  H   NAG d 402       9.344  23.424  -7.731  0.00  0.00     0.209 HD
ATOM     48  H   NAG d 402       7.527  23.506  -9.120  0.00  0.00     0.078 H 
ATOM     49  H   NAG d 402       9.069  23.864  -9.956  0.00  0.00     0.078 H 
ATOM     50  H   NAG d 402       7.512  27.671 -11.602  0.00  0.00     0.091 H 
ATOM     51  H   NAG d 402       5.685  27.009  -9.844  0.00  0.00     0.132 H 
ATOM     52  H   NAG d 402       9.542  26.646  -9.590  0.00  0.00     0.091 H 
ATOM     53  H   NAG d 402       7.143  25.231 -10.608  0.00  0.00     0.090 H 
ATOM     54  O4  GCU d 401      10.442  31.864 -15.161  0.00  0.00    -0.390 OA
ATOM     55  C4  GCU d 401      10.720  30.898 -14.143  0.00  0.00     0.097 C 
ATOM     56  C6  GCU d 401       9.911  28.952 -15.561  0.00  0.00     0.206 C 
ATOM     57  C2  GCU d 401      10.330  30.569 -11.706  0.00  0.00     0.110 C 
ATOM     58  O3  GCU d 401      11.619  32.442 -12.567  0.00  0.00    -0.390 OA
ATOM     59  C1  GCU d 401       9.320  29.474 -12.049  0.00  0.00     0.160 C 
ATOM     60  O2  GCU d 401       9.946  31.234 -10.513  0.00  0.00    -0.388 OA
ATOM     61  O6B GCU d 401      10.219  29.715 -16.501  0.00  0.00    -0.646 OA
ATOM     62  C3  GCU d 401      10.489  31.588 -12.808  0.00  0.00     0.092 C 
ATOM     63  O5  GCU d 401       9.822  28.835 -13.224  0.00  0.00    -0.340 OA
ATOM     64  C5  GCU d 401       9.733  29.732 -14.316  0.00  0.00     0.152 C 
ATOM     65  O6A GCU d 401       9.707  27.725 -15.449  0.00  0.00    -0.646 OA
ATOM     66  H   GCU d 401      11.055  32.612 -15.073  0.00  0.00     0.210 HD
ATOM     67  H   GCU d 401      11.720  30.522 -14.198  0.00  0.00     0.091 H 
ATOM     68  H   GCU d 401      11.272  30.079 -11.575  0.00  0.00     0.094 H 
ATOM     69  H   GCU d 401      11.697  33.085 -13.289  0.00  0.00     0.210 HD
ATOM     70  H   GCU d 401       8.338  29.871 -12.198  0.00  0.00     0.133 H 
ATOM     71  H   GCU d 401       9.091  31.672 -10.648  0.00  0.00     0.210 HD
ATOM     72  H   GCU d 401       9.590  32.166 -12.829  0.00  0.00     0.091 H 
ATOM     73  H   GCU d 401       8.772  30.200 -14.364  0.00  0.00     0.104 H 
ATOM     74  O4  GCU d 405      -2.340  25.603  -2.470  0.00  0.00    -0.189 OA
ATOM     75  O2  GCU d 403       3.706  26.405  -3.966  0.00  0.00    -0.388 OA
ATOM     76  C5  GCU d 403       3.286  27.627  -7.928  0.00  0.00     0.152 C 
ATOM     77  O5  GCU d 403       2.298  26.918  -7.228  0.00  0.00    -0.340 OA
ATOM     78  C6  GCU d 403       2.994  27.555  -9.383  0.00  0.00     0.206 C 
ATOM     79  C3  GCU d 403       4.773  27.126  -5.984  0.00  0.00     0.092 C 
ATOM     80  O3  GCU d 403       6.088  26.709  -5.586  0.00  0.00    -0.390 OA
ATOM     81  C1  GCU d 403       2.315  26.730  -5.841  0.00  0.00     0.160 C 
ATOM     82  O4  GCU d 403       5.706  27.850  -8.085  0.00  0.00    -0.348 OA
ATOM     83  O6A GCU d 403       2.672  26.446  -9.872  0.00  0.00    -0.646 OA
ATOM     84  C2  GCU d 403       3.696  26.260  -5.387  0.00  0.00     0.110 C 
ATOM     85  C4  GCU d 403       4.666  27.116  -7.499  0.00  0.00     0.103 C 
ATOM     86  O6B GCU d 403       3.098  28.618 -10.027  0.00  0.00    -0.646 OA
ATOM     87  H   GCU d 403       4.565  26.120  -3.618  0.00  0.00     0.210 HD
ATOM     88  H   GCU d 403       3.286  28.670  -7.691  0.00  0.00     0.104 H 
ATOM     89  H   GCU d 403       4.626  28.120  -5.615  0.00  0.00     0.091 H 
ATOM     90  H   GCU d 403       6.252  25.808  -5.907  0.00  0.00     0.210 HD
ATOM     91  H   GCU d 403       2.003  27.711  -5.550  0.00  0.00     0.133 H 
ATOM     92  H   GCU d 403       3.881  25.253  -5.696  0.00  0.00     0.094 H 
ATOM     93  H   GCU d 403       4.768  26.110  -7.849  0.00  0.00     0.092 H 
ENDROOT
TORSDOF 23
ENDMDL
MODEL 15
REMARK VINA RESULT:      -6.5      2.407      3.072
REMARK  0 active torsions:
REMARK  status: ('A' for Active; 'I' for Inactive)
REMARK       I    between atoms: C8_1  and  C7_27 
REMARK       I    between atoms: O6_2  and  C6_34 
REMARK       I    between atoms: O4_3  and  C4_39 
REMARK       I    between atoms: O4_4  and  C4_6 
REMARK       I    between atoms: O2_7  and  C2_37 
REMARK       I    between atoms: C7_9  and  C8_15 
REMARK       I    between atoms: C7_9  and  N2_13 
REMARK       I    between atoms: N2_10  and  C2_53 
REMARK       I    between atoms: N2_10  and  C7_27 
REMARK       I    between atoms: C6_11  and  C5_48 
REMARK       I    between atoms: C5_12  and  C6_17 
REMARK       I    between atoms: N2_13  and  C2_19 
REMARK       I    between atoms: C2_16  and  O2_42 
REMARK       I    between atoms: C3_18  and  O3_23 
REMARK       I    between atoms: O3_20  and  C1_24 
REMARK       I    between atoms: O3_20  and  C3_22 
REMARK       I    between atoms: O6_21  and  C6_28 
REMARK       I    between atoms: O4_25  and  C4_50 
REMARK       I    between atoms: O4_26  and  C1_33 
REMARK       I    between atoms: O4_26  and  C4_41 
REMARK       I    between atoms: C6_28  and  C5_43 
REMARK       I    between atoms: C5_29  and  C6_34 
REMARK       I    between atoms: O3_30  and  C3_46 
REMARK       I    between atoms: C3_31  and  O3_49 
REMARK       I    between atoms: C1_38  and  O3_49 
ROOT
ATOM      1  C8  NAG d 404       2.604  29.438  -2.688  0.00  0.00    -0.003 C 
ATOM      2  O6  NAG d 404      -2.813  25.708  -6.375  0.00  0.00    -0.398 OA
ATOM      3  N2  NAG d 404       2.486  27.329  -3.878  0.00  0.00    -0.349 N 
ATOM      4  O3  NAG d 404       3.265  26.371  -6.797  0.00  0.00    -0.348 OA
ATOM      5  C3  NAG d 404       2.026  26.663  -6.242  0.00  0.00     0.093 C 
ATOM      6  O4  NAG d 404       0.890  26.298  -8.403  0.00  0.00    -0.390 OA
ATOM      7  C7  NAG d 404       1.806  28.455  -3.495  0.00  0.00     0.214 C 
ATOM      8  C5  NAG d 404      -0.447  26.561  -6.445  0.00  0.00     0.089 C 
ATOM      9  C6  NAG d 404      -1.672  26.063  -7.172  0.00  0.00     0.043 C 
ATOM     10  O5  NAG d 404      -0.492  26.259  -5.054  0.00  0.00    -0.337 OA
ATOM     11  C1  NAG d 404       0.645  25.707  -4.466  0.00  0.00     0.283 C 
ATOM     12  O7  NAG d 404       0.628  28.659  -3.780  0.00  0.00    -0.274 OA
ATOM     13  C4  NAG d 404       0.873  26.007  -7.001  0.00  0.00     0.089 C 
ATOM     14  C2  NAG d 404       1.997  26.264  -4.773  0.00  0.00     0.102 C 
ATOM     15  H   NAG d 404       3.599  29.067  -2.557  0.00  0.00     0.040 H 
ATOM     16  H   NAG d 404       2.143  29.571  -1.731  0.00  0.00     0.040 H 
ATOM     17  H   NAG d 404       2.639  30.376  -3.202  0.00  0.00     0.040 H 
ATOM     18  H   NAG d 404      -3.530  25.405  -6.953  0.00  0.00     0.209 HD
ATOM     19  H   NAG d 404       3.395  27.219  -3.518  0.00  0.00     0.163 HD
ATOM     20  H   NAG d 404       1.887  27.721  -6.323  0.00  0.00     0.091 H 
ATOM     21  H   NAG d 404       1.712  25.963  -8.792  0.00  0.00     0.210 HD
ATOM     22  H   NAG d 404      -0.466  27.618  -6.601  0.00  0.00     0.090 H 
ATOM     23  H   NAG d 404      -1.980  26.833  -7.848  0.00  0.00     0.078 H 
ATOM     24  H   NAG d 404      -1.365  25.148  -7.634  0.00  0.00     0.078 H 
ATOM     25  H   NAG d 404       0.973  24.950  -6.872  0.00  0.00     0.091 H 
ATOM     26  H   NAG d 404       2.703  25.485  -4.579  0.00  0.00     0.085 H 
ATOM     27  O4  NAG d 402       8.932  28.302 -14.922  0.00  0.00    -0.390 OA
ATOM     28  O5  NAG d 402       7.602  27.513 -11.637  0.00  0.00    -0.349 OA
ATOM     29  C7  NAG d 402       8.542  31.856 -10.155  0.00  0.00     0.214 C 
ATOM     30  N2  NAG d 402       7.826  31.151 -11.078  0.00  0.00    -0.349 N 
ATOM     31  C8  NAG d 402       8.018  33.217  -9.731  0.00  0.00    -0.003 C 
ATOM     32  C2  NAG d 402       8.251  29.834 -11.576  0.00  0.00     0.087 C 
ATOM     33  O6  NAG d 402       9.054  25.333 -12.500  0.00  0.00    -0.398 OA
ATOM     34  C6  NAG d 402       8.069  25.933 -13.338  0.00  0.00     0.043 C 
ATOM     35  C3  NAG d 402       8.535  29.791 -13.067  0.00  0.00     0.093 C 
ATOM     36  O7  NAG d 402       9.574  31.454  -9.659  0.00  0.00    -0.274 OA
ATOM     37  C1  NAG d 402       7.182  28.799 -11.211  0.00  0.00     0.154 C 
ATOM     38  C4  NAG d 402       8.857  28.352 -13.495  0.00  0.00     0.089 C 
ATOM     39  C5  NAG d 402       7.776  27.385 -13.050  0.00  0.00     0.089 C 
ATOM     40  O3  NAG d 402       9.707  30.512 -13.368  0.00  0.00    -0.348 OA
ATOM     41  H   NAG d 402       9.618  28.913 -15.231  0.00  0.00     0.210 HD
ATOM     42  H   NAG d 402       6.991  31.541 -11.424  0.00  0.00     0.163 HD
ATOM     43  H   NAG d 402       7.107  33.427 -10.252  0.00  0.00     0.040 H 
ATOM     44  H   NAG d 402       8.744  33.968  -9.965  0.00  0.00     0.040 H 
ATOM     45  H   NAG d 402       7.833  33.215  -8.677  0.00  0.00     0.040 H 
ATOM     46  H   NAG d 402       9.184  29.610 -11.103  0.00  0.00     0.084 H 
ATOM     47  H   NAG d 402       9.175  24.405 -12.756  0.00  0.00     0.209 HD
ATOM     48  H   NAG d 402       7.159  25.383 -13.225  0.00  0.00     0.078 H 
ATOM     49  H   NAG d 402       8.467  25.902 -14.331  0.00  0.00     0.078 H 
ATOM     50  H   NAG d 402       7.675  30.192 -13.561  0.00  0.00     0.091 H 
ATOM     51  H   NAG d 402       6.256  28.998 -11.708  0.00  0.00     0.132 H 
ATOM     52  H   NAG d 402       9.783  28.070 -13.040  0.00  0.00     0.091 H 
ATOM     53  H   NAG d 402       6.904  27.646 -13.612  0.00  0.00     0.090 H 
ATOM     54  O4  GCU d 401      10.639  35.174 -15.847  0.00  0.00    -0.390 OA
ATOM     55  C4  GCU d 401      10.888  33.808 -15.499  0.00  0.00     0.097 C 
ATOM     56  C6  GCU d 401       9.225  32.917 -17.199  0.00  0.00     0.206 C 
ATOM     57  C2  GCU d 401      11.067  32.389 -13.461  0.00  0.00     0.110 C 
ATOM     58  O3  GCU d 401      12.562  34.263 -13.866  0.00  0.00    -0.390 OA
ATOM     59  C1  GCU d 401       9.737  31.738 -13.838  0.00  0.00     0.160 C 
ATOM     60  O2  GCU d 401      11.210  32.435 -12.050  0.00  0.00    -0.388 OA
ATOM     61  O6B GCU d 401       9.480  33.994 -17.778  0.00  0.00    -0.646 OA
ATOM     62  C3  GCU d 401      11.216  33.785 -14.014  0.00  0.00     0.092 C 
ATOM     63  O5  GCU d 401       9.716  31.692 -15.265  0.00  0.00    -0.340 OA
ATOM     64  C5  GCU d 401       9.603  33.010 -15.771  0.00  0.00     0.152 C 
ATOM     65  O6A GCU d 401       8.719  31.827 -17.542  0.00  0.00    -0.646 OA
ATOM     66  H   GCU d 401      11.439  35.699 -15.684  0.00  0.00     0.210 HD
ATOM     67  H   GCU d 401      11.691  33.382 -16.062  0.00  0.00     0.091 H 
ATOM     68  H   GCU d 401      11.834  31.783 -13.895  0.00  0.00     0.094 H 
ATOM     69  H   GCU d 401      12.629  35.160 -14.230  0.00  0.00     0.210 HD
ATOM     70  H   GCU d 401       8.903  32.279 -13.442  0.00  0.00     0.133 H 
ATOM     71  H   GCU d 401      10.508  32.988 -11.671  0.00  0.00     0.210 HD
ATOM     72  H   GCU d 401      10.542  34.410 -13.467  0.00  0.00     0.091 H 
ATOM     73  H   GCU d 401       8.834  33.560 -15.270  0.00  0.00     0.104 H 
ATOM     74  O4  GCU d 405       0.360  25.223  -3.239  0.00  0.00    -0.189 OA
ATOM     75  O2  GCU d 403       5.783  25.873  -6.338  0.00  0.00    -0.388 OA
ATOM     76  C5  GCU d 403       4.711  28.907  -8.986  0.00  0.00     0.152 C 
ATOM     77  O5  GCU d 403       3.781  28.081  -8.339  0.00  0.00    -0.340 OA
ATOM     78  C6  GCU d 403       4.044  29.589 -10.125  0.00  0.00     0.206 C 
ATOM     79  C3  GCU d 403       6.449  27.341  -8.108  0.00  0.00     0.092 C 
ATOM     80  O3  GCU d 403       7.649  26.619  -8.424  0.00  0.00    -0.390 OA
ATOM     81  C1  GCU d 403       4.103  27.242  -7.266  0.00  0.00     0.160 C 
ATOM     82  O4  GCU d 403       6.969  28.868  -9.899  0.00  0.00    -0.348 OA
ATOM     83  O6A GCU d 403       3.308  28.908 -10.877  0.00  0.00    -0.646 OA
ATOM     84  C2  GCU d 403       5.364  26.439  -7.581  0.00  0.00     0.110 C 
ATOM     85  C4  GCU d 403       5.953  28.082  -9.338  0.00  0.00     0.103 C 
ATOM     86  O6B GCU d 403       4.272  30.808 -10.258  0.00  0.00    -0.646 OA
ATOM     87  H   GCU d 403       6.586  25.348  -6.476  0.00  0.00     0.210 HD
ATOM     88  H   GCU d 403       5.066  29.694  -8.354  0.00  0.00     0.104 H 
ATOM     89  H   GCU d 403       6.688  28.040  -7.334  0.00  0.00     0.091 H 
ATOM     90  H   GCU d 403       7.464  25.975  -9.126  0.00  0.00     0.210 HD
ATOM     91  H   GCU d 403       4.167  27.989  -6.502  0.00  0.00     0.133 H 
ATOM     92  H   GCU d 403       5.172  25.694  -8.324  0.00  0.00     0.094 H 
ATOM     93  H   GCU d 403       5.673  27.369 -10.085  0.00  0.00     0.092 H 
ENDROOT
TORSDOF 23
ENDMDL
MODEL 16
REMARK VINA RESULT:      -6.4      3.889     11.579
REMARK  0 active torsions:
REMARK  status: ('A' for Active; 'I' for Inactive)
REMARK       I    between atoms: C8_1  and  C7_27 
REMARK       I    between atoms: O6_2  and  C6_34 
REMARK       I    between atoms: O4_3  and  C4_39 
REMARK       I    between atoms: O4_4  and  C4_6 
REMARK       I    between atoms: O2_7  and  C2_37 
REMARK       I    between atoms: C7_9  and  C8_15 
REMARK       I    between atoms: C7_9  and  N2_13 
REMARK       I    between atoms: N2_10  and  C2_53 
REMARK       I    between atoms: N2_10  and  C7_27 
REMARK       I    between atoms: C6_11  and  C5_48 
REMARK       I    between atoms: C5_12  and  C6_17 
REMARK       I    between atoms: N2_13  and  C2_19 
REMARK       I    between atoms: C2_16  and  O2_42 
REMARK       I    between atoms: C3_18  and  O3_23 
REMARK       I    between atoms: O3_20  and  C1_24 
REMARK       I    between atoms: O3_20  and  C3_22 
REMARK       I    between atoms: O6_21  and  C6_28 
REMARK       I    between atoms: O4_25  and  C4_50 
REMARK       I    between atoms: O4_26  and  C1_33 
REMARK       I    between atoms: O4_26  and  C4_41 
REMARK       I    between atoms: C6_28  and  C5_43 
REMARK       I    between atoms: C5_29  and  C6_34 
REMARK       I    between atoms: O3_30  and  C3_46 
REMARK       I    between atoms: C3_31  and  O3_49 
REMARK       I    between atoms: C1_38  and  O3_49 
ROOT
ATOM      1  C8  NAG d 404       7.452  35.543 -11.623  0.00  0.00    -0.003 C 
ATOM      2  O6  NAG d 404      12.505  36.388  -6.091  0.00  0.00    -0.398 OA
ATOM      3  N2  NAG d 404       9.355  34.264 -10.835  0.00  0.00    -0.349 N 
ATOM      4  O3  NAG d 404       9.716  31.740  -8.951  0.00  0.00    -0.348 OA
ATOM      5  C3  NAG d 404       9.928  33.090  -8.705  0.00  0.00     0.093 C 
ATOM      6  O4  NAG d 404      10.476  32.647  -6.339  0.00  0.00    -0.390 OA
ATOM      7  C7  NAG d 404       8.577  35.376 -10.643  0.00  0.00     0.214 C 
ATOM      8  C5  NAG d 404      10.873  34.832  -7.208  0.00  0.00     0.089 C 
ATOM      9  C6  NAG d 404      11.703  35.199  -6.002  0.00  0.00     0.043 C 
ATOM     10  O5  NAG d 404      11.293  35.528  -8.378  0.00  0.00    -0.337 OA
ATOM     11  C1  NAG d 404      11.460  34.795  -9.551  0.00  0.00     0.283 C 
ATOM     12  O7  NAG d 404       8.775  36.187  -9.743  0.00  0.00    -0.274 OA
ATOM     13  C4  NAG d 404      10.877  33.331  -7.531  0.00  0.00     0.089 C 
ATOM     14  C2  NAG d 404      10.440  33.783  -9.959  0.00  0.00     0.102 C 
ATOM     15  H   NAG d 404       7.460  34.729 -12.318  0.00  0.00     0.040 H 
ATOM     16  H   NAG d 404       7.574  36.465 -12.152  0.00  0.00     0.040 H 
ATOM     17  H   NAG d 404       6.520  35.553 -11.097  0.00  0.00     0.040 H 
ATOM     18  H   NAG d 404      12.987  36.515  -5.260  0.00  0.00     0.209 HD
ATOM     19  H   NAG d 404       9.169  33.730 -11.641  0.00  0.00     0.163 HD
ATOM     20  H   NAG d 404       8.983  33.511  -8.429  0.00  0.00     0.091 H 
ATOM     21  H   NAG d 404      10.465  31.691  -6.502  0.00  0.00     0.210 HD
ATOM     22  H   NAG d 404       9.880  35.120  -6.935  0.00  0.00     0.090 H 
ATOM     23  H   NAG d 404      11.034  35.324  -5.177  0.00  0.00     0.078 H 
ATOM     24  H   NAG d 404      12.407  34.400  -5.899  0.00  0.00     0.078 H 
ATOM     25  H   NAG d 404      11.838  32.966  -7.825  0.00  0.00     0.091 H 
ATOM     26  H   NAG d 404      10.935  33.086 -10.601  0.00  0.00     0.085 H 
ATOM     27  O4  NAG d 402       5.209  23.606  -5.029  0.00  0.00    -0.390 OA
ATOM     28  O5  NAG d 402       6.702  26.157  -7.137  0.00  0.00    -0.349 OA
ATOM     29  C7  NAG d 402       2.454  27.729  -8.334  0.00  0.00     0.214 C 
ATOM     30  N2  NAG d 402       3.281  27.530  -7.267  0.00  0.00    -0.349 N 
ATOM     31  C8  NAG d 402       1.407  28.824  -8.231  0.00  0.00    -0.003 C 
ATOM     32  C2  NAG d 402       4.316  26.484  -7.248  0.00  0.00     0.087 C 
ATOM     33  O6  NAG d 402       8.148  23.835  -7.480  0.00  0.00    -0.398 OA
ATOM     34  C6  NAG d 402       7.861  24.330  -6.175  0.00  0.00     0.043 C 
ATOM     35  C3  NAG d 402       4.124  25.433  -6.169  0.00  0.00     0.093 C 
ATOM     36  O7  NAG d 402       2.510  27.076  -9.356  0.00  0.00    -0.274 OA
ATOM     37  C1  NAG d 402       5.688  27.149  -7.102  0.00  0.00     0.154 C 
ATOM     38  C4  NAG d 402       5.315  24.464  -6.168  0.00  0.00     0.089 C 
ATOM     39  C5  NAG d 402       6.635  25.205  -6.073  0.00  0.00     0.089 C 
ATOM     40  O3  NAG d 402       3.015  24.618  -6.464  0.00  0.00    -0.348 OA
ATOM     41  H   NAG d 402       4.371  23.120  -5.067  0.00  0.00     0.210 HD
ATOM     42  H   NAG d 402       3.180  28.109  -6.478  0.00  0.00     0.163 HD
ATOM     43  H   NAG d 402       1.484  29.304  -7.278  0.00  0.00     0.040 H 
ATOM     44  H   NAG d 402       0.431  28.396  -8.337  0.00  0.00     0.040 H 
ATOM     45  H   NAG d 402       1.566  29.543  -9.007  0.00  0.00     0.040 H 
ATOM     46  H   NAG d 402       4.239  25.956  -8.175  0.00  0.00     0.084 H 
ATOM     47  H   NAG d 402       8.948  23.287  -7.449  0.00  0.00     0.209 HD
ATOM     48  H   NAG d 402       8.703  24.901  -5.844  0.00  0.00     0.078 H 
ATOM     49  H   NAG d 402       7.662  23.470  -5.569  0.00  0.00     0.078 H 
ATOM     50  H   NAG d 402       4.009  25.955  -5.242  0.00  0.00     0.091 H 
ATOM     51  H   NAG d 402       5.784  27.650  -6.162  0.00  0.00     0.132 H 
ATOM     52  H   NAG d 402       5.293  23.911  -7.084  0.00  0.00     0.091 H 
ATOM     53  H   NAG d 402       6.648  25.651  -5.101  0.00  0.00     0.090 H 
ATOM     54  O4  GCU d 401      -1.878  24.127  -4.324  0.00  0.00    -0.390 OA
ATOM     55  C4  GCU d 401      -0.661  23.665  -4.920  0.00  0.00     0.097 C 
ATOM     56  C6  GCU d 401       0.603  23.698  -2.717  0.00  0.00     0.206 C 
ATOM     57  C2  GCU d 401       0.779  24.166  -6.888  0.00  0.00     0.110 C 
ATOM     58  O3  GCU d 401      -1.529  23.438  -7.127  0.00  0.00    -0.390 OA
ATOM     59  C1  GCU d 401       1.820  24.753  -5.936  0.00  0.00     0.160 C 
ATOM     60  O2  GCU d 401       0.811  24.848  -8.133  0.00  0.00    -0.388 OA
ATOM     61  O6B GCU d 401      -0.542  23.551  -2.239  0.00  0.00    -0.646 OA
ATOM     62  C3  GCU d 401      -0.624  24.222  -6.334  0.00  0.00     0.092 C 
ATOM     63  O5  GCU d 401       1.744  23.970  -4.744  0.00  0.00    -0.340 OA
ATOM     64  C5  GCU d 401       0.510  24.226  -4.097  0.00  0.00     0.152 C 
ATOM     65  O6A GCU d 401       1.766  23.526  -2.295  0.00  0.00    -0.646 OA
ATOM     66  H   GCU d 401      -2.634  23.785  -4.827  0.00  0.00     0.210 HD
ATOM     67  H   GCU d 401      -0.595  22.597  -4.941  0.00  0.00     0.091 H 
ATOM     68  H   GCU d 401       1.037  23.136  -7.019  0.00  0.00     0.094 H 
ATOM     69  H   GCU d 401      -2.420  23.492  -6.748  0.00  0.00     0.210 HD
ATOM     70  H   GCU d 401       1.643  25.791  -5.744  0.00  0.00     0.133 H 
ATOM     71  H   GCU d 401       0.575  25.779  -7.997  0.00  0.00     0.210 HD
ATOM     72  H   GCU d 401      -0.922  25.250  -6.345  0.00  0.00     0.091 H 
ATOM     73  H   GCU d 401       0.311  25.275  -4.028  0.00  0.00     0.104 H 
ATOM     74  O4  GCU d 405      12.120  35.523 -10.477  0.00  0.00    -0.189 OA
ATOM     75  O2  GCU d 403       9.337  29.901 -10.760  0.00  0.00    -0.388 OA
ATOM     76  C5  GCU d 403       6.651  30.295  -7.599  0.00  0.00     0.152 C 
ATOM     77  O5  GCU d 403       7.805  31.080  -7.735  0.00  0.00    -0.340 OA
ATOM     78  C6  GCU d 403       6.149  30.410  -6.204  0.00  0.00     0.206 C 
ATOM     79  C3  GCU d 403       7.578  28.918  -9.466  0.00  0.00     0.092 C 
ATOM     80  O3  GCU d 403       7.802  27.583  -9.944  0.00  0.00    -0.390 OA
ATOM     81  C1  GCU d 403       8.569  31.139  -8.907  0.00  0.00     0.160 C 
ATOM     82  O4  GCU d 403       5.814  28.056  -8.068  0.00  0.00    -0.348 OA
ATOM     83  O6A GCU d 403       6.976  30.328  -5.266  0.00  0.00    -0.646 OA
ATOM     84  C2  GCU d 403       8.846  29.730  -9.429  0.00  0.00     0.110 C 
ATOM     85  C4  GCU d 403       6.953  28.873  -8.082  0.00  0.00     0.103 C 
ATOM     86  O6B GCU d 403       4.920  30.577  -6.065  0.00  0.00    -0.646 OA
ATOM     87  H   GCU d 403       9.532  29.033 -11.146  0.00  0.00     0.210 HD
ATOM     88  H   GCU d 403       5.848  30.638  -8.217  0.00  0.00     0.104 H 
ATOM     89  H   GCU d 403       6.911  29.398 -10.152  0.00  0.00     0.091 H 
ATOM     90  H   GCU d 403       8.406  27.121  -9.342  0.00  0.00     0.210 HD
ATOM     91  H   GCU d 403       7.917  31.763  -9.482  0.00  0.00     0.133 H 
ATOM     92  H   GCU d 403       9.543  29.216  -8.801  0.00  0.00     0.094 H 
ATOM     93  H   GCU d 403       7.650  28.434  -7.399  0.00  0.00     0.092 H 
ENDROOT
TORSDOF 23
ENDMDL
MODEL 17
REMARK VINA RESULT:      -6.4      4.237     12.714
REMARK  0 active torsions:
REMARK  status: ('A' for Active; 'I' for Inactive)
REMARK       I    between atoms: C8_1  and  C7_27 
REMARK       I    between atoms: O6_2  and  C6_34 
REMARK       I    between atoms: O4_3  and  C4_39 
REMARK       I    between atoms: O4_4  and  C4_6 
REMARK       I    between atoms: O2_7  and  C2_37 
REMARK       I    between atoms: C7_9  and  C8_15 
REMARK       I    between atoms: C7_9  and  N2_13 
REMARK       I    between atoms: N2_10  and  C2_53 
REMARK       I    between atoms: N2_10  and  C7_27 
REMARK       I    between atoms: C6_11  and  C5_48 
REMARK       I    between atoms: C5_12  and  C6_17 
REMARK       I    between atoms: N2_13  and  C2_19 
REMARK       I    between atoms: C2_16  and  O2_42 
REMARK       I    between atoms: C3_18  and  O3_23 
REMARK       I    between atoms: O3_20  and  C1_24 
REMARK       I    between atoms: O3_20  and  C3_22 
REMARK       I    between atoms: O6_21  and  C6_28 
REMARK       I    between atoms: O4_25  and  C4_50 
REMARK       I    between atoms: O4_26  and  C1_33 
REMARK       I    between atoms: O4_26  and  C4_41 
REMARK       I    between atoms: C6_28  and  C5_43 
REMARK       I    between atoms: C5_29  and  C6_34 
REMARK       I    between atoms: O3_30  and  C3_46 
REMARK       I    between atoms: C3_31  and  O3_49 
REMARK       I    between atoms: C1_38  and  O3_49 
ROOT
ATOM      1  C8  NAG d 404       8.050  32.549 -10.621  0.00  0.00    -0.003 C 
ATOM      2  O6  NAG d 404      11.928  35.515  -4.876  0.00  0.00    -0.398 OA
ATOM      3  N2  NAG d 404       9.585  31.674  -8.962  0.00  0.00    -0.349 N 
ATOM      4  O3  NAG d 404       9.250  30.163  -6.195  0.00  0.00    -0.348 OA
ATOM      5  C3  NAG d 404       9.566  31.487  -6.470  0.00  0.00     0.093 C 
ATOM      6  O4  NAG d 404       9.562  32.063  -4.070  0.00  0.00    -0.390 OA
ATOM      7  C7  NAG d 404       8.923  32.782  -9.422  0.00  0.00     0.214 C 
ATOM      8  C5  NAG d 404      10.386  33.673  -5.623  0.00  0.00     0.089 C 
ATOM      9  C6  NAG d 404      10.989  34.492  -4.509  0.00  0.00     0.043 C 
ATOM     10  O5  NAG d 404      11.116  33.806  -6.839  0.00  0.00    -0.337 OA
ATOM     11  C1  NAG d 404      11.431  32.645  -7.544  0.00  0.00     0.283 C 
ATOM     12  O7  NAG d 404       9.028  33.891  -8.905  0.00  0.00    -0.274 OA
ATOM     13  C4  NAG d 404      10.277  32.175  -5.305  0.00  0.00     0.089 C 
ATOM     14  C2  NAG d 404      10.403  31.580  -7.738  0.00  0.00     0.102 C 
ATOM     15  H   NAG d 404       8.103  31.520 -10.907  0.00  0.00     0.040 H 
ATOM     16  H   NAG d 404       8.386  33.163 -11.431  0.00  0.00     0.040 H 
ATOM     17  H   NAG d 404       7.038  32.800 -10.379  0.00  0.00     0.040 H 
ATOM     18  H   NAG d 404      12.242  35.968  -4.078  0.00  0.00     0.209 HD
ATOM     19  H   NAG d 404       9.506  30.856  -9.503  0.00  0.00     0.163 HD
ATOM     20  H   NAG d 404       8.642  32.006  -6.618  0.00  0.00     0.091 H 
ATOM     21  H   NAG d 404       9.471  31.127  -3.833  0.00  0.00     0.210 HD
ATOM     22  H   NAG d 404       9.399  34.072  -5.732  0.00  0.00     0.090 H 
ATOM     23  H   NAG d 404      10.185  34.966  -3.987  0.00  0.00     0.078 H 
ATOM     24  H   NAG d 404      11.557  33.794  -3.930  0.00  0.00     0.078 H 
ATOM     25  H   NAG d 404      11.228  31.699  -5.192  0.00  0.00     0.091 H 
ATOM     26  H   NAG d 404      10.932  30.666  -7.909  0.00  0.00     0.085 H 
ATOM     27  O4  NAG d 402       3.102  24.524  -0.516  0.00  0.00    -0.390 OA
ATOM     28  O5  NAG d 402       5.287  25.924  -3.056  0.00  0.00    -0.349 OA
ATOM     29  C7  NAG d 402       1.591  26.947  -5.747  0.00  0.00     0.214 C 
ATOM     30  N2  NAG d 402       2.152  27.194  -4.528  0.00  0.00    -0.349 N 
ATOM     31  C8  NAG d 402       0.683  28.009  -6.343  0.00  0.00    -0.003 C 
ATOM     32  C2  NAG d 402       3.030  26.229  -3.847  0.00  0.00     0.087 C 
ATOM     33  O6  NAG d 402       6.486  23.639  -2.085  0.00  0.00    -0.398 OA
ATOM     34  C6  NAG d 402       5.998  24.641  -1.197  0.00  0.00     0.043 C 
ATOM     35  C3  NAG d 402       2.498  25.731  -2.515  0.00  0.00     0.093 C 
ATOM     36  O7  NAG d 402       1.777  25.926  -6.375  0.00  0.00    -0.274 OA
ATOM     37  C1  NAG d 402       4.412  26.862  -3.662  0.00  0.00     0.154 C 
ATOM     38  C4  NAG d 402       3.539  24.824  -1.844  0.00  0.00     0.089 C 
ATOM     39  C5  NAG d 402       4.891  25.506  -1.747  0.00  0.00     0.089 C 
ATOM     40  O3  NAG d 402       1.383  24.893  -2.709  0.00  0.00    -0.348 OA
ATOM     41  H   NAG d 402       2.238  24.086  -0.552  0.00  0.00     0.210 HD
ATOM     42  H   NAG d 402       1.962  28.052  -4.086  0.00  0.00     0.163 HD
ATOM     43  H   NAG d 402       0.620  28.842  -5.674  0.00  0.00     0.040 H 
ATOM     44  H   NAG d 402      -0.294  27.598  -6.494  0.00  0.00     0.040 H 
ATOM     45  H   NAG d 402       1.082  28.333  -7.281  0.00  0.00     0.040 H 
ATOM     46  H   NAG d 402       3.082  25.363  -4.473  0.00  0.00     0.084 H 
ATOM     47  H   NAG d 402       7.191  23.135  -1.649  0.00  0.00     0.209 HD
ATOM     48  H   NAG d 402       6.817  25.278  -0.935  0.00  0.00     0.078 H 
ATOM     49  H   NAG d 402       5.579  24.118  -0.362  0.00  0.00     0.078 H 
ATOM     50  H   NAG d 402       2.259  26.595  -1.931  0.00  0.00     0.091 H 
ATOM     51  H   NAG d 402       4.373  27.708  -3.009  0.00  0.00     0.132 H 
ATOM     52  H   NAG d 402       3.640  23.939  -2.437  0.00  0.00     0.091 H 
ATOM     53  H   NAG d 402       4.758  26.318  -1.063  0.00  0.00     0.090 H 
ATOM     54  O4  GCU d 401      -3.866  25.455  -1.771  0.00  0.00    -0.390 OA
ATOM     55  C4  GCU d 401      -2.617  24.759  -1.826  0.00  0.00     0.097 C 
ATOM     56  C6  GCU d 401      -1.836  25.682   0.408  0.00  0.00     0.206 C 
ATOM     57  C2  GCU d 401      -0.756  24.356  -3.430  0.00  0.00     0.110 C 
ATOM     58  O3  GCU d 401      -3.036  23.648  -3.892  0.00  0.00    -0.390 OA
ATOM     59  C1  GCU d 401       0.130  25.264  -2.578  0.00  0.00     0.160 C 
ATOM     60  O2  GCU d 401      -0.389  24.454  -4.797  0.00  0.00    -0.388 OA
ATOM     61  O6B GCU d 401      -3.063  25.775   0.620  0.00  0.00    -0.646 OA
ATOM     62  C3  GCU d 401      -2.225  24.672  -3.292  0.00  0.00     0.092 C 
ATOM     63  O5  GCU d 401      -0.280  25.054  -1.226  0.00  0.00    -0.340 OA
ATOM     64  C5  GCU d 401      -1.581  25.585  -1.048  0.00  0.00     0.152 C 
ATOM     65  O6A GCU d 401      -0.812  25.676   1.124  0.00  0.00    -0.646 OA
ATOM     66  H   GCU d 401      -4.539  24.952  -2.257  0.00  0.00     0.210 HD
ATOM     67  H   GCU d 401      -2.676  23.779  -1.400  0.00  0.00     0.091 H 
ATOM     68  H   GCU d 401      -0.601  23.361  -3.070  0.00  0.00     0.094 H 
ATOM     69  H   GCU d 401      -3.973  23.877  -3.789  0.00  0.00     0.210 HD
ATOM     70  H   GCU d 401       0.043  26.291  -2.868  0.00  0.00     0.133 H 
ATOM     71  H   GCU d 401      -0.535  25.361  -5.107  0.00  0.00     0.210 HD
ATOM     72  H   GCU d 401      -2.390  25.607  -3.786  0.00  0.00     0.091 H 
ATOM     73  H   GCU d 401      -1.664  26.571  -1.455  0.00  0.00     0.104 H 
ATOM     74  O4  GCU d 405      12.348  32.903  -8.500  0.00  0.00    -0.189 OA
ATOM     75  O2  GCU d 403       9.033  27.745  -7.146  0.00  0.00    -0.388 OA
ATOM     76  C5  GCU d 403       5.824  29.488  -5.139  0.00  0.00     0.152 C 
ATOM     77  O5  GCU d 403       7.066  30.117  -5.304  0.00  0.00    -0.340 OA
ATOM     78  C6  GCU d 403       5.064  30.187  -4.070  0.00  0.00     0.206 C 
ATOM     79  C3  GCU d 403       6.943  27.435  -6.020  0.00  0.00     0.092 C 
ATOM     80  O3  GCU d 403       7.099  26.018  -5.853  0.00  0.00    -0.390 OA
ATOM     81  C1  GCU d 403       8.055  29.662  -6.184  0.00  0.00     0.160 C 
ATOM     82  O4  GCU d 403       4.840  27.278  -4.852  0.00  0.00    -0.348 OA
ATOM     83  O6A GCU d 403       5.666  30.487  -3.012  0.00  0.00    -0.646 OA
ATOM     84  C2  GCU d 403       8.264  28.158  -6.015  0.00  0.00     0.110 C 
ATOM     85  C4  GCU d 403       6.047  27.987  -4.924  0.00  0.00     0.103 C 
ATOM     86  O6B GCU d 403       3.862  30.426  -4.303  0.00  0.00    -0.646 OA
ATOM     87  H   GCU d 403       9.199  26.791  -7.093  0.00  0.00     0.210 HD
ATOM     88  H   GCU d 403       5.211  29.559  -6.013  0.00  0.00     0.104 H 
ATOM     89  H   GCU d 403       6.492  27.599  -6.977  0.00  0.00     0.091 H 
ATOM     90  H   GCU d 403       7.508  25.836  -4.992  0.00  0.00     0.210 HD
ATOM     91  H   GCU d 403       7.614  30.003  -7.098  0.00  0.00     0.133 H 
ATOM     92  H   GCU d 403       8.751  27.939  -5.088  0.00  0.00     0.094 H 
ATOM     93  H   GCU d 403       6.533  27.859  -3.980  0.00  0.00     0.092 H 
ENDROOT
TORSDOF 23
ENDMDL
MODEL 18
REMARK VINA RESULT:      -6.4      3.764     12.431
REMARK  0 active torsions:
REMARK  status: ('A' for Active; 'I' for Inactive)
REMARK       I    between atoms: C8_1  and  C7_27 
REMARK       I    between atoms: O6_2  and  C6_34 
REMARK       I    between atoms: O4_3  and  C4_39 
REMARK       I    between atoms: O4_4  and  C4_6 
REMARK       I    between atoms: O2_7  and  C2_37 
REMARK       I    between atoms: C7_9  and  C8_15 
REMARK       I    between atoms: C7_9  and  N2_13 
REMARK       I    between atoms: N2_10  and  C2_53 
REMARK       I    between atoms: N2_10  and  C7_27 
REMARK       I    between atoms: C6_11  and  C5_48 
REMARK       I    between atoms: C5_12  and  C6_17 
REMARK       I    between atoms: N2_13  and  C2_19 
REMARK       I    between atoms: C2_16  and  O2_42 
REMARK       I    between atoms: C3_18  and  O3_23 
REMARK       I    between atoms: O3_20  and  C1_24 
REMARK       I    between atoms: O3_20  and  C3_22 
REMARK       I    between atoms: O6_21  and  C6_28 
REMARK       I    between atoms: O4_25  and  C4_50 
REMARK       I    between atoms: O4_26  and  C1_33 
REMARK       I    between atoms: O4_26  and  C4_41 
REMARK       I    between atoms: C6_28  and  C5_43 
REMARK       I    between atoms: C5_29  and  C6_34 
REMARK       I    between atoms: O3_30  and  C3_46 
REMARK       I    between atoms: C3_31  and  O3_49 
REMARK       I    between atoms: C1_38  and  O3_49 
ROOT
ATOM      1  C8  NAG d 404       5.748  33.550 -11.354  0.00  0.00    -0.003 C 
ATOM      2  O6  NAG d 404      10.948  35.751  -6.358  0.00  0.00    -0.398 OA
ATOM      3  N2  NAG d 404       7.638  32.486 -10.272  0.00  0.00    -0.349 N 
ATOM      4  O3  NAG d 404       7.984  30.575  -7.767  0.00  0.00    -0.348 OA
ATOM      5  C3  NAG d 404       8.233  31.933  -7.909  0.00  0.00     0.093 C 
ATOM      6  O4  NAG d 404       8.826  32.149  -5.523  0.00  0.00    -0.390 OA
ATOM      7  C7  NAG d 404       6.892  33.629 -10.385  0.00  0.00     0.214 C 
ATOM      8  C5  NAG d 404       9.254  33.994  -6.972  0.00  0.00     0.089 C 
ATOM      9  C6  NAG d 404      10.121  34.658  -5.929  0.00  0.00     0.043 C 
ATOM     10  O5  NAG d 404       9.663  34.325  -8.295  0.00  0.00    -0.337 OA
ATOM     11  C1  NAG d 404       9.785  33.291  -9.221  0.00  0.00     0.283 C 
ATOM     12  O7  NAG d 404       7.130  34.653  -9.749  0.00  0.00    -0.274 OA
ATOM     13  C4  NAG d 404       9.215  32.463  -6.865  0.00  0.00     0.089 C 
ATOM     14  C2  NAG d 404       8.732  32.236  -9.315  0.00  0.00     0.102 C 
ATOM     15  H   NAG d 404       5.721  32.576 -11.796  0.00  0.00     0.040 H 
ATOM     16  H   NAG d 404       5.879  34.286 -12.121  0.00  0.00     0.040 H 
ATOM     17  H   NAG d 404       4.829  33.733 -10.837  0.00  0.00     0.040 H 
ATOM     18  H   NAG d 404      11.453  36.089  -5.603  0.00  0.00     0.209 HD
ATOM     19  H   NAG d 404       7.421  31.754 -10.894  0.00  0.00     0.163 HD
ATOM     20  H   NAG d 404       7.305  32.442  -7.746  0.00  0.00     0.091 H 
ATOM     21  H   NAG d 404       8.789  31.187  -5.414  0.00  0.00     0.210 HD
ATOM     22  H   NAG d 404       8.275  34.375  -6.774  0.00  0.00     0.090 H 
ATOM     23  H   NAG d 404       9.474  35.026  -5.161  0.00  0.00     0.078 H 
ATOM     24  H   NAG d 404      10.808  33.899  -5.619  0.00  0.00     0.078 H 
ATOM     25  H   NAG d 404      10.161  32.004  -7.061  0.00  0.00     0.091 H 
ATOM     26  H   NAG d 404       9.195  31.374  -9.745  0.00  0.00     0.085 H 
ATOM     27  O4  NAG d 402       3.381  23.985  -1.664  0.00  0.00    -0.390 OA
ATOM     28  O5  NAG d 402       4.883  25.806  -4.422  0.00  0.00    -0.349 OA
ATOM     29  C7  NAG d 402       0.646  27.107  -5.941  0.00  0.00     0.214 C 
ATOM     30  N2  NAG d 402       1.493  27.188  -4.874  0.00  0.00    -0.349 N 
ATOM     31  C8  NAG d 402      -0.372  28.217  -6.130  0.00  0.00    -0.003 C 
ATOM     32  C2  NAG d 402       2.504  26.159  -4.582  0.00  0.00     0.087 C 
ATOM     33  O6  NAG d 402       6.266  23.439  -4.129  0.00  0.00    -0.398 OA
ATOM     34  C6  NAG d 402       6.021  24.285  -3.008  0.00  0.00     0.043 C 
ATOM     35  C3  NAG d 402       2.312  25.455  -3.249  0.00  0.00     0.093 C 
ATOM     36  O7  NAG d 402       0.663  26.195  -6.742  0.00  0.00    -0.274 OA
ATOM     37  C1  NAG d 402       3.894  26.797  -4.648  0.00  0.00     0.154 C 
ATOM     38  C4  NAG d 402       3.480  24.490  -2.999  0.00  0.00     0.089 C 
ATOM     39  C5  NAG d 402       4.819  25.189  -3.134  0.00  0.00     0.089 C 
ATOM     40  O3  NAG d 402       1.178  24.623  -3.288  0.00  0.00    -0.348 OA
ATOM     41  H   NAG d 402       2.531  23.532  -1.552  0.00  0.00     0.210 HD
ATOM     42  H   NAG d 402       1.425  27.966  -4.276  0.00  0.00     0.163 HD
ATOM     43  H   NAG d 402      -0.261  28.941  -5.350  0.00  0.00     0.040 H 
ATOM     44  H   NAG d 402      -1.360  27.805  -6.096  0.00  0.00     0.040 H 
ATOM     45  H   NAG d 402      -0.214  28.688  -7.078  0.00  0.00     0.040 H 
ATOM     46  H   NAG d 402       2.392  25.396  -5.324  0.00  0.00     0.084 H 
ATOM     47  H   NAG d 402       7.053  22.898  -3.959  0.00  0.00     0.209 HD
ATOM     48  H   NAG d 402       6.884  24.900  -2.863  0.00  0.00     0.078 H 
ATOM     49  H   NAG d 402       5.816  23.633  -2.184  0.00  0.00     0.078 H 
ATOM     50  H   NAG d 402       2.232  26.217  -2.503  0.00  0.00     0.091 H 
ATOM     51  H   NAG d 402       4.024  27.537  -3.887  0.00  0.00     0.132 H 
ATOM     52  H   NAG d 402       3.424  23.705  -3.723  0.00  0.00     0.091 H 
ATOM     53  H   NAG d 402       4.865  25.888  -2.325  0.00  0.00     0.090 H 
ATOM     54  O4  GCU d 401      -3.673  24.888  -1.018  0.00  0.00    -0.390 OA
ATOM     55  C4  GCU d 401      -2.482  24.243  -1.481  0.00  0.00     0.097 C 
ATOM     56  C6  GCU d 401      -1.166  24.851   0.605  0.00  0.00     0.206 C 
ATOM     57  C2  GCU d 401      -1.078  24.136  -3.534  0.00  0.00     0.110 C 
ATOM     58  O3  GCU d 401      -3.407  23.438  -3.524  0.00  0.00    -0.390 OA
ATOM     59  C1  GCU d 401      -0.001  24.934  -2.800  0.00  0.00     0.160 C 
ATOM     60  O2  GCU d 401      -1.059  24.444  -4.919  0.00  0.00    -0.388 OA
ATOM     61  O6B GCU d 401      -2.302  24.875   1.123  0.00  0.00    -0.646 OA
ATOM     62  C3  GCU d 401      -2.465  24.385  -2.995  0.00  0.00     0.092 C 
ATOM     63  O5  GCU d 401      -0.067  24.515  -1.435  0.00  0.00    -0.340 OA
ATOM     64  C5  GCU d 401      -1.279  24.976  -0.866  0.00  0.00     0.152 C 
ATOM     65  O6A GCU d 401       0.002  24.768   1.040  0.00  0.00    -0.646 OA
ATOM     66  H   GCU d 401      -4.449  24.442  -1.394  0.00  0.00     0.210 HD
ATOM     67  H   GCU d 401      -2.442  23.211  -1.205  0.00  0.00     0.091 H 
ATOM     68  H   GCU d 401      -0.847  23.103  -3.377  0.00  0.00     0.094 H 
ATOM     69  H   GCU d 401      -4.288  23.621  -3.161  0.00  0.00     0.210 HD
ATOM     70  H   GCU d 401      -0.149  25.989  -2.902  0.00  0.00     0.133 H 
ATOM     71  H   GCU d 401      -1.269  25.383  -5.044  0.00  0.00     0.210 HD
ATOM     72  H   GCU d 401      -2.739  25.377  -3.287  0.00  0.00     0.091 H 
ATOM     73  H   GCU d 401      -1.452  26.009  -1.088  0.00  0.00     0.104 H 
ATOM     74  O4  GCU d 405      10.440  33.713 -10.324  0.00  0.00    -0.189 OA
ATOM     75  O2  GCU d 403       7.519  28.318  -8.986  0.00  0.00    -0.388 OA
ATOM     76  C5  GCU d 403       4.919  29.652  -6.016  0.00  0.00     0.152 C 
ATOM     77  O5  GCU d 403       6.087  30.334  -6.384  0.00  0.00    -0.340 OA
ATOM     78  C6  GCU d 403       4.452  30.164  -4.701  0.00  0.00     0.206 C 
ATOM     79  C3  GCU d 403       5.769  27.785  -7.441  0.00  0.00     0.092 C 
ATOM     80  O3  GCU d 403       5.950  26.364  -7.532  0.00  0.00    -0.390 OA
ATOM     81  C1  GCU d 403       6.825  30.043  -7.538  0.00  0.00     0.160 C 
ATOM     82  O4  GCU d 403       4.019  27.397  -5.831  0.00  0.00    -0.348 OA
ATOM     83  O6A GCU d 403       5.299  30.322  -3.790  0.00  0.00    -0.646 OA
ATOM     84  C2  GCU d 403       7.056  28.538  -7.653  0.00  0.00     0.110 C 
ATOM     85  C4  GCU d 403       5.176  28.144  -6.090  0.00  0.00     0.103 C 
ATOM     86  O6B GCU d 403       3.232  30.399  -4.594  0.00  0.00    -0.646 OA
ATOM     87  H   GCU d 403       7.685  27.372  -9.118  0.00  0.00     0.210 HD
ATOM     88  H   GCU d 403       4.110  29.833  -6.693  0.00  0.00     0.104 H 
ATOM     89  H   GCU d 403       5.098  28.074  -8.223  0.00  0.00     0.091 H 
ATOM     90  H   GCU d 403       6.557  26.069  -6.835  0.00  0.00     0.210 HD
ATOM     91  H   GCU d 403       6.175  30.502  -8.254  0.00  0.00     0.133 H 
ATOM     92  H   GCU d 403       7.755  28.198  -6.917  0.00  0.00     0.094 H 
ATOM     93  H   GCU d 403       5.878  27.892  -5.323  0.00  0.00     0.092 H 
ENDROOT
TORSDOF 23
ENDMDL
MODEL 19
REMARK VINA RESULT:      -6.2      4.212     12.237
REMARK  0 active torsions:
REMARK  status: ('A' for Active; 'I' for Inactive)
REMARK       I    between atoms: C8_1  and  C7_27 
REMARK       I    between atoms: O6_2  and  C6_34 
REMARK       I    between atoms: O4_3  and  C4_39 
REMARK       I    between atoms: O4_4  and  C4_6 
REMARK       I    between atoms: O2_7  and  C2_37 
REMARK       I    between atoms: C7_9  and  C8_15 
REMARK       I    between atoms: C7_9  and  N2_13 
REMARK       I    between atoms: N2_10  and  C2_53 
REMARK       I    between atoms: N2_10  and  C7_27 
REMARK       I    between atoms: C6_11  and  C5_48 
REMARK       I    between atoms: C5_12  and  C6_17 
REMARK       I    between atoms: N2_13  and  C2_19 
REMARK       I    between atoms: C2_16  and  O2_42 
REMARK       I    between atoms: C3_18  and  O3_23 
REMARK       I    between atoms: O3_20  and  C1_24 
REMARK       I    between atoms: O3_20  and  C3_22 
REMARK       I    between atoms: O6_21  and  C6_28 
REMARK       I    between atoms: O4_25  and  C4_50 
REMARK       I    between atoms: O4_26  and  C1_33 
REMARK       I    between atoms: O4_26  and  C4_41 
REMARK       I    between atoms: C6_28  and  C5_43 
REMARK       I    between atoms: C5_29  and  C6_34 
REMARK       I    between atoms: O3_30  and  C3_46 
REMARK       I    between atoms: C3_31  and  O3_49 
REMARK       I    between atoms: C1_38  and  O3_49 
ROOT
ATOM      1  C8  NAG d 404      10.831  30.663 -14.763  0.00  0.00    -0.003 C 
ATOM      2  O6  NAG d 404      12.562  23.438 -16.042  0.00  0.00    -0.398 OA
ATOM      3  N2  NAG d 404       9.555  28.656 -15.233  0.00  0.00    -0.349 N 
ATOM      4  O3  NAG d 404       7.964  26.562 -13.464  0.00  0.00    -0.348 OA
ATOM      5  C3  NAG d 404       9.211  26.473 -14.067  0.00  0.00     0.093 C 
ATOM      6  O4  NAG d 404       9.617  24.251 -13.071  0.00  0.00    -0.390 OA
ATOM      7  C7  NAG d 404      10.802  29.185 -15.027  0.00  0.00     0.214 C 
ATOM      8  C5  NAG d 404      11.125  25.041 -14.741  0.00  0.00     0.089 C 
ATOM      9  C6  NAG d 404      11.729  23.666 -14.895  0.00  0.00     0.043 C 
ATOM     10  O5  NAG d 404      11.187  25.790 -15.950  0.00  0.00    -0.337 OA
ATOM     11  C1  NAG d 404      10.035  26.455 -16.368  0.00  0.00     0.283 C 
ATOM     12  O7  NAG d 404      11.830  28.514 -15.056  0.00  0.00    -0.274 OA
ATOM     13  C4  NAG d 404       9.663  25.028 -14.273  0.00  0.00     0.089 C 
ATOM     14  C2  NAG d 404       9.216  27.229 -15.388  0.00  0.00     0.102 C 
ATOM     15  H   NAG d 404       9.833  31.049 -14.782  0.00  0.00     0.040 H 
ATOM     16  H   NAG d 404      11.415  31.148 -15.517  0.00  0.00     0.040 H 
ATOM     17  H   NAG d 404      11.265  30.845 -13.802  0.00  0.00     0.040 H 
ATOM     18  H   NAG d 404      12.888  22.524 -16.028  0.00  0.00     0.209 HD
ATOM     19  H   NAG d 404       8.808  29.295 -15.283  0.00  0.00     0.163 HD
ATOM     20  H   NAG d 404       9.916  26.924 -13.400  0.00  0.00     0.091 H 
ATOM     21  H   NAG d 404       8.705  24.219 -12.742  0.00  0.00     0.210 HD
ATOM     22  H   NAG d 404      11.722  25.501 -13.982  0.00  0.00     0.090 H 
ATOM     23  H   NAG d 404      12.321  23.476 -14.025  0.00  0.00     0.078 H 
ATOM     24  H   NAG d 404      10.894  23.012 -15.028  0.00  0.00     0.078 H 
ATOM     25  H   NAG d 404       8.997  24.590 -14.987  0.00  0.00     0.091 H 
ATOM     26  H   NAG d 404       8.227  27.290 -15.792  0.00  0.00     0.085 H 
ATOM     27  O4  NAG d 402       3.329  24.988  -4.638  0.00  0.00    -0.390 OA
ATOM     28  O5  NAG d 402       4.420  26.102  -7.916  0.00  0.00    -0.349 OA
ATOM     29  C7  NAG d 402       6.348  29.933  -6.032  0.00  0.00     0.214 C 
ATOM     30  N2  NAG d 402       6.395  28.570  -6.015  0.00  0.00    -0.349 N 
ATOM     31  C8  NAG d 402       7.609  30.696  -5.663  0.00  0.00    -0.003 C 
ATOM     32  C2  NAG d 402       5.229  27.731  -6.334  0.00  0.00     0.087 C 
ATOM     33  O6  NAG d 402       1.881  25.064  -8.186  0.00  0.00    -0.398 OA
ATOM     34  C6  NAG d 402       2.900  24.333  -7.510  0.00  0.00     0.043 C 
ATOM     35  C3  NAG d 402       4.763  26.847  -5.190  0.00  0.00     0.093 C 
ATOM     36  O7  NAG d 402       5.354  30.566  -6.323  0.00  0.00    -0.274 OA
ATOM     37  C1  NAG d 402       5.554  26.878  -7.563  0.00  0.00     0.154 C 
ATOM     38  C4  NAG d 402       3.621  25.938  -5.666  0.00  0.00     0.089 C 
ATOM     39  C5  NAG d 402       4.006  25.169  -6.916  0.00  0.00     0.089 C 
ATOM     40  O3  NAG d 402       4.184  27.625  -4.169  0.00  0.00    -0.348 OA
ATOM     41  H   NAG d 402       3.079  25.457  -3.827  0.00  0.00     0.210 HD
ATOM     42  H   NAG d 402       7.243  28.130  -5.780  0.00  0.00     0.163 HD
ATOM     43  H   NAG d 402       8.391  30.003  -5.434  0.00  0.00     0.040 H 
ATOM     44  H   NAG d 402       7.416  31.311  -4.809  0.00  0.00     0.040 H 
ATOM     45  H   NAG d 402       7.907  31.311  -6.486  0.00  0.00     0.040 H 
ATOM     46  H   NAG d 402       4.414  28.396  -6.529  0.00  0.00     0.084 H 
ATOM     47  H   NAG d 402       1.217  24.448  -8.534  0.00  0.00     0.209 HD
ATOM     48  H   NAG d 402       3.339  23.653  -8.210  0.00  0.00     0.078 H 
ATOM     49  H   NAG d 402       2.420  23.847  -6.686  0.00  0.00     0.078 H 
ATOM     50  H   NAG d 402       5.617  26.301  -4.849  0.00  0.00     0.091 H 
ATOM     51  H   NAG d 402       6.347  26.187  -7.364  0.00  0.00     0.132 H 
ATOM     52  H   NAG d 402       2.775  26.555  -5.886  0.00  0.00     0.091 H 
ATOM     53  H   NAG d 402       4.782  24.496  -6.615  0.00  0.00     0.090 H 
ATOM     54  O4  GCU d 401       5.737  28.960   0.786  0.00  0.00    -0.390 OA
ATOM     55  C4  GCU d 401       4.806  28.576  -0.231  0.00  0.00     0.097 C 
ATOM     56  C6  GCU d 401       5.402  26.114  -0.054  0.00  0.00     0.206 C 
ATOM     57  C2  GCU d 401       4.141  29.266  -2.529  0.00  0.00     0.110 C 
ATOM     58  O3  GCU d 401       3.943  30.762  -0.623  0.00  0.00    -0.390 OA
ATOM     59  C1  GCU d 401       4.792  27.991  -3.064  0.00  0.00     0.160 C 
ATOM     60  O2  GCU d 401       4.252  30.311  -3.482  0.00  0.00    -0.388 OA
ATOM     61  O6B GCU d 401       5.728  26.438   1.107  0.00  0.00    -0.646 OA
ATOM     62  C3  GCU d 401       4.739  29.727  -1.222  0.00  0.00     0.092 C 
ATOM     63  O5  GCU d 401       4.580  26.994  -2.062  0.00  0.00    -0.340 OA
ATOM     64  C5  GCU d 401       5.352  27.315  -0.919  0.00  0.00     0.152 C 
ATOM     65  O6A GCU d 401       5.141  25.037  -0.631  0.00  0.00    -0.646 OA
ATOM     66  H   GCU d 401       5.413  29.757   1.236  0.00  0.00     0.210 HD
ATOM     67  H   GCU d 401       3.833  28.369   0.162  0.00  0.00     0.091 H 
ATOM     68  H   GCU d 401       3.113  29.028  -2.351  0.00  0.00     0.094 H 
ATOM     69  H   GCU d 401       4.349  31.039   0.213  0.00  0.00     0.210 HD
ATOM     70  H   GCU d 401       5.832  28.133  -3.274  0.00  0.00     0.133 H 
ATOM     71  H   GCU d 401       5.189  30.514  -3.631  0.00  0.00     0.210 HD
ATOM     72  H   GCU d 401       5.718  30.098  -1.442  0.00  0.00     0.091 H 
ATOM     73  H   GCU d 401       6.359  27.566  -1.179  0.00  0.00     0.104 H 
ATOM     74  O4  GCU d 405      10.164  26.874 -17.645  0.00  0.00    -0.189 OA
ATOM     75  O2  GCU d 403       5.709  27.863 -13.331  0.00  0.00    -0.388 OA
ATOM     76  C5  GCU d 403       7.931  27.195  -9.870  0.00  0.00     0.152 C 
ATOM     77  O5  GCU d 403       8.304  26.713 -11.134  0.00  0.00    -0.340 OA
ATOM     78  C6  GCU d 403       8.698  26.464  -8.828  0.00  0.00     0.206 C 
ATOM     79  C3  GCU d 403       5.756  27.804 -10.938  0.00  0.00     0.092 C 
ATOM     80  O3  GCU d 403       4.329  27.801 -10.785  0.00  0.00    -0.390 OA
ATOM     81  C1  GCU d 403       7.717  27.141 -12.331  0.00  0.00     0.160 C 
ATOM     82  O4  GCU d 403       5.953  27.692  -8.539  0.00  0.00    -0.348 OA
ATOM     83  O6A GCU d 403       8.799  25.219  -8.926  0.00  0.00    -0.646 OA
ATOM     84  C2  GCU d 403       6.194  27.125 -12.209  0.00  0.00     0.110 C 
ATOM     85  C4  GCU d 403       6.405  27.131  -9.741  0.00  0.00     0.103 C 
ATOM     86  O6B GCU d 403       9.190  27.153  -7.911  0.00  0.00    -0.646 OA
ATOM     87  H   GCU d 403       4.740  27.887 -13.308  0.00  0.00     0.210 HD
ATOM     88  H   GCU d 403       8.182  28.226  -9.736  0.00  0.00     0.104 H 
ATOM     89  H   GCU d 403       6.071  28.826 -10.997  0.00  0.00     0.091 H 
ATOM     90  H   GCU d 403       4.012  26.886 -10.729  0.00  0.00     0.210 HD
ATOM     91  H   GCU d 403       8.200  28.093 -12.406  0.00  0.00     0.133 H 
ATOM     92  H   GCU d 403       5.819  26.123 -12.187  0.00  0.00     0.094 H 
ATOM     93  H   GCU d 403       6.119  26.101  -9.724  0.00  0.00     0.092 H 
ENDROOT
TORSDOF 23
ENDMDL
MODEL 20
REMARK VINA RESULT:      -6.2      3.491     11.949
REMARK  0 active torsions:
REMARK  status: ('A' for Active; 'I' for Inactive)
REMARK       I    between atoms: C8_1  and  C7_27 
REMARK       I    between atoms: O6_2  and  C6_34 
REMARK       I    between atoms: O4_3  and  C4_39 
REMARK       I    between atoms: O4_4  and  C4_6 
REMARK       I    between atoms: O2_7  and  C2_37 
REMARK       I    between atoms: C7_9  and  C8_15 
REMARK       I    between atoms: C7_9  and  N2_13 
REMARK       I    between atoms: N2_10  and  C2_53 
REMARK       I    between atoms: N2_10  and  C7_27 
REMARK       I    between atoms: C6_11  and  C5_48 
REMARK       I    between atoms: C5_12  and  C6_17 
REMARK       I    between atoms: N2_13  and  C2_19 
REMARK       I    between atoms: C2_16  and  O2_42 
REMARK       I    between atoms: C3_18  and  O3_23 
REMARK       I    between atoms: O3_20  and  C1_24 
REMARK       I    between atoms: O3_20  and  C3_22 
REMARK       I    between atoms: O6_21  and  C6_28 
REMARK       I    between atoms: O4_25  and  C4_50 
REMARK       I    between atoms: O4_26  and  C1_33 
REMARK       I    between atoms: O4_26  and  C4_41 
REMARK       I    between atoms: C6_28  and  C5_43 
REMARK       I    between atoms: C5_29  and  C6_34 
REMARK       I    between atoms: O3_30  and  C3_46 
REMARK       I    between atoms: C3_31  and  O3_49 
REMARK       I    between atoms: C1_38  and  O3_49 
ROOT
ATOM      1  C8  NAG d 404      12.562  32.269 -14.201  0.00  0.00    -0.003 C 
ATOM      2  O6  NAG d 404       9.124  27.330 -18.741  0.00  0.00    -0.398 OA
ATOM      3  N2  NAG d 404      10.279  31.928 -14.938  0.00  0.00    -0.349 N 
ATOM      4  O3  NAG d 404       7.725  30.518 -13.698  0.00  0.00    -0.348 OA
ATOM      5  C3  NAG d 404       8.602  30.092 -14.686  0.00  0.00     0.093 C 
ATOM      6  O4  NAG d 404       7.464  27.908 -14.858  0.00  0.00    -0.390 OA
ATOM      7  C7  NAG d 404      11.570  31.472 -14.996  0.00  0.00     0.214 C 
ATOM      8  C5  NAG d 404       9.102  28.469 -16.498  0.00  0.00     0.089 C 
ATOM      9  C6  NAG d 404       8.657  27.330 -17.383  0.00  0.00     0.043 C 
ATOM     10  O5  NAG d 404       9.626  29.558 -17.252  0.00  0.00    -0.337 OA
ATOM     11  C1  NAG d 404       9.187  30.843 -16.937  0.00  0.00     0.283 C 
ATOM     12  O7  NAG d 404      11.907  30.487 -15.648  0.00  0.00    -0.274 OA
ATOM     13  C4  NAG d 404       7.994  29.019 -15.589  0.00  0.00     0.089 C 
ATOM     14  C2  NAG d 404       9.086  31.276 -15.511  0.00  0.00     0.102 C 
ATOM     15  H   NAG d 404      12.061  33.079 -13.713  0.00  0.00     0.040 H 
ATOM     16  H   NAG d 404      13.314  32.659 -14.857  0.00  0.00     0.040 H 
ATOM     17  H   NAG d 404      13.020  31.639 -13.468  0.00  0.00     0.040 H 
ATOM     18  H   NAG d 404       8.771  26.554 -19.204  0.00  0.00     0.209 HD
ATOM     19  H   NAG d 404      10.132  32.778 -14.465  0.00  0.00     0.163 HD
ATOM     20  H   NAG d 404       9.438  29.641 -14.191  0.00  0.00     0.091 H 
ATOM     21  H   NAG d 404       6.758  28.216 -14.269  0.00  0.00     0.210 HD
ATOM     22  H   NAG d 404       9.863  28.035 -15.884  0.00  0.00     0.090 H 
ATOM     23  H   NAG d 404       8.989  26.421 -16.929  0.00  0.00     0.078 H 
ATOM     24  H   NAG d 404       7.595  27.439 -17.458  0.00  0.00     0.078 H 
ATOM     25  H   NAG d 404       7.196  29.481 -16.132  0.00  0.00     0.091 H 
ATOM     26  H   NAG d 404       8.375  32.074 -15.480  0.00  0.00     0.085 H 
ATOM     27  O4  NAG d 402       3.290  27.392  -5.189  0.00  0.00    -0.390 OA
ATOM     28  O5  NAG d 402       4.808  29.242  -7.919  0.00  0.00    -0.349 OA
ATOM     29  C7  NAG d 402       8.795  29.654  -5.494  0.00  0.00     0.214 C 
ATOM     30  N2  NAG d 402       7.937  28.740  -6.032  0.00  0.00    -0.349 N 
ATOM     31  C8  NAG d 402      10.251  29.255  -5.326  0.00  0.00    -0.003 C 
ATOM     32  C2  NAG d 402       6.503  29.010  -6.220  0.00  0.00     0.087 C 
ATOM     33  O6  NAG d 402       2.206  30.116  -7.658  0.00  0.00    -0.398 OA
ATOM     34  C6  NAG d 402       2.504  28.724  -7.732  0.00  0.00     0.043 C 
ATOM     35  C3  NAG d 402       5.585  28.092  -5.432  0.00  0.00     0.093 C 
ATOM     36  O7  NAG d 402       8.455  30.764  -5.140  0.00  0.00    -0.274 OA
ATOM     37  C1  NAG d 402       6.176  28.930  -7.714  0.00  0.00     0.154 C 
ATOM     38  C4  NAG d 402       4.121  28.388  -5.791  0.00  0.00     0.089 C 
ATOM     39  C5  NAG d 402       3.895  28.339  -7.290  0.00  0.00     0.089 C 
ATOM     40  O3  NAG d 402       5.668  28.373  -4.056  0.00  0.00    -0.348 OA
ATOM     41  H   NAG d 402       3.417  27.403  -4.228  0.00  0.00     0.210 HD
ATOM     42  H   NAG d 402       8.292  27.864  -6.306  0.00  0.00     0.163 HD
ATOM     43  H   NAG d 402      10.390  28.256  -5.681  0.00  0.00     0.040 H 
ATOM     44  H   NAG d 402      10.518  29.307  -4.291  0.00  0.00     0.040 H 
ATOM     45  H   NAG d 402      10.870  29.923  -5.888  0.00  0.00     0.040 H 
ATOM     46  H   NAG d 402       6.320  29.992  -5.836  0.00  0.00     0.084 H 
ATOM     47  H   NAG d 402       1.297  30.268  -7.961  0.00  0.00     0.209 HD
ATOM     48  H   NAG d 402       2.383  28.414  -8.749  0.00  0.00     0.078 H 
ATOM     49  H   NAG d 402       1.833  28.240  -7.054  0.00  0.00     0.078 H 
ATOM     50  H   NAG d 402       5.877  27.088  -5.660  0.00  0.00     0.091 H 
ATOM     51  H   NAG d 402       6.325  27.942  -8.097  0.00  0.00     0.132 H 
ATOM     52  H   NAG d 402       3.884  29.368  -5.436  0.00  0.00     0.091 H 
ATOM     53  H   NAG d 402       4.043  27.318  -7.573  0.00  0.00     0.090 H 
ATOM     54  O4  GCU d 401       7.771  25.758   0.126  0.00  0.00    -0.390 OA
ATOM     55  C4  GCU d 401       6.805  26.561  -0.559  0.00  0.00     0.097 C 
ATOM     56  C6  GCU d 401       5.644  24.550  -1.589  0.00  0.00     0.206 C 
ATOM     57  C2  GCU d 401       6.728  28.588  -2.003  0.00  0.00     0.110 C 
ATOM     58  O3  GCU d 401       7.580  28.655   0.274  0.00  0.00    -0.390 OA
ATOM     59  C1  GCU d 401       6.379  27.689  -3.189  0.00  0.00     0.160 C 
ATOM     60  O2  GCU d 401       7.486  29.706  -2.440  0.00  0.00    -0.388 OA
ATOM     61  O6B GCU d 401       6.116  23.966  -0.591  0.00  0.00    -0.646 OA
ATOM     62  C3  GCU d 401       7.497  27.865  -0.924  0.00  0.00     0.092 C 
ATOM     63  O5  GCU d 401       5.578  26.634  -2.656  0.00  0.00    -0.340 OA
ATOM     64  C5  GCU d 401       6.383  25.810  -1.832  0.00  0.00     0.152 C 
ATOM     65  O6A GCU d 401       4.735  24.305  -2.410  0.00  0.00    -0.646 OA
ATOM     66  H   GCU d 401       8.053  26.212   0.936  0.00  0.00     0.210 HD
ATOM     67  H   GCU d 401       5.938  26.756   0.037  0.00  0.00     0.091 H 
ATOM     68  H   GCU d 401       5.798  28.908  -1.583  0.00  0.00     0.094 H 
ATOM     69  H   GCU d 401       8.078  28.167   0.948  0.00  0.00     0.210 HD
ATOM     70  H   GCU d 401       7.256  27.319  -3.679  0.00  0.00     0.133 H 
ATOM     71  H   GCU d 401       8.326  29.399  -2.818  0.00  0.00     0.210 HD
ATOM     72  H   GCU d 401       8.477  27.680  -1.311  0.00  0.00     0.091 H 
ATOM     73  H   GCU d 401       7.306  25.555  -2.310  0.00  0.00     0.104 H 
ATOM     74  O4  GCU d 405       9.545  31.717 -17.901  0.00  0.00    -0.189 OA
ATOM     75  O2  GCU d 403       6.874  32.531 -12.277  0.00  0.00    -0.388 OA
ATOM     76  C5  GCU d 403       8.154  29.044 -10.388  0.00  0.00     0.152 C 
ATOM     77  O5  GCU d 403       8.106  29.196 -11.781  0.00  0.00    -0.340 OA
ATOM     78  C6  GCU d 403       8.267  27.599 -10.062  0.00  0.00     0.206 C 
ATOM     79  C3  GCU d 403       6.898  31.202 -10.286  0.00  0.00     0.092 C 
ATOM     80  O3  GCU d 403       5.819  31.905  -9.652  0.00  0.00    -0.390 OA
ATOM     81  C1  GCU d 403       7.929  30.428 -12.422  0.00  0.00     0.160 C 
ATOM     82  O4  GCU d 403       7.000  29.752  -8.363  0.00  0.00    -0.348 OA
ATOM     83  O6A GCU d 403       7.526  26.792 -10.671  0.00  0.00    -0.646 OA
ATOM     84  C2  GCU d 403       6.770  31.194 -11.786  0.00  0.00     0.110 C 
ATOM     85  C4  GCU d 403       6.961  29.776  -9.764  0.00  0.00     0.103 C 
ATOM     86  O6B GCU d 403       9.099  27.287  -9.187  0.00  0.00    -0.646 OA
ATOM     87  H   GCU d 403       6.158  33.069 -11.904  0.00  0.00     0.210 HD
ATOM     88  H   GCU d 403       9.020  29.500  -9.957  0.00  0.00     0.104 H 
ATOM     89  H   GCU d 403       7.804  31.718 -10.045  0.00  0.00     0.091 H 
ATOM     90  H   GCU d 403       4.981  31.461  -9.852  0.00  0.00     0.210 HD
ATOM     91  H   GCU d 403       8.917  30.816 -12.281  0.00  0.00     0.133 H 
ATOM     92  H   GCU d 403       5.831  30.742 -12.029  0.00  0.00     0.094 H 
ATOM     93  H   GCU d 403       6.070  29.260 -10.053  0.00  0.00     0.092 H 
ENDROOT
TORSDOF 23
ENDMDL
MODEL 21
REMARK VINA RESULT:      -6.1      2.817      3.829
REMARK  0 active torsions:
REMARK  status: ('A' for Active; 'I' for Inactive)
REMARK       I    between atoms: C8_1  and  C7_27 
REMARK       I    between atoms: O6_2  and  C6_34 
REMARK       I    between atoms: O4_3  and  C4_39 
REMARK       I    between atoms: O4_4  and  C4_6 
REMARK       I    between atoms: O2_7  and  C2_37 
REMARK       I    between atoms: C7_9  and  C8_15 
REMARK       I    between atoms: C7_9  and  N2_13 
REMARK       I    between atoms: N2_10  and  C2_53 
REMARK       I    between atoms: N2_10  and  C7_27 
REMARK       I    between atoms: C6_11  and  C5_48 
REMARK       I    between atoms: C5_12  and  C6_17 
REMARK       I    between atoms: N2_13  and  C2_19 
REMARK       I    between atoms: C2_16  and  O2_42 
REMARK       I    between atoms: C3_18  and  O3_23 
REMARK       I    between atoms: O3_20  and  C1_24 
REMARK       I    between atoms: O3_20  and  C3_22 
REMARK       I    between atoms: O6_21  and  C6_28 
REMARK       I    between atoms: O4_25  and  C4_50 
REMARK       I    between atoms: O4_26  and  C1_33 
REMARK       I    between atoms: O4_26  and  C4_41 
REMARK       I    between atoms: C6_28  and  C5_43 
REMARK       I    between atoms: C5_29  and  C6_34 
REMARK       I    between atoms: O3_30  and  C3_46 
REMARK       I    between atoms: C3_31  and  O3_49 
REMARK       I    between atoms: C1_38  and  O3_49 
ROOT
ATOM      1  C8  NAG d 404       4.692  31.051  -2.442  0.00  0.00    -0.003 C 
ATOM      2  O6  NAG d 404      -0.085  25.771  -4.919  0.00  0.00    -0.398 OA
ATOM      3  N2  NAG d 404       4.929  28.789  -3.281  0.00  0.00    -0.349 N 
ATOM      4  O3  NAG d 404       5.670  27.520  -6.089  0.00  0.00    -0.348 OA
ATOM      5  C3  NAG d 404       4.444  27.656  -5.454  0.00  0.00     0.093 C 
ATOM      6  O4  NAG d 404       3.250  26.717  -7.400  0.00  0.00    -0.390 OA
ATOM      7  C7  NAG d 404       4.059  29.810  -3.001  0.00  0.00     0.214 C 
ATOM      8  C5  NAG d 404       2.038  27.042  -5.372  0.00  0.00     0.089 C 
ATOM      9  C6  NAG d 404       0.893  26.200  -5.879  0.00  0.00     0.043 C 
ATOM     10  O5  NAG d 404       2.162  26.978  -3.954  0.00  0.00    -0.337 OA
ATOM     11  C1  NAG d 404       3.430  26.765  -3.416  0.00  0.00     0.283 C 
ATOM     12  O7  NAG d 404       2.847  29.730  -3.185  0.00  0.00    -0.274 OA
ATOM     13  C4  NAG d 404       3.399  26.670  -5.976  0.00  0.00     0.089 C 
ATOM     14  C2  NAG d 404       4.608  27.514  -3.947  0.00  0.00     0.102 C 
ATOM     15  H   NAG d 404       5.750  30.908  -2.364  0.00  0.00     0.040 H 
ATOM     16  H   NAG d 404       4.287  31.253  -1.472  0.00  0.00     0.040 H 
ATOM     17  H   NAG d 404       4.492  31.877  -3.092  0.00  0.00     0.040 H 
ATOM     18  H   NAG d 404      -0.764  25.241  -5.365  0.00  0.00     0.209 HD
ATOM     19  H   NAG d 404       5.866  28.921  -3.008  0.00  0.00     0.163 HD
ATOM     20  H   NAG d 404       4.081  28.638  -5.678  0.00  0.00     0.091 H 
ATOM     21  H   NAG d 404       4.092  26.487  -7.821  0.00  0.00     0.210 HD
ATOM     22  H   NAG d 404       1.787  28.034  -5.683  0.00  0.00     0.090 H 
ATOM     23  H   NAG d 404       0.382  26.770  -6.626  0.00  0.00     0.078 H 
ATOM     24  H   NAG d 404       1.349  25.298  -6.229  0.00  0.00     0.078 H 
ATOM     25  H   NAG d 404       3.728  25.690  -5.701  0.00  0.00     0.091 H 
ATOM     26  H   NAG d 404       5.474  26.931  -3.716  0.00  0.00     0.085 H 
ATOM     27  O4  NAG d 402      10.184  29.109 -14.975  0.00  0.00    -0.390 OA
ATOM     28  O5  NAG d 402       9.299  28.645 -11.485  0.00  0.00    -0.349 OA
ATOM     29  C7  NAG d 402       9.418  33.276 -10.784  0.00  0.00     0.214 C 
ATOM     30  N2  NAG d 402       8.798  32.299 -11.507  0.00  0.00    -0.349 N 
ATOM     31  C8  NAG d 402       8.654  34.561 -10.516  0.00  0.00    -0.003 C 
ATOM     32  C2  NAG d 402       9.450  31.024 -11.844  0.00  0.00     0.087 C 
ATOM     33  O6  NAG d 402      11.105  26.675 -12.160  0.00  0.00    -0.398 OA
ATOM     34  C6  NAG d 402       9.957  26.921 -12.969  0.00  0.00     0.043 C 
ATOM     35  C3  NAG d 402       9.625  30.786 -13.334  0.00  0.00     0.093 C 
ATOM     36  O7  NAG d 402      10.546  33.172 -10.347  0.00  0.00    -0.274 OA
ATOM     37  C1  NAG d 402       8.652  29.879 -11.215  0.00  0.00     0.154 C 
ATOM     38  C4  NAG d 402      10.208  29.385 -13.572  0.00  0.00     0.089 C 
ATOM     39  C5  NAG d 402       9.389  28.316 -12.873  0.00  0.00     0.089 C 
ATOM     40  O3  NAG d 402      10.594  31.658 -13.864  0.00  0.00    -0.348 OA
ATOM     41  H   NAG d 402      10.702  29.781 -15.445  0.00  0.00     0.210 HD
ATOM     42  H   NAG d 402       7.876  32.454 -11.817  0.00  0.00     0.163 HD
ATOM     43  H   NAG d 402       7.683  34.499 -10.962  0.00  0.00     0.040 H 
ATOM     44  H   NAG d 402       9.188  35.388 -10.937  0.00  0.00     0.040 H 
ATOM     45  H   NAG d 402       8.553  34.702  -9.460  0.00  0.00     0.040 H 
ATOM     46  H   NAG d 402      10.442  31.070 -11.446  0.00  0.00     0.084 H 
ATOM     47  H   NAG d 402      11.398  25.759 -12.285  0.00  0.00     0.209 HD
ATOM     48  H   NAG d 402       9.193  26.232 -12.676  0.00  0.00     0.078 H 
ATOM     49  H   NAG d 402      10.277  26.800 -13.983  0.00  0.00     0.078 H 
ATOM     50  H   NAG d 402       8.665  30.922 -13.787  0.00  0.00     0.091 H 
ATOM     51  H   NAG d 402       7.670  29.807 -11.633  0.00  0.00     0.132 H 
ATOM     52  H   NAG d 402      11.204  29.369 -13.182  0.00  0.00     0.091 H 
ATOM     53  H   NAG d 402       8.442  28.304 -13.370  0.00  0.00     0.090 H 
ATOM     54  O4  GCU d 401      10.343  35.924 -17.104  0.00  0.00    -0.390 OA
ATOM     55  C4  GCU d 401      10.897  34.711 -16.582  0.00  0.00     0.097 C 
ATOM     56  C6  GCU d 401       9.334  33.239 -17.940  0.00  0.00     0.206 C 
ATOM     57  C2  GCU d 401      11.521  33.721 -14.385  0.00  0.00     0.110 C 
ATOM     58  O3  GCU d 401      12.557  35.753 -15.227  0.00  0.00    -0.390 OA
ATOM     59  C1  GCU d 401      10.332  32.769 -14.514  0.00  0.00     0.160 C 
ATOM     60  O2  GCU d 401      11.756  34.032 -13.020  0.00  0.00    -0.388 OA
ATOM     61  O6B GCU d 401       9.315  34.232 -18.699  0.00  0.00    -0.646 OA
ATOM     62  C3  GCU d 401      11.332  35.005 -15.155  0.00  0.00     0.092 C 
ATOM     63  O5  GCU d 401      10.214  32.479 -15.908  0.00  0.00    -0.340 OA
ATOM     64  C5  GCU d 401       9.791  33.644 -16.591  0.00  0.00     0.152 C 
ATOM     65  O6A GCU d 401       9.044  32.030 -18.058  0.00  0.00    -0.646 OA
ATOM     66  H   GCU d 401      11.025  36.614 -17.109  0.00  0.00     0.210 HD
ATOM     67  H   GCU d 401      11.728  34.360 -17.158  0.00  0.00     0.091 H 
ATOM     68  H   GCU d 401      12.363  33.210 -14.803  0.00  0.00     0.094 H 
ATOM     69  H   GCU d 401      12.407  36.571 -15.727  0.00  0.00     0.210 HD
ATOM     70  H   GCU d 401       9.435  33.197 -14.117  0.00  0.00     0.133 H 
ATOM     71  H   GCU d 401      10.984  34.494 -12.657  0.00  0.00     0.210 HD
ATOM     72  H   GCU d 401      10.586  35.571 -14.639  0.00  0.00     0.091 H 
ATOM     73  H   GCU d 401       8.964  34.112 -16.099  0.00  0.00     0.104 H 
ATOM     74  O4  GCU d 405       3.345  26.450  -2.106  0.00  0.00    -0.189 OA
ATOM     75  O2  GCU d 403       8.264  27.606  -5.834  0.00  0.00    -0.388 OA
ATOM     76  C5  GCU d 403       6.387  29.881  -8.778  0.00  0.00     0.152 C 
ATOM     77  O5  GCU d 403       5.701  29.011  -7.918  0.00  0.00    -0.340 OA
ATOM     78  C6  GCU d 403       5.508  30.217  -9.929  0.00  0.00     0.206 C 
ATOM     79  C3  GCU d 403       8.474  28.854  -7.867  0.00  0.00     0.092 C 
ATOM     80  O3  GCU d 403       9.771  28.336  -8.198  0.00  0.00    -0.390 OA
ATOM     81  C1  GCU d 403       6.270  28.445  -6.771  0.00  0.00     0.160 C 
ATOM     82  O4  GCU d 403       8.528  30.127  -9.912  0.00  0.00    -0.348 OA
ATOM     83  O6A GCU d 403       4.876  29.288 -10.486  0.00  0.00    -0.646 OA
ATOM     84  C2  GCU d 403       7.644  27.861  -7.095  0.00  0.00     0.110 C 
ATOM     85  C4  GCU d 403       7.744  29.265  -9.134  0.00  0.00     0.103 C 
ATOM     86  O6B GCU d 403       5.466  31.417 -10.267  0.00  0.00    -0.646 OA
ATOM     87  H   GCU d 403       9.146  27.232  -5.977  0.00  0.00     0.210 HD
ATOM     88  H   GCU d 403       6.616  30.817  -8.314  0.00  0.00     0.104 H 
ATOM     89  H   GCU d 403       8.619  29.707  -7.237  0.00  0.00     0.091 H 
ATOM     90  H   GCU d 403       9.673  27.559  -8.770  0.00  0.00     0.210 HD
ATOM     91  H   GCU d 403       6.234  29.309  -6.140  0.00  0.00     0.133 H 
ATOM     92  H   GCU d 403       7.557  26.978  -7.693  0.00  0.00     0.094 H 
ATOM     93  H   GCU d 403       7.564  28.395  -9.730  0.00  0.00     0.092 H 
ENDROOT
TORSDOF 23
ENDMDL
MODEL 22
REMARK VINA RESULT:      -6.1      3.341      5.049
REMARK  0 active torsions:
REMARK  status: ('A' for Active; 'I' for Inactive)
REMARK       I    between atoms: C8_1  and  C7_27 
REMARK       I    between atoms: O6_2  and  C6_34 
REMARK       I    between atoms: O4_3  and  C4_39 
REMARK       I    between atoms: O4_4  and  C4_6 
REMARK       I    between atoms: O2_7  and  C2_37 
REMARK       I    between atoms: C7_9  and  C8_15 
REMARK       I    between atoms: C7_9  and  N2_13 
REMARK       I    between atoms: N2_10  and  C2_53 
REMARK       I    between atoms: N2_10  and  C7_27 
REMARK       I    between atoms: C6_11  and  C5_48 
REMARK       I    between atoms: C5_12  and  C6_17 
REMARK       I    between atoms: N2_13  and  C2_19 
REMARK       I    between atoms: C2_16  and  O2_42 
REMARK       I    between atoms: C3_18  and  O3_23 
REMARK       I    between atoms: O3_20  and  C1_24 
REMARK       I    between atoms: O3_20  and  C3_22 
REMARK       I    between atoms: O6_21  and  C6_28 
REMARK       I    between atoms: O4_25  and  C4_50 
REMARK       I    between atoms: O4_26  and  C1_33 
REMARK       I    between atoms: O4_26  and  C4_41 
REMARK       I    between atoms: C6_28  and  C5_43 
REMARK       I    between atoms: C5_29  and  C6_34 
REMARK       I    between atoms: O3_30  and  C3_46 
REMARK       I    between atoms: C3_31  and  O3_49 
REMARK       I    between atoms: C1_38  and  O3_49 
ROOT
ATOM      1  C8  NAG d 404      -3.563  27.562  -5.912  0.00  0.00    -0.003 C 
ATOM      2  O6  NAG d 404      -2.089  23.439   0.225  0.00  0.00    -0.398 OA
ATOM      3  N2  NAG d 404      -2.346  27.940  -3.850  0.00  0.00    -0.349 N 
ATOM      4  O3  NAG d 404       0.709  27.825  -3.013  0.00  0.00    -0.348 OA
ATOM      5  C3  NAG d 404      -0.325  26.927  -2.786  0.00  0.00     0.093 C 
ATOM      6  O4  NAG d 404       1.209  25.318  -1.712  0.00  0.00    -0.390 OA
ATOM      7  C7  NAG d 404      -3.068  27.044  -4.593  0.00  0.00     0.214 C 
ATOM      8  C5  NAG d 404      -1.137  24.917  -1.575  0.00  0.00     0.089 C 
ATOM      9  C6  NAG d 404      -0.931  23.871  -0.506  0.00  0.00     0.043 C 
ATOM     10  O5  NAG d 404      -2.394  25.573  -1.444  0.00  0.00    -0.337 OA
ATOM     11  C1  NAG d 404      -2.418  26.964  -1.525  0.00  0.00     0.283 C 
ATOM     12  O7  NAG d 404      -3.306  25.898  -4.219  0.00  0.00    -0.274 OA
ATOM     13  C4  NAG d 404      -0.047  25.997  -1.605  0.00  0.00     0.089 C 
ATOM     14  C2  NAG d 404      -1.638  27.670  -2.585  0.00  0.00     0.102 C 
ATOM     15  H   NAG d 404      -3.245  28.576  -6.038  0.00  0.00     0.040 H 
ATOM     16  H   NAG d 404      -4.632  27.518  -5.935  0.00  0.00     0.040 H 
ATOM     17  H   NAG d 404      -3.163  26.963  -6.703  0.00  0.00     0.040 H 
ATOM     18  H   NAG d 404      -1.829  22.771   0.878  0.00  0.00     0.209 HD
ATOM     19  H   NAG d 404      -2.294  28.860  -4.197  0.00  0.00     0.163 HD
ATOM     20  H   NAG d 404      -0.400  26.307  -3.655  0.00  0.00     0.091 H 
ATOM     21  H   NAG d 404       1.928  25.969  -1.735  0.00  0.00     0.210 HD
ATOM     22  H   NAG d 404      -1.095  24.363  -2.489  0.00  0.00     0.090 H 
ATOM     23  H   NAG d 404      -0.508  23.009  -0.977  0.00  0.00     0.078 H 
ATOM     24  H   NAG d 404      -0.306  24.342   0.224  0.00  0.00     0.078 H 
ATOM     25  H   NAG d 404      -0.032  26.604  -0.724  0.00  0.00     0.091 H 
ATOM     26  H   NAG d 404      -1.459  28.662  -2.228  0.00  0.00     0.085 H 
ATOM     27  O4  NAG d 402      10.235  28.231  -6.321  0.00  0.00    -0.390 OA
ATOM     28  O5  NAG d 402       6.776  28.838  -5.403  0.00  0.00    -0.349 OA
ATOM     29  C7  NAG d 402       5.433  28.229  -9.849  0.00  0.00     0.214 C 
ATOM     30  N2  NAG d 402       6.042  27.604  -8.800  0.00  0.00    -0.349 N 
ATOM     31  C8  NAG d 402       4.716  27.368 -10.875  0.00  0.00    -0.003 C 
ATOM     32  C2  NAG d 402       6.782  28.337  -7.761  0.00  0.00     0.087 C 
ATOM     33  O6  NAG d 402       8.340  30.632  -4.011  0.00  0.00    -0.398 OA
ATOM     34  C6  NAG d 402       8.650  29.241  -4.012  0.00  0.00     0.043 C 
ATOM     35  C3  NAG d 402       8.258  27.986  -7.680  0.00  0.00     0.093 C 
ATOM     36  O7  NAG d 402       5.436  29.433 -10.006  0.00  0.00    -0.274 OA
ATOM     37  C1  NAG d 402       6.106  28.095  -6.408  0.00  0.00     0.154 C 
ATOM     38  C4  NAG d 402       8.903  28.719  -6.495  0.00  0.00     0.089 C 
ATOM     39  C5  NAG d 402       8.143  28.469  -5.206  0.00  0.00     0.089 C 
ATOM     40  O3  NAG d 402       8.945  28.478  -8.806  0.00  0.00    -0.348 OA
ATOM     41  H   NAG d 402      10.742  28.380  -7.134  0.00  0.00     0.210 HD
ATOM     42  H   NAG d 402       5.983  26.624  -8.736  0.00  0.00     0.163 HD
ATOM     43  H   NAG d 402       4.801  26.338 -10.598  0.00  0.00     0.040 H 
ATOM     44  H   NAG d 402       5.158  27.517 -11.838  0.00  0.00     0.040 H 
ATOM     45  H   NAG d 402       3.682  27.642 -10.910  0.00  0.00     0.040 H 
ATOM     46  H   NAG d 402       6.751  29.372  -8.030  0.00  0.00     0.084 H 
ATOM     47  H   NAG d 402       8.703  31.044  -3.211  0.00  0.00     0.209 HD
ATOM     48  H   NAG d 402       8.224  28.806  -3.132  0.00  0.00     0.078 H 
ATOM     49  H   NAG d 402       9.718  29.175  -4.049  0.00  0.00     0.078 H 
ATOM     50  H   NAG d 402       8.322  26.922  -7.598  0.00  0.00     0.091 H 
ATOM     51  H   NAG d 402       6.164  27.067  -6.117  0.00  0.00     0.132 H 
ATOM     52  H   NAG d 402       8.890  29.768  -6.706  0.00  0.00     0.091 H 
ATOM     53  H   NAG d 402       8.276  27.430  -4.987  0.00  0.00     0.090 H 
ATOM     54  O4  GCU d 401      11.174  26.134 -13.083  0.00  0.00    -0.390 OA
ATOM     55  C4  GCU d 401      11.077  27.086 -12.018  0.00  0.00     0.097 C 
ATOM     56  C6  GCU d 401      12.024  25.478 -10.296  0.00  0.00     0.206 C 
ATOM     57  C2  GCU d 401       9.420  28.683 -11.068  0.00  0.00     0.110 C 
ATOM     58  O3  GCU d 401      10.234  28.872 -13.352  0.00  0.00    -0.390 OA
ATOM     59  C1  GCU d 401       9.278  27.762  -9.856  0.00  0.00     0.160 C 
ATOM     60  O2  GCU d 401       8.190  29.341 -11.332  0.00  0.00    -0.388 OA
ATOM     61  O6B GCU d 401      12.561  24.966 -11.301  0.00  0.00    -0.646 OA
ATOM     62  C3  GCU d 401       9.862  27.952 -12.312  0.00  0.00     0.092 C 
ATOM     63  O5  GCU d 401      10.572  27.195  -9.644  0.00  0.00    -0.340 OA
ATOM     64  C5  GCU d 401      10.871  26.310 -10.708  0.00  0.00     0.152 C 
ATOM     65  O6A GCU d 401      12.225  25.427  -9.064  0.00  0.00    -0.646 OA
ATOM     66  H   GCU d 401      11.305  26.601 -13.923  0.00  0.00     0.210 HD
ATOM     67  H   GCU d 401      11.953  27.694 -11.932  0.00  0.00     0.091 H 
ATOM     68  H   GCU d 401      10.180  29.393 -10.820  0.00  0.00     0.094 H 
ATOM     69  H   GCU d 401      10.513  28.376 -14.137  0.00  0.00     0.210 HD
ATOM     70  H   GCU d 401       8.532  27.011 -10.012  0.00  0.00     0.133 H 
ATOM     71  H   GCU d 401       7.513  28.683 -11.555  0.00  0.00     0.210 HD
ATOM     72  H   GCU d 401       9.036  27.352 -12.631  0.00  0.00     0.091 H 
ATOM     73  H   GCU d 401      10.055  25.649 -10.913  0.00  0.00     0.104 H 
ATOM     74  O4  GCU d 405      -3.608  27.445  -1.107  0.00  0.00    -0.189 OA
ATOM     75  O2  GCU d 403       1.359  30.243  -3.740  0.00  0.00    -0.388 OA
ATOM     76  C5  GCU d 403       3.067  26.964  -5.660  0.00  0.00     0.152 C 
ATOM     77  O5  GCU d 403       2.173  26.851  -4.586  0.00  0.00    -0.340 OA
ATOM     78  C6  GCU d 403       3.773  25.668  -5.842  0.00  0.00     0.206 C 
ATOM     79  C3  GCU d 403       3.112  29.406  -5.139  0.00  0.00     0.092 C 
ATOM     80  O3  GCU d 403       3.951  30.563  -4.994  0.00  0.00    -0.390 OA
ATOM     81  C1  GCU d 403       1.401  27.915  -4.105  0.00  0.00     0.160 C 
ATOM     82  O4  GCU d 403       4.819  28.418  -6.524  0.00  0.00    -0.348 OA
ATOM     83  O6A GCU d 403       4.217  25.085  -4.824  0.00  0.00    -0.646 OA
ATOM     84  C2  GCU d 403       2.270  29.157  -3.916  0.00  0.00     0.110 C 
ATOM     85  C4  GCU d 403       3.965  28.185  -5.438  0.00  0.00     0.103 C 
ATOM     86  O6B GCU d 403       3.881  25.249  -7.011  0.00  0.00    -0.646 OA
ATOM     87  H   GCU d 403       1.857  31.065  -3.614  0.00  0.00     0.210 HD
ATOM     88  H   GCU d 403       2.569  27.146  -6.589  0.00  0.00     0.104 H 
ATOM     89  H   GCU d 403       2.445  29.594  -5.954  0.00  0.00     0.091 H 
ATOM     90  H   GCU d 403       4.569  30.424  -4.259  0.00  0.00     0.210 HD
ATOM     91  H   GCU d 403       0.667  27.936  -4.885  0.00  0.00     0.133 H 
ATOM     92  H   GCU d 403       2.932  29.041  -3.084  0.00  0.00     0.094 H 
ATOM     93  H   GCU d 403       4.592  27.984  -4.595  0.00  0.00     0.092 H 
ENDROOT
TORSDOF 23
ENDMDL
MODEL 23
REMARK VINA RESULT:      -6.0      3.750     11.988
REMARK  0 active torsions:
REMARK  status: ('A' for Active; 'I' for Inactive)
REMARK       I    between atoms: C8_1  and  C7_27 
REMARK       I    between atoms: O6_2  and  C6_34 
REMARK       I    between atoms: O4_3  and  C4_39 
REMARK       I    between atoms: O4_4  and  C4_6 
REMARK       I    between atoms: O2_7  and  C2_37 
REMARK       I    between atoms: C7_9  and  C8_15 
REMARK       I    between atoms: C7_9  and  N2_13 
REMARK       I    between atoms: N2_10  and  C2_53 
REMARK       I    between atoms: N2_10  and  C7_27 
REMARK       I    between atoms: C6_11  and  C5_48 
REMARK       I    between atoms: C5_12  and  C6_17 
REMARK       I    between atoms: N2_13  and  C2_19 
REMARK       I    between atoms: C2_16  and  O2_42 
REMARK       I    between atoms: C3_18  and  O3_23 
REMARK       I    between atoms: O3_20  and  C1_24 
REMARK       I    between atoms: O3_20  and  C3_22 
REMARK       I    between atoms: O6_21  and  C6_28 
REMARK       I    between atoms: O4_25  and  C4_50 
REMARK       I    between atoms: O4_26  and  C1_33 
REMARK       I    between atoms: O4_26  and  C4_41 
REMARK       I    between atoms: C6_28  and  C5_43 
REMARK       I    between atoms: C5_29  and  C6_34 
REMARK       I    between atoms: O3_30  and  C3_46 
REMARK       I    between atoms: C3_31  and  O3_49 
REMARK       I    between atoms: C1_38  and  O3_49 
ROOT
ATOM      1  C8  NAG d 404      12.418  34.294 -14.084  0.00  0.00    -0.003 C 
ATOM      2  O6  NAG d 404      10.499  29.027 -19.125  0.00  0.00    -0.398 OA
ATOM      3  N2  NAG d 404      10.325  33.499 -15.014  0.00  0.00    -0.349 N 
ATOM      4  O3  NAG d 404       8.086  31.473 -14.051  0.00  0.00    -0.348 OA
ATOM      5  C3  NAG d 404       9.100  31.322 -14.988  0.00  0.00     0.093 C 
ATOM      6  O4  NAG d 404       8.504  28.955 -15.359  0.00  0.00    -0.390 OA
ATOM      7  C7  NAG d 404      11.687  33.349 -14.994  0.00  0.00     0.214 C 
ATOM      8  C5  NAG d 404      10.073  29.978 -16.835  0.00  0.00     0.089 C 
ATOM      9  C6  NAG d 404       9.958  28.831 -17.810  0.00  0.00     0.043 C 
ATOM     10  O5  NAG d 404      10.382  31.205 -17.489  0.00  0.00    -0.337 OA
ATOM     11  C1  NAG d 404       9.642  32.335 -17.145  0.00  0.00     0.283 C 
ATOM     12  O7  NAG d 404      12.282  32.511 -15.667  0.00  0.00    -0.274 OA
ATOM     13  C4  NAG d 404       8.813  30.204 -15.989  0.00  0.00     0.089 C 
ATOM     14  C2  NAG d 404       9.353  32.637 -15.711  0.00  0.00     0.102 C 
ATOM     15  H   NAG d 404      11.714  34.935 -13.595  0.00  0.00     0.040 H 
ATOM     16  H   NAG d 404      13.101  34.885 -14.658  0.00  0.00     0.040 H 
ATOM     17  H   NAG d 404      12.959  33.734 -13.350  0.00  0.00     0.040 H 
ATOM     18  H   NAG d 404      10.364  28.224 -19.653  0.00  0.00     0.209 HD
ATOM     19  H   NAG d 404       9.958  34.261 -14.511  0.00  0.00     0.163 HD
ATOM     20  H   NAG d 404       9.982  31.038 -14.453  0.00  0.00     0.091 H 
ATOM     21  H   NAG d 404       7.710  29.056 -14.812  0.00  0.00     0.210 HD
ATOM     22  H   NAG d 404      10.872  29.686 -16.186  0.00  0.00     0.090 H 
ATOM     23  H   NAG d 404      10.459  27.990 -17.377  0.00  0.00     0.078 H 
ATOM     24  H   NAG d 404       8.906  28.704 -17.962  0.00  0.00     0.078 H 
ATOM     25  H   NAG d 404       7.967  30.510 -16.568  0.00  0.00     0.091 H 
ATOM     26  H   NAG d 404       8.477  33.251 -15.695  0.00  0.00     0.085 H 
ATOM     27  O4  NAG d 402       3.943  26.866  -6.084  0.00  0.00    -0.390 OA
ATOM     28  O5  NAG d 402       5.170  29.189  -8.590  0.00  0.00    -0.349 OA
ATOM     29  C7  NAG d 402       8.793  30.320  -5.842  0.00  0.00     0.214 C 
ATOM     30  N2  NAG d 402       8.203  29.275  -6.492  0.00  0.00    -0.349 N 
ATOM     31  C8  NAG d 402      10.288  30.247  -5.582  0.00  0.00    -0.003 C 
ATOM     32  C2  NAG d 402       6.761  29.229  -6.778  0.00  0.00     0.087 C 
ATOM     33  O6  NAG d 402       2.427  29.438  -8.489  0.00  0.00    -0.398 OA
ATOM     34  C6  NAG d 402       3.039  28.156  -8.611  0.00  0.00     0.043 C 
ATOM     35  C3  NAG d 402       6.028  28.077  -6.112  0.00  0.00     0.093 C 
ATOM     36  O7  NAG d 402       8.186  31.299  -5.460  0.00  0.00    -0.274 OA
ATOM     37  C1  NAG d 402       6.558  29.179  -8.295  0.00  0.00     0.154 C 
ATOM     38  C4  NAG d 402       4.561  28.061  -6.568  0.00  0.00     0.089 C 
ATOM     39  C5  NAG d 402       4.449  28.064  -8.081  0.00  0.00     0.089 C 
ATOM     40  O3  NAG d 402       5.955  28.277  -4.720  0.00  0.00    -0.348 OA
ATOM     41  H   NAG d 402       4.002  26.840  -5.117  0.00  0.00     0.210 HD
ATOM     42  H   NAG d 402       8.766  28.521  -6.781  0.00  0.00     0.163 HD
ATOM     43  H   NAG d 402      10.674  29.331  -5.976  0.00  0.00     0.040 H 
ATOM     44  H   NAG d 402      10.468  30.287  -4.528  0.00  0.00     0.040 H 
ATOM     45  H   NAG d 402      10.772  31.073  -6.059  0.00  0.00     0.040 H 
ATOM     46  H   NAG d 402       6.334  30.117  -6.360  0.00  0.00     0.084 H 
ATOM     47  H   NAG d 402       1.528  29.402  -8.854  0.00  0.00     0.209 HD
ATOM     48  H   NAG d 402       3.058  27.896  -9.648  0.00  0.00     0.078 H 
ATOM     49  H   NAG d 402       2.454  27.490  -8.013  0.00  0.00     0.078 H 
ATOM     50  H   NAG d 402       6.555  27.182  -6.367  0.00  0.00     0.091 H 
ATOM     51  H   NAG d 402       6.953  28.277  -8.715  0.00  0.00     0.132 H 
ATOM     52  H   NAG d 402       4.084  28.937  -6.183  0.00  0.00     0.091 H 
ATOM     53  H   NAG d 402       4.845  27.124  -8.404  0.00  0.00     0.090 H 
ATOM     54  O4  GCU d 401       8.325  25.923  -0.526  0.00  0.00    -0.390 OA
ATOM     55  C4  GCU d 401       7.248  26.534  -1.243  0.00  0.00     0.097 C 
ATOM     56  C6  GCU d 401       6.646  24.388  -2.461  0.00  0.00     0.206 C 
ATOM     57  C2  GCU d 401       6.804  28.585  -2.583  0.00  0.00     0.110 C 
ATOM     58  O3  GCU d 401       7.469  28.687  -0.246  0.00  0.00    -0.390 OA
ATOM     59  C1  GCU d 401       6.746  27.713  -3.837  0.00  0.00     0.160 C 
ATOM     60  O2  GCU d 401       7.313  29.871  -2.901  0.00  0.00    -0.388 OA
ATOM     61  O6B GCU d 401       7.173  23.859  -1.460  0.00  0.00    -0.646 OA
ATOM     62  C3  GCU d 401       7.646  27.982  -1.485  0.00  0.00     0.092 C 
ATOM     63  O5  GCU d 401       6.175  26.471  -3.422  0.00  0.00    -0.340 OA
ATOM     64  C5  GCU d 401       7.092  25.795  -2.581  0.00  0.00     0.152 C 
ATOM     65  O6A GCU d 401       5.872  24.001  -3.362  0.00  0.00    -0.646 OA
ATOM     66  H   GCU d 401       8.443  26.374   0.326  0.00  0.00     0.210 HD
ATOM     67  H   GCU d 401       6.323  26.489  -0.707  0.00  0.00     0.091 H 
ATOM     68  H   GCU d 401       5.800  28.659  -2.221  0.00  0.00     0.094 H 
ATOM     69  H   GCU d 401       8.020  28.279   0.440  0.00  0.00     0.210 HD
ATOM     70  H   GCU d 401       7.714  27.582  -4.275  0.00  0.00     0.133 H 
ATOM     71  H   GCU d 401       8.223  29.786  -3.228  0.00  0.00     0.210 HD
ATOM     72  H   GCU d 401       8.665  28.048  -1.803  0.00  0.00     0.091 H 
ATOM     73  H   GCU d 401       8.077  25.786  -2.999  0.00  0.00     0.104 H 
ATOM     74  O4  GCU d 405       9.852  33.330 -18.032  0.00  0.00    -0.189 OA
ATOM     75  O2  GCU d 403       6.708  33.144 -12.599  0.00  0.00    -0.388 OA
ATOM     76  C5  GCU d 403       8.626  29.913 -10.797  0.00  0.00     0.152 C 
ATOM     77  O5  GCU d 403       8.635  30.144 -12.180  0.00  0.00    -0.340 OA
ATOM     78  C6  GCU d 403       9.044  28.511 -10.536  0.00  0.00     0.206 C 
ATOM     79  C3  GCU d 403       6.907  31.722 -10.683  0.00  0.00     0.092 C 
ATOM     80  O3  GCU d 403       5.657  32.122 -10.101  0.00  0.00    -0.390 OA
ATOM     81  C1  GCU d 403       8.223  31.345 -12.768  0.00  0.00     0.160 C 
ATOM     82  O4  GCU d 403       7.212  30.206  -8.835  0.00  0.00    -0.348 OA
ATOM     83  O6A GCU d 403       8.548  27.601 -11.243  0.00  0.00    -0.646 OA
ATOM     84  C2  GCU d 403       6.881  31.787 -12.187  0.00  0.00     0.110 C 
ATOM     85  C4  GCU d 403       7.260  30.315 -10.231  0.00  0.00     0.103 C 
ATOM     86  O6B GCU d 403       9.868  28.335  -9.617  0.00  0.00    -0.646 OA
ATOM     87  H   GCU d 403       5.866  33.480 -12.257  0.00  0.00     0.210 HD
ATOM     88  H   GCU d 403       9.336  30.521 -10.277  0.00  0.00     0.104 H 
ATOM     89  H   GCU d 403       7.653  32.411 -10.346  0.00  0.00     0.091 H 
ATOM     90  H   GCU d 403       4.957  31.515 -10.388  0.00  0.00     0.210 HD
ATOM     91  H   GCU d 403       9.085  31.935 -12.532  0.00  0.00     0.133 H 
ATOM     92  H   GCU d 403       6.087  31.154 -12.525  0.00  0.00     0.094 H 
ATOM     93  H   GCU d 403       6.531  29.633 -10.615  0.00  0.00     0.092 H 
ENDROOT
TORSDOF 23
ENDMDL
MODEL 24
REMARK VINA RESULT:      -6.0      3.838     11.981
REMARK  0 active torsions:
REMARK  status: ('A' for Active; 'I' for Inactive)
REMARK       I    between atoms: C8_1  and  C7_27 
REMARK       I    between atoms: O6_2  and  C6_34 
REMARK       I    between atoms: O4_3  and  C4_39 
REMARK       I    between atoms: O4_4  and  C4_6 
REMARK       I    between atoms: O2_7  and  C2_37 
REMARK       I    between atoms: C7_9  and  C8_15 
REMARK       I    between atoms: C7_9  and  N2_13 
REMARK       I    between atoms: N2_10  and  C2_53 
REMARK       I    between atoms: N2_10  and  C7_27 
REMARK       I    between atoms: C6_11  and  C5_48 
REMARK       I    between atoms: C5_12  and  C6_17 
REMARK       I    between atoms: N2_13  and  C2_19 
REMARK       I    between atoms: C2_16  and  O2_42 
REMARK       I    between atoms: C3_18  and  O3_23 
REMARK       I    between atoms: O3_20  and  C1_24 
REMARK       I    between atoms: O3_20  and  C3_22 
REMARK       I    between atoms: O6_21  and  C6_28 
REMARK       I    between atoms: O4_25  and  C4_50 
REMARK       I    between atoms: O4_26  and  C1_33 
REMARK       I    between atoms: O4_26  and  C4_41 
REMARK       I    between atoms: C6_28  and  C5_43 
REMARK       I    between atoms: C5_29  and  C6_34 
REMARK       I    between atoms: O3_30  and  C3_46 
REMARK       I    between atoms: C3_31  and  O3_49 
REMARK       I    between atoms: C1_38  and  O3_49 
ROOT
ATOM      1  C8  NAG d 404       8.559  33.002 -11.787  0.00  0.00    -0.003 C 
ATOM      2  O6  NAG d 404      11.617  35.857  -5.515  0.00  0.00    -0.398 OA
ATOM      3  N2  NAG d 404       9.923  32.112  -9.992  0.00  0.00    -0.349 N 
ATOM      4  O3  NAG d 404       9.328  30.474  -7.344  0.00  0.00    -0.348 OA
ATOM      5  C3  NAG d 404       9.621  31.818  -7.529  0.00  0.00     0.093 C 
ATOM      6  O4  NAG d 404       9.313  32.292  -5.126  0.00  0.00    -0.390 OA
ATOM      7  C7  NAG d 404       9.276  33.214 -10.485  0.00  0.00     0.214 C 
ATOM      8  C5  NAG d 404      10.248  33.994  -6.509  0.00  0.00     0.089 C 
ATOM      9  C6  NAG d 404      10.684  34.787  -5.300  0.00  0.00     0.043 C 
ATOM     10  O5  NAG d 404      11.109  34.204  -7.624  0.00  0.00    -0.337 OA
ATOM     11  C1  NAG d 404      11.551  33.087  -8.330  0.00  0.00     0.283 C 
ATOM     12  O7  NAG d 404       9.275  34.303  -9.918  0.00  0.00    -0.274 OA
ATOM     13  C4  NAG d 404      10.162  32.482  -6.263  0.00  0.00     0.089 C 
ATOM     14  C2  NAG d 404      10.596  31.994  -8.685  0.00  0.00     0.102 C 
ATOM     15  H   NAG d 404       8.687  31.988 -12.104  0.00  0.00     0.040 H 
ATOM     16  H   NAG d 404       8.963  33.660 -12.528  0.00  0.00     0.040 H 
ATOM     17  H   NAG d 404       7.517  33.206 -11.658  0.00  0.00     0.040 H 
ATOM     18  H   NAG d 404      11.817  36.286  -4.669  0.00  0.00     0.209 HD
ATOM     19  H   NAG d 404       9.941  31.315 -10.570  0.00  0.00     0.163 HD
ATOM     20  H   NAG d 404       8.700  32.311  -7.766  0.00  0.00     0.091 H 
ATOM     21  H   NAG d 404       9.233  31.344  -4.937  0.00  0.00     0.210 HD
ATOM     22  H   NAG d 404       9.266  34.362  -6.718  0.00  0.00     0.090 H 
ATOM     23  H   NAG d 404       9.805  35.209  -4.860  0.00  0.00     0.078 H 
ATOM     24  H   NAG d 404      11.207  34.085  -4.686  0.00  0.00     0.078 H 
ATOM     25  H   NAG d 404      11.112  32.035  -6.056  0.00  0.00     0.091 H 
ATOM     26  H   NAG d 404      11.178  31.109  -8.826  0.00  0.00     0.085 H 
ATOM     27  O4  NAG d 402       2.789  24.386  -2.651  0.00  0.00    -0.390 OA
ATOM     28  O5  NAG d 402       5.198  25.968  -4.859  0.00  0.00    -0.349 OA
ATOM     29  C7  NAG d 402       1.804  26.973  -7.928  0.00  0.00     0.214 C 
ATOM     30  N2  NAG d 402       2.209  27.188  -6.643  0.00  0.00    -0.349 N 
ATOM     31  C8  NAG d 402       0.930  28.027  -8.587  0.00  0.00    -0.003 C 
ATOM     32  C2  NAG d 402       3.039  26.226  -5.900  0.00  0.00     0.087 C 
ATOM     33  O6  NAG d 402       6.366  23.688  -3.841  0.00  0.00    -0.398 OA
ATOM     34  C6  NAG d 402       5.738  24.633  -2.979  0.00  0.00     0.043 C 
ATOM     35  C3  NAG d 402       2.375  25.654  -4.660  0.00  0.00     0.093 C 
ATOM     36  O7  NAG d 402       2.104  25.987  -8.569  0.00  0.00    -0.274 OA
ATOM     37  C1  NAG d 402       4.364  26.899  -5.529  0.00  0.00     0.154 C 
ATOM     38  C4  NAG d 402       3.367  24.757  -3.906  0.00  0.00     0.089 C 
ATOM     39  C5  NAG d 402       4.669  25.481  -3.623  0.00  0.00     0.089 C 
ATOM     40  O3  NAG d 402       1.325  24.787  -5.017  0.00  0.00    -0.348 OA
ATOM     41  H   NAG d 402       1.953  23.920  -2.806  0.00  0.00     0.210 HD
ATOM     42  H   NAG d 402       1.934  28.020  -6.194  0.00  0.00     0.163 HD
ATOM     43  H   NAG d 402       0.757  28.827  -7.899  0.00  0.00     0.040 H 
ATOM     44  H   NAG d 402      -0.005  27.589  -8.868  0.00  0.00     0.040 H 
ATOM     45  H   NAG d 402       1.423  28.405  -9.458  0.00  0.00     0.040 H 
ATOM     46  H   NAG d 402       3.198  25.390  -6.548  0.00  0.00     0.084 H 
ATOM     47  H   NAG d 402       7.035  23.191  -3.343  0.00  0.00     0.209 HD
ATOM     48  H   NAG d 402       6.494  25.287  -2.598  0.00  0.00     0.078 H 
ATOM     49  H   NAG d 402       5.245  24.061  -2.220  0.00  0.00     0.078 H 
ATOM     50  H   NAG d 402       2.035  26.484  -4.077  0.00  0.00     0.091 H 
ATOM     51  H   NAG d 402       4.214  27.716  -4.854  0.00  0.00     0.132 H 
ATOM     52  H   NAG d 402       3.571  23.902  -4.515  0.00  0.00     0.091 H 
ATOM     53  H   NAG d 402       4.424  26.259  -2.930  0.00  0.00     0.090 H 
ATOM     54  O4  GCU d 401      -4.016  25.123  -4.686  0.00  0.00    -0.390 OA
ATOM     55  C4  GCU d 401      -2.742  24.473  -4.619  0.00  0.00     0.097 C 
ATOM     56  C6  GCU d 401      -2.265  25.328  -2.275  0.00  0.00     0.206 C 
ATOM     57  C2  GCU d 401      -0.692  24.205  -6.006  0.00  0.00     0.110 C 
ATOM     58  O3  GCU d 401      -2.872  23.438  -6.761  0.00  0.00    -0.390 OA
ATOM     59  C1  GCU d 401       0.052  25.107  -5.021  0.00  0.00     0.160 C 
ATOM     60  O2  GCU d 401      -0.172  24.373  -7.315  0.00  0.00    -0.388 OA
ATOM     61  O6B GCU d 401      -3.512  25.368  -2.206  0.00  0.00    -0.646 OA
ATOM     62  C3  GCU d 401      -2.179  24.463  -6.031  0.00  0.00     0.092 C 
ATOM     63  O5  GCU d 401      -0.505  24.825  -3.736  0.00  0.00    -0.340 OA
ATOM     64  C5  GCU d 401      -1.838  25.302  -3.693  0.00  0.00     0.152 C 
ATOM     65  O6A GCU d 401      -1.333  25.328  -1.443  0.00  0.00    -0.646 OA
ATOM     66  H   GCU d 401      -4.606  24.617  -5.266  0.00  0.00     0.210 HD
ATOM     67  H   GCU d 401      -2.811  23.475  -4.240  0.00  0.00     0.091 H 
ATOM     68  H   GCU d 401      -0.540  23.202  -5.668  0.00  0.00     0.094 H 
ATOM     69  H   GCU d 401      -3.823  23.628  -6.761  0.00  0.00     0.210 HD
ATOM     70  H   GCU d 401      -0.042  26.142  -5.280  0.00  0.00     0.133 H 
ATOM     71  H   GCU d 401      -0.317  25.288  -7.606  0.00  0.00     0.210 HD
ATOM     72  H   GCU d 401      -2.322  25.411  -6.505  0.00  0.00     0.091 H 
ATOM     73  H   GCU d 401      -1.912  26.301  -4.069  0.00  0.00     0.104 H 
ATOM     74  O4  GCU d 405      12.562  33.417  -9.160  0.00  0.00    -0.189 OA
ATOM     75  O2  GCU d 403       9.321  28.092  -8.404  0.00  0.00    -0.388 OA
ATOM     76  C5  GCU d 403       5.832  29.634  -6.728  0.00  0.00     0.152 C 
ATOM     77  O5  GCU d 403       7.059  30.313  -6.720  0.00  0.00    -0.340 OA
ATOM     78  C6  GCU d 403       4.925  30.260  -5.730  0.00  0.00     0.206 C 
ATOM     79  C3  GCU d 403       7.128  27.661  -7.546  0.00  0.00     0.092 C 
ATOM     80  O3  GCU d 403       7.320  26.245  -7.417  0.00  0.00    -0.390 OA
ATOM     81  C1  GCU d 403       8.161  29.931  -7.494  0.00  0.00     0.160 C 
ATOM     82  O4  GCU d 403       4.911  27.381  -6.643  0.00  0.00    -0.348 OA
ATOM     83  O6A GCU d 403       5.386  30.536  -4.598  0.00  0.00    -0.646 OA
ATOM     84  C2  GCU d 403       8.409  28.430  -7.358  0.00  0.00     0.110 C 
ATOM     85  C4  GCU d 403       6.088  28.134  -6.545  0.00  0.00     0.103 C 
ATOM     86  O6B GCU d 403       3.750  30.465  -6.095  0.00  0.00    -0.646 OA
ATOM     87  H   GCU d 403       9.517  27.143  -8.368  0.00  0.00     0.210 HD
ATOM     88  H   GCU d 403       5.323  29.720  -7.665  0.00  0.00     0.104 H 
ATOM     89  H   GCU d 403       6.786  27.849  -8.543  0.00  0.00     0.091 H 
ATOM     90  H   GCU d 403       7.632  26.041  -6.521  0.00  0.00     0.210 HD
ATOM     91  H   GCU d 403       7.817  30.295  -8.440  0.00  0.00     0.133 H 
ATOM     92  H   GCU d 403       8.793  28.188  -6.389  0.00  0.00     0.094 H 
ATOM     93  H   GCU d 403       6.465  27.983  -5.555  0.00  0.00     0.092 H 
ENDROOT
TORSDOF 23
ENDMDL
MODEL 25
REMARK VINA RESULT:      -6.0      4.329     12.189
REMARK  0 active torsions:
REMARK  status: ('A' for Active; 'I' for Inactive)
REMARK       I    between atoms: C8_1  and  C7_27 
REMARK       I    between atoms: O6_2  and  C6_34 
REMARK       I    between atoms: O4_3  and  C4_39 
REMARK       I    between atoms: O4_4  and  C4_6 
REMARK       I    between atoms: O2_7  and  C2_37 
REMARK       I    between atoms: C7_9  and  C8_15 
REMARK       I    between atoms: C7_9  and  N2_13 
REMARK       I    between atoms: N2_10  and  C2_53 
REMARK       I    between atoms: N2_10  and  C7_27 
REMARK       I    between atoms: C6_11  and  C5_48 
REMARK       I    between atoms: C5_12  and  C6_17 
REMARK       I    between atoms: N2_13  and  C2_19 
REMARK       I    between atoms: C2_16  and  O2_42 
REMARK       I    between atoms: C3_18  and  O3_23 
REMARK       I    between atoms: O3_20  and  C1_24 
REMARK       I    between atoms: O3_20  and  C3_22 
REMARK       I    between atoms: O6_21  and  C6_28 
REMARK       I    between atoms: O4_25  and  C4_50 
REMARK       I    between atoms: O4_26  and  C1_33 
REMARK       I    between atoms: O4_26  and  C4_41 
REMARK       I    between atoms: C6_28  and  C5_43 
REMARK       I    between atoms: C5_29  and  C6_34 
REMARK       I    between atoms: O3_30  and  C3_46 
REMARK       I    between atoms: C3_31  and  O3_49 
REMARK       I    between atoms: C1_38  and  O3_49 
ROOT
ATOM      1  C8  NAG d 404      12.562  28.669 -14.320  0.00  0.00    -0.003 C 
ATOM      2  O6  NAG d 404       8.072  23.746 -17.847  0.00  0.00    -0.398 OA
ATOM      3  N2  NAG d 404      10.211  28.616 -14.907  0.00  0.00    -0.349 N 
ATOM      4  O3  NAG d 404       7.544  27.885 -13.358  0.00  0.00    -0.348 OA
ATOM      5  C3  NAG d 404       8.274  27.162 -14.292  0.00  0.00     0.093 C 
ATOM      6  O4  NAG d 404       6.782  25.210 -14.057  0.00  0.00    -0.390 OA
ATOM      7  C7  NAG d 404      11.403  27.940 -14.934  0.00  0.00     0.214 C 
ATOM      8  C5  NAG d 404       8.382  25.211 -15.825  0.00  0.00     0.089 C 
ATOM      9  C6  NAG d 404       7.699  24.042 -16.492  0.00  0.00     0.043 C 
ATOM     10  O5  NAG d 404       9.030  26.060 -16.768  0.00  0.00    -0.337 OA
ATOM     11  C1  NAG d 404       8.830  27.435 -16.657  0.00  0.00     0.283 C 
ATOM     12  O7  NAG d 404      11.530  26.821 -15.425  0.00  0.00    -0.274 OA
ATOM     13  C4  NAG d 404       7.441  26.083 -14.982  0.00  0.00     0.089 C 
ATOM     14  C2  NAG d 404       8.893  28.099 -15.320  0.00  0.00     0.102 C 
ATOM     15  H   NAG d 404      12.234  29.620 -13.955  0.00  0.00     0.040 H 
ATOM     16  H   NAG d 404      13.324  28.814 -15.058  0.00  0.00     0.040 H 
ATOM     17  H   NAG d 404      12.956  28.093 -13.508  0.00  0.00     0.040 H 
ATOM     18  H   NAG d 404       7.568  22.979 -18.160  0.00  0.00     0.209 HD
ATOM     19  H   NAG d 404      10.237  29.543 -14.578  0.00  0.00     0.163 HD
ATOM     20  H   NAG d 404       9.053  26.658 -13.760  0.00  0.00     0.091 H 
ATOM     21  H   NAG d 404       6.176  25.725 -13.503  0.00  0.00     0.210 HD
ATOM     22  H   NAG d 404       9.099  24.755 -15.175  0.00  0.00     0.090 H 
ATOM     23  H   NAG d 404       7.905  23.172 -15.904  0.00  0.00     0.078 H 
ATOM     24  H   NAG d 404       6.668  24.320 -16.546  0.00  0.00     0.078 H 
ATOM     25  H   NAG d 404       6.697  26.584 -15.564  0.00  0.00     0.091 H 
ATOM     26  H   NAG d 404       8.327  29.003 -15.397  0.00  0.00     0.085 H 
ATOM     27  O4  NAG d 402       3.207  26.960  -4.293  0.00  0.00    -0.390 OA
ATOM     28  O5  NAG d 402       4.831  28.064  -7.346  0.00  0.00    -0.349 OA
ATOM     29  C7  NAG d 402       8.978  28.157  -5.168  0.00  0.00     0.214 C 
ATOM     30  N2  NAG d 402       7.949  27.331  -5.516  0.00  0.00    -0.349 N 
ATOM     31  C8  NAG d 402      10.356  27.543  -4.989  0.00  0.00    -0.003 C 
ATOM     32  C2  NAG d 402       6.570  27.813  -5.695  0.00  0.00     0.087 C 
ATOM     33  O6  NAG d 402       2.432  29.406  -7.141  0.00  0.00    -0.398 OA
ATOM     34  C6  NAG d 402       2.491  27.990  -6.993  0.00  0.00     0.043 C 
ATOM     35  C3  NAG d 402       5.565  27.205  -4.732  0.00  0.00     0.093 C 
ATOM     36  O7  NAG d 402       8.849  29.351  -4.993  0.00  0.00    -0.274 OA
ATOM     37  C1  NAG d 402       6.140  27.556  -7.142  0.00  0.00     0.154 C 
ATOM     38  C4  NAG d 402       4.150  27.689  -5.082  0.00  0.00     0.089 C 
ATOM     39  C5  NAG d 402       3.824  27.444  -6.543  0.00  0.00     0.089 C 
ATOM     40  O3  NAG d 402       5.781  27.681  -3.425  0.00  0.00    -0.348 OA
ATOM     41  H   NAG d 402       3.395  27.101  -3.352  0.00  0.00     0.210 HD
ATOM     42  H   NAG d 402       8.136  26.375  -5.652  0.00  0.00     0.163 HD
ATOM     43  H   NAG d 402      10.306  26.491  -5.178  0.00  0.00     0.040 H 
ATOM     44  H   NAG d 402      10.694  27.710  -3.987  0.00  0.00     0.040 H 
ATOM     45  H   NAG d 402      11.040  27.996  -5.676  0.00  0.00     0.040 H 
ATOM     46  H   NAG d 402       6.577  28.860  -5.473  0.00  0.00     0.084 H 
ATOM     47  H   NAG d 402       1.543  29.664  -7.432  0.00  0.00     0.209 HD
ATOM     48  H   NAG d 402       2.255  27.548  -7.939  0.00  0.00     0.078 H 
ATOM     49  H   NAG d 402       1.793  27.743  -6.220  0.00  0.00     0.078 H 
ATOM     50  H   NAG d 402       5.672  26.142  -4.800  0.00  0.00     0.091 H 
ATOM     51  H   NAG d 402       6.098  26.509  -7.360  0.00  0.00     0.132 H 
ATOM     52  H   NAG d 402       4.101  28.740  -4.887  0.00  0.00     0.091 H 
ATOM     53  H   NAG d 402       3.783  26.381  -6.657  0.00  0.00     0.090 H 
ATOM     54  O4  GCU d 401       7.686  25.435   1.055  0.00  0.00    -0.390 OA
ATOM     55  C4  GCU d 401       6.824  26.275   0.281  0.00  0.00     0.097 C 
ATOM     56  C6  GCU d 401       5.284  24.359  -0.357  0.00  0.00     0.206 C 
ATOM     57  C2  GCU d 401       6.992  28.031  -1.477  0.00  0.00     0.110 C 
ATOM     58  O3  GCU d 401       7.986  28.308   0.725  0.00  0.00    -0.390 OA
ATOM     59  C1  GCU d 401       6.424  27.030  -2.483  0.00  0.00     0.160 C 
ATOM     60  O2  GCU d 401       7.894  28.916  -2.121  0.00  0.00    -0.388 OA
ATOM     61  O6B GCU d 401       5.715  23.867   0.707  0.00  0.00    -0.646 OA
ATOM     62  C3  GCU d 401       7.697  27.365  -0.321  0.00  0.00     0.092 C 
ATOM     63  O5  GCU d 401       5.495  26.227  -1.753  0.00  0.00    -0.340 OA
ATOM     64  C5  GCU d 401       6.204  25.417  -0.833  0.00  0.00     0.152 C 
ATOM     65  O6A GCU d 401       4.296  24.148  -1.092  0.00  0.00    -0.646 OA
ATOM     66  H   GCU d 401       8.090  25.956   1.767  0.00  0.00     0.210 HD
ATOM     67  H   GCU d 401       6.041  26.709   0.867  0.00  0.00     0.091 H 
ATOM     68  H   GCU d 401       6.155  28.569  -1.082  0.00  0.00     0.094 H 
ATOM     69  H   GCU d 401       8.439  27.854   1.453  0.00  0.00     0.210 HD
ATOM     70  H   GCU d 401       7.194  26.440  -2.936  0.00  0.00     0.133 H 
ATOM     71  H   GCU d 401       8.645  28.413  -2.472  0.00  0.00     0.210 HD
ATOM     72  H   GCU d 401       8.607  26.954  -0.706  0.00  0.00     0.091 H 
ATOM     73  H   GCU d 401       7.039  24.933  -1.295  0.00  0.00     0.104 H 
ATOM     74  O4  GCU d 405       9.265  28.071 -17.765  0.00  0.00    -0.189 OA
ATOM     75  O2  GCU d 403       7.130  30.214 -12.263  0.00  0.00    -0.388 OA
ATOM     76  C5  GCU d 403       7.934  26.901  -9.867  0.00  0.00     0.152 C 
ATOM     77  O5  GCU d 403       7.823  26.837 -11.263  0.00  0.00    -0.340 OA
ATOM     78  C6  GCU d 403       7.827  25.528  -9.308  0.00  0.00     0.206 C 
ATOM     79  C3  GCU d 403       7.062  29.232 -10.080  0.00  0.00     0.092 C 
ATOM     80  O3  GCU d 403       6.156  30.204  -9.534  0.00  0.00    -0.390 OA
ATOM     81  C1  GCU d 403       7.812  27.964 -12.093  0.00  0.00     0.160 C 
ATOM     82  O4  GCU d 403       7.044  28.109  -7.948  0.00  0.00    -0.348 OA
ATOM     83  O6A GCU d 403       6.926  24.776  -9.747  0.00  0.00    -0.646 OA
ATOM     84  C2  GCU d 403       6.838  29.010 -11.553  0.00  0.00     0.110 C 
ATOM     85  C4  GCU d 403       6.921  27.918  -9.331  0.00  0.00     0.103 C 
ATOM     86  O6B GCU d 403       8.651  25.219  -8.424  0.00  0.00    -0.646 OA
ATOM     87  H   GCU d 403       6.538  30.920 -11.960  0.00  0.00     0.210 HD
ATOM     88  H   GCU d 403       8.890  27.262  -9.549  0.00  0.00     0.104 H 
ATOM     89  H   GCU d 403       8.054  29.615  -9.962  0.00  0.00     0.091 H 
ATOM     90  H   GCU d 403       5.245  29.885  -9.627  0.00  0.00     0.210 HD
ATOM     91  H   GCU d 403       8.857  28.192 -12.055  0.00  0.00     0.133 H 
ATOM     92  H   GCU d 403       5.824  28.695 -11.683  0.00  0.00     0.094 H 
ATOM     93  H   GCU d 403       5.940  27.525  -9.498  0.00  0.00     0.092 H 
ENDROOT
TORSDOF 23
ENDMDL
MODEL 26
REMARK VINA RESULT:      -5.9      2.549      3.344
REMARK  0 active torsions:
REMARK  status: ('A' for Active; 'I' for Inactive)
REMARK       I    between atoms: C8_1  and  C7_27 
REMARK       I    between atoms: O6_2  and  C6_34 
REMARK       I    between atoms: O4_3  and  C4_39 
REMARK       I    between atoms: O4_4  and  C4_6 
REMARK       I    between atoms: O2_7  and  C2_37 
REMARK       I    between atoms: C7_9  and  C8_15 
REMARK       I    between atoms: C7_9  and  N2_13 
REMARK       I    between atoms: N2_10  and  C2_53 
REMARK       I    between atoms: N2_10  and  C7_27 
REMARK       I    between atoms: C6_11  and  C5_48 
REMARK       I    between atoms: C5_12  and  C6_17 
REMARK       I    between atoms: N2_13  and  C2_19 
REMARK       I    between atoms: C2_16  and  O2_42 
REMARK       I    between atoms: C3_18  and  O3_23 
REMARK       I    between atoms: O3_20  and  C1_24 
REMARK       I    between atoms: O3_20  and  C3_22 
REMARK       I    between atoms: O6_21  and  C6_28 
REMARK       I    between atoms: O4_25  and  C4_50 
REMARK       I    between atoms: O4_26  and  C1_33 
REMARK       I    between atoms: O4_26  and  C4_41 
REMARK       I    between atoms: C6_28  and  C5_43 
REMARK       I    between atoms: C5_29  and  C6_34 
REMARK       I    between atoms: O3_30  and  C3_46 
REMARK       I    between atoms: C3_31  and  O3_49 
REMARK       I    between atoms: C1_38  and  O3_49 
ROOT
ATOM      1  C8  NAG d 404       3.656  30.187  -2.737  0.00  0.00    -0.003 C 
ATOM      2  O6  NAG d 404      -1.531  25.641  -5.782  0.00  0.00    -0.398 OA
ATOM      3  N2  NAG d 404       3.692  27.976  -3.730  0.00  0.00    -0.349 N 
ATOM      4  O3  NAG d 404       4.425  26.831  -6.593  0.00  0.00    -0.348 OA
ATOM      5  C3  NAG d 404       3.191  27.055  -5.998  0.00  0.00     0.093 C 
ATOM      6  O4  NAG d 404       1.997  26.388  -8.053  0.00  0.00    -0.390 OA
ATOM      7  C7  NAG d 404       2.922  29.063  -3.410  0.00  0.00     0.214 C 
ATOM      8  C5  NAG d 404       0.734  26.702  -6.056  0.00  0.00     0.089 C 
ATOM      9  C6  NAG d 404      -0.469  26.026  -6.668  0.00  0.00     0.043 C 
ATOM     10  O5  NAG d 404       0.783  26.527  -4.643  0.00  0.00    -0.337 OA
ATOM     11  C1  NAG d 404       1.995  26.141  -4.073  0.00  0.00     0.283 C 
ATOM     12  O7  NAG d 404       1.718  29.128  -3.646  0.00  0.00    -0.274 OA
ATOM     13  C4  NAG d 404       2.074  26.227  -6.633  0.00  0.00     0.089 C 
ATOM     14  C2  NAG d 404       3.269  26.792  -4.501  0.00  0.00     0.102 C 
ATOM     15  H   NAG d 404       4.688  29.925  -2.628  0.00  0.00     0.040 H 
ATOM     16  H   NAG d 404       3.229  30.364  -1.771  0.00  0.00     0.040 H 
ATOM     17  H   NAG d 404       3.574  31.072  -3.331  0.00  0.00     0.040 H 
ATOM     18  H   NAG d 404      -2.241  25.220  -6.292  0.00  0.00     0.209 HD
ATOM     19  H   NAG d 404       4.623  27.985  -3.412  0.00  0.00     0.163 HD
ATOM     20  H   NAG d 404       2.945  28.083  -6.163  0.00  0.00     0.091 H 
ATOM     21  H   NAG d 404       2.830  26.097  -8.457  0.00  0.00     0.210 HD
ATOM     22  H   NAG d 404       0.603  27.735  -6.302  0.00  0.00     0.090 H 
ATOM     23  H   NAG d 404      -0.882  26.698  -7.391  0.00  0.00     0.078 H 
ATOM     24  H   NAG d 404      -0.095  25.106  -7.065  0.00  0.00     0.078 H 
ATOM     25  H   NAG d 404       2.284  25.200  -6.418  0.00  0.00     0.091 H 
ATOM     26  H   NAG d 404       4.057  26.104  -4.279  0.00  0.00     0.085 H 
ATOM     27  O4  NAG d 402       9.493  28.532 -15.154  0.00  0.00    -0.390 OA
ATOM     28  O5  NAG d 402       8.401  27.926 -11.745  0.00  0.00    -0.349 OA
ATOM     29  C7  NAG d 402       8.975  32.457 -10.700  0.00  0.00     0.214 C 
ATOM     30  N2  NAG d 402       8.290  31.606 -11.517  0.00  0.00    -0.349 N 
ATOM     31  C8  NAG d 402       8.339  33.796 -10.368  0.00  0.00    -0.003 C 
ATOM     32  C2  NAG d 402       8.819  30.294 -11.922  0.00  0.00     0.087 C 
ATOM     33  O6  NAG d 402      10.019  25.823 -12.493  0.00  0.00    -0.398 OA
ATOM     34  C6  NAG d 402       8.942  26.248 -13.325  0.00  0.00     0.043 C 
ATOM     35  C3  NAG d 402       9.037  30.141 -13.417  0.00  0.00     0.093 C 
ATOM     36  O7  NAG d 402      10.064  32.201 -10.228  0.00  0.00    -0.274 OA
ATOM     37  C1  NAG d 402       7.876  29.201 -11.410  0.00  0.00     0.154 C 
ATOM     38  C4  NAG d 402       9.479  28.705 -13.734  0.00  0.00     0.089 C 
ATOM     39  C5  NAG d 402       8.521  27.686 -13.149  0.00  0.00     0.089 C 
ATOM     40  O3  NAG d 402      10.117  30.938 -13.843  0.00  0.00    -0.348 OA
ATOM     41  H   NAG d 402      10.100  29.174 -15.552  0.00  0.00     0.210 HD
ATOM     42  H   NAG d 402       7.405  31.881 -11.850  0.00  0.00     0.163 HD
ATOM     43  H   NAG d 402       7.389  33.870 -10.855  0.00  0.00     0.040 H 
ATOM     44  H   NAG d 402       8.976  34.586 -10.706  0.00  0.00     0.040 H 
ATOM     45  H   NAG d 402       8.204  33.873  -9.310  0.00  0.00     0.040 H 
ATOM     46  H   NAG d 402       9.790  30.203 -11.483  0.00  0.00     0.084 H 
ATOM     47  H   NAG d 402      10.219  24.891 -12.674  0.00  0.00     0.209 HD
ATOM     48  H   NAG d 402       8.097  25.627 -13.114  0.00  0.00     0.078 H 
ATOM     49  H   NAG d 402       9.295  26.163 -14.332  0.00  0.00     0.078 H 
ATOM     50  H   NAG d 402       8.119  30.412 -13.896  0.00  0.00     0.091 H 
ATOM     51  H   NAG d 402       6.913  29.265 -11.871  0.00  0.00     0.132 H 
ATOM     52  H   NAG d 402      10.449  28.554 -13.308  0.00  0.00     0.091 H 
ATOM     53  H   NAG d 402       7.602  27.811 -13.682  0.00  0.00     0.090 H 
ATOM     54  O4  GCU d 401      10.469  35.419 -16.766  0.00  0.00    -0.390 OA
ATOM     55  C4  GCU d 401      10.867  34.121 -16.314  0.00  0.00     0.097 C 
ATOM     56  C6  GCU d 401       9.223  32.925 -17.837  0.00  0.00     0.206 C 
ATOM     57  C2  GCU d 401      11.280  32.919 -14.173  0.00  0.00     0.110 C 
ATOM     58  O3  GCU d 401      12.562  34.880 -14.822  0.00  0.00    -0.390 OA
ATOM     59  C1  GCU d 401      10.004  32.113 -14.419  0.00  0.00     0.160 C 
ATOM     60  O2  GCU d 401      11.482  33.107 -12.781  0.00  0.00    -0.388 OA
ATOM     61  O6B GCU d 401       9.344  33.963 -18.521  0.00  0.00    -0.646 OA
ATOM     62  C3  GCU d 401      11.264  34.266 -14.854  0.00  0.00     0.092 C 
ATOM     63  O5  GCU d 401       9.922  31.934 -15.834  0.00  0.00    -0.340 OA
ATOM     64  C5  GCU d 401       9.656  33.184 -16.445  0.00  0.00     0.152 C 
ATOM     65  O6A GCU d 401       8.812  31.765 -18.055  0.00  0.00    -0.646 OA
ATOM     66  H   GCU d 401      11.219  36.030 -16.694  0.00  0.00     0.210 HD
ATOM     67  H   GCU d 401      11.682  33.722 -16.882  0.00  0.00     0.091 H 
ATOM     68  H   GCU d 401      12.081  32.350 -14.595  0.00  0.00     0.094 H 
ATOM     69  H   GCU d 401      12.523  35.742 -15.265  0.00  0.00     0.210 HD
ATOM     70  H   GCU d 401       9.140  32.608 -14.027  0.00  0.00     0.133 H 
ATOM     71  H   GCU d 401      10.747  33.624 -12.415  0.00  0.00     0.210 HD
ATOM     72  H   GCU d 401      10.558  34.872 -14.326  0.00  0.00     0.091 H 
ATOM     73  H   GCU d 401       8.861  33.703 -15.952  0.00  0.00     0.104 H 
ATOM     74  O4  GCU d 405       1.816  25.747  -2.794  0.00  0.00    -0.189 OA
ATOM     75  O2  GCU d 403       6.999  26.617  -6.231  0.00  0.00    -0.388 OA
ATOM     76  C5  GCU d 403       5.512  29.280  -9.070  0.00  0.00     0.152 C 
ATOM     77  O5  GCU d 403       4.698  28.433  -8.304  0.00  0.00    -0.340 OA
ATOM     78  C6  GCU d 403       4.729  29.789 -10.227  0.00  0.00     0.206 C 
ATOM     79  C3  GCU d 403       7.434  27.972  -8.156  0.00  0.00     0.092 C 
ATOM     80  O3  GCU d 403       8.683  27.340  -8.474  0.00  0.00    -0.390 OA
ATOM     81  C1  GCU d 403       5.151  27.730  -7.181  0.00  0.00     0.160 C 
ATOM     82  O4  GCU d 403       7.718  29.370 -10.099  0.00  0.00    -0.348 OA
ATOM     83  O6A GCU d 403       4.029  28.975 -10.875  0.00  0.00    -0.646 OA
ATOM     84  C2  GCU d 403       6.469  27.024  -7.494  0.00  0.00     0.110 C 
ATOM     85  C4  GCU d 403       6.812  28.547  -9.417  0.00  0.00     0.103 C 
ATOM     86  O6B GCU d 403       4.829  31.006 -10.477  0.00  0.00    -0.646 OA
ATOM     87  H   GCU d 403       7.842  26.159  -6.367  0.00  0.00     0.210 HD
ATOM     88  H   GCU d 403       5.816  30.152  -8.530  0.00  0.00     0.104 H 
ATOM     89  H   GCU d 403       7.639  28.758  -7.460  0.00  0.00     0.091 H 
ATOM     90  H   GCU d 403       8.531  26.620  -9.105  0.00  0.00     0.210 HD
ATOM     91  H   GCU d 403       5.176  28.547  -6.490  0.00  0.00     0.133 H 
ATOM     92  H   GCU d 403       6.317  26.199  -8.158  0.00  0.00     0.094 H 
ATOM     93  H   GCU d 403       6.569  27.745 -10.083  0.00  0.00     0.092 H 
ENDROOT
TORSDOF 23
ENDMDL
MODEL 27
REMARK VINA RESULT:      -5.8      2.820      3.659
REMARK  0 active torsions:
REMARK  status: ('A' for Active; 'I' for Inactive)
REMARK       I    between atoms: C8_1  and  C7_27 
REMARK       I    between atoms: O6_2  and  C6_34 
REMARK       I    between atoms: O4_3  and  C4_39 
REMARK       I    between atoms: O4_4  and  C4_6 
REMARK       I    between atoms: O2_7  and  C2_37 
REMARK       I    between atoms: C7_9  and  C8_15 
REMARK       I    between atoms: C7_9  and  N2_13 
REMARK       I    between atoms: N2_10  and  C2_53 
REMARK       I    between atoms: N2_10  and  C7_27 
REMARK       I    between atoms: C6_11  and  C5_48 
REMARK       I    between atoms: C5_12  and  C6_17 
REMARK       I    between atoms: N2_13  and  C2_19 
REMARK       I    between atoms: C2_16  and  O2_42 
REMARK       I    between atoms: C3_18  and  O3_23 
REMARK       I    between atoms: O3_20  and  C1_24 
REMARK       I    between atoms: O3_20  and  C3_22 
REMARK       I    between atoms: O6_21  and  C6_28 
REMARK       I    between atoms: O4_25  and  C4_50 
REMARK       I    between atoms: O4_26  and  C1_33 
REMARK       I    between atoms: O4_26  and  C4_41 
REMARK       I    between atoms: C6_28  and  C5_43 
REMARK       I    between atoms: C5_29  and  C6_34 
REMARK       I    between atoms: O3_30  and  C3_46 
REMARK       I    between atoms: C3_31  and  O3_49 
REMARK       I    between atoms: C1_38  and  O3_49 
ROOT
ATOM      1  C8  NAG d 404       3.938  30.360  -2.709  0.00  0.00    -0.003 C 
ATOM      2  O6  NAG d 404      -1.841  25.884  -4.557  0.00  0.00    -0.398 OA
ATOM      3  N2  NAG d 404       3.697  28.003  -3.222  0.00  0.00    -0.349 N 
ATOM      4  O3  NAG d 404       4.148  26.228  -5.808  0.00  0.00    -0.348 OA
ATOM      5  C3  NAG d 404       2.978  26.701  -5.230  0.00  0.00     0.093 C 
ATOM      6  O4  NAG d 404       1.609  25.765  -7.058  0.00  0.00    -0.390 OA
ATOM      7  C7  NAG d 404       3.059  29.210  -3.108  0.00  0.00     0.214 C 
ATOM      8  C5  NAG d 404       0.499  26.614  -5.126  0.00  0.00     0.089 C 
ATOM      9  C6  NAG d 404      -0.798  25.963  -5.542  0.00  0.00     0.043 C 
ATOM     10  O5  NAG d 404       0.611  26.725  -3.710  0.00  0.00    -0.337 OA
ATOM     11  C1  NAG d 404       1.809  26.333  -3.116  0.00  0.00     0.283 C 
ATOM     12  O7  NAG d 404       1.856  29.357  -3.310  0.00  0.00    -0.274 OA
ATOM     13  C4  NAG d 404       1.750  25.888  -5.638  0.00  0.00     0.089 C 
ATOM     14  C2  NAG d 404       3.115  26.740  -3.714  0.00  0.00     0.102 C 
ATOM     15  H   NAG d 404       4.943  30.014  -2.585  0.00  0.00     0.040 H 
ATOM     16  H   NAG d 404       3.587  30.775  -1.787  0.00  0.00     0.040 H 
ATOM     17  H   NAG d 404       3.911  31.110  -3.472  0.00  0.00     0.040 H 
ATOM     18  H   NAG d 404      -2.617  25.449  -4.943  0.00  0.00     0.209 HD
ATOM     19  H   NAG d 404       4.641  27.975  -2.946  0.00  0.00     0.163 HD
ATOM     20  H   NAG d 404       2.827  27.695  -5.596  0.00  0.00     0.091 H 
ATOM     21  H   NAG d 404       2.384  25.309  -7.421  0.00  0.00     0.210 HD
ATOM     22  H   NAG d 404       0.458  27.583  -5.577  0.00  0.00     0.090 H 
ATOM     23  H   NAG d 404      -1.183  26.516  -6.373  0.00  0.00     0.078 H 
ATOM     24  H   NAG d 404      -0.541  24.946  -5.751  0.00  0.00     0.078 H 
ATOM     25  H   NAG d 404       1.869  24.910  -5.222  0.00  0.00     0.091 H 
ATOM     26  H   NAG d 404       3.842  26.030  -3.382  0.00  0.00     0.085 H 
ATOM     27  O4  NAG d 402       8.862  25.590 -14.709  0.00  0.00    -0.390 OA
ATOM     28  O5  NAG d 402       7.912  25.813 -11.213  0.00  0.00    -0.349 OA
ATOM     29  C7  NAG d 402       8.993  30.371 -11.154  0.00  0.00     0.214 C 
ATOM     30  N2  NAG d 402       8.181  29.452 -11.752  0.00  0.00    -0.349 N 
ATOM     31  C8  NAG d 402       8.513  31.810 -11.085  0.00  0.00    -0.003 C 
ATOM     32  C2  NAG d 402       8.553  28.035 -11.893  0.00  0.00     0.087 C 
ATOM     33  O6  NAG d 402       9.267  23.438 -11.564  0.00  0.00    -0.398 OA
ATOM     34  C6  NAG d 402       8.193  23.799 -12.427  0.00  0.00     0.043 C 
ATOM     35  C3  NAG d 402       8.669  27.559 -13.330  0.00  0.00     0.093 C 
ATOM     36  O7  NAG d 402      10.076  30.098 -10.678  0.00  0.00    -0.274 OA
ATOM     37  C1  NAG d 402       7.537  27.178 -11.132  0.00  0.00     0.154 C 
ATOM     38  C4  NAG d 402       8.947  26.049 -13.358  0.00  0.00     0.089 C 
ATOM     39  C5  NAG d 402       7.927  25.281 -12.539  0.00  0.00     0.089 C 
ATOM     40  O3  NAG d 402       9.796  28.130 -13.950  0.00  0.00    -0.348 OA
ATOM     41  H   NAG d 402       9.507  26.068 -15.254  0.00  0.00     0.210 HD
ATOM     42  H   NAG d 402       7.311  29.748 -12.103  0.00  0.00     0.163 HD
ATOM     43  H   NAG d 402       7.550  31.888 -11.543  0.00  0.00     0.040 H 
ATOM     44  H   NAG d 402       9.206  32.442 -11.602  0.00  0.00     0.040 H 
ATOM     45  H   NAG d 402       8.447  32.115 -10.062  0.00  0.00     0.040 H 
ATOM     46  H   NAG d 402       9.534  27.930 -11.479  0.00  0.00     0.084 H 
ATOM     47  H   NAG d 402       9.363  22.472 -11.554  0.00  0.00     0.209 HD
ATOM     48  H   NAG d 402       7.303  23.331 -12.063  0.00  0.00     0.078 H 
ATOM     49  H   NAG d 402       8.477  23.474 -13.407  0.00  0.00     0.078 H 
ATOM     50  H   NAG d 402       7.757  27.825 -13.822  0.00  0.00     0.091 H 
ATOM     51  H   NAG d 402       6.560  27.252 -11.562  0.00  0.00     0.132 H 
ATOM     52  H   NAG d 402       9.920  25.883 -12.944  0.00  0.00     0.091 H 
ATOM     53  H   NAG d 402       6.996  25.395 -13.054  0.00  0.00     0.090 H 
ATOM     54  O4  GCU d 401      10.426  31.858 -17.753  0.00  0.00    -0.390 OA
ATOM     55  C4  GCU d 401      10.717  30.643 -17.055  0.00  0.00     0.097 C 
ATOM     56  C6  GCU d 401       8.878  29.350 -18.236  0.00  0.00     0.206 C 
ATOM     57  C2  GCU d 401      11.130  29.863 -14.726  0.00  0.00     0.110 C 
ATOM     58  O3  GCU d 401      12.562  31.500 -15.814  0.00  0.00    -0.390 OA
ATOM     59  C1  GCU d 401       9.769  29.169 -14.754  0.00  0.00     0.160 C 
ATOM     60  O2  GCU d 401      11.429  30.307 -13.412  0.00  0.00    -0.388 OA
ATOM     61  O6B GCU d 401       9.063  30.208 -19.125  0.00  0.00    -0.646 OA
ATOM     62  C3  GCU d 401      11.210  31.038 -15.671  0.00  0.00     0.092 C 
ATOM     63  O5  GCU d 401       9.588  28.716 -16.097  0.00  0.00    -0.340 OA
ATOM     64  C5  GCU d 401       9.414  29.837 -16.945  0.00  0.00     0.152 C 
ATOM     65  O6A GCU d 401       8.343  28.222 -18.194  0.00  0.00    -0.646 OA
ATOM     66  H   GCU d 401      11.236  32.386 -17.835  0.00  0.00     0.210 HD
ATOM     67  H   GCU d 401      11.455  30.051 -17.555  0.00  0.00     0.091 H 
ATOM     68  H   GCU d 401      11.846  29.136 -15.049  0.00  0.00     0.094 H 
ATOM     69  H   GCU d 401      12.584  32.253 -16.425  0.00  0.00     0.210 HD
ATOM     70  H   GCU d 401       8.981  29.824 -14.443  0.00  0.00     0.133 H 
ATOM     71  H   GCU d 401      10.772  30.965 -13.136  0.00  0.00     0.210 HD
ATOM     72  H   GCU d 401      10.598  31.812 -15.257  0.00  0.00     0.091 H 
ATOM     73  H   GCU d 401       8.704  30.529 -16.543  0.00  0.00     0.104 H 
ATOM     74  O4  GCU d 405       1.665  26.229  -1.777  0.00  0.00    -0.189 OA
ATOM     75  O2  GCU d 403       6.704  25.812  -5.501  0.00  0.00    -0.388 OA
ATOM     76  C5  GCU d 403       5.330  27.989  -8.777  0.00  0.00     0.152 C 
ATOM     77  O5  GCU d 403       4.481  27.409  -7.824  0.00  0.00    -0.340 OA
ATOM     78  C6  GCU d 403       4.536  28.334  -9.986  0.00  0.00     0.206 C 
ATOM     79  C3  GCU d 403       7.161  26.692  -7.680  0.00  0.00     0.092 C 
ATOM     80  O3  GCU d 403       8.321  25.876  -7.904  0.00  0.00    -0.390 OA
ATOM     81  C1  GCU d 403       4.925  26.904  -6.596  0.00  0.00     0.160 C 
ATOM     82  O4  GCU d 403       7.471  27.627  -9.880  0.00  0.00    -0.348 OA
ATOM     83  O6A GCU d 403       3.723  27.487 -10.426  0.00  0.00    -0.646 OA
ATOM     84  C2  GCU d 403       6.146  26.010  -6.801  0.00  0.00     0.110 C 
ATOM     85  C4  GCU d 403       6.528  27.063  -9.010  0.00  0.00     0.103 C 
ATOM     86  O6B GCU d 403       4.743  29.457 -10.488  0.00  0.00    -0.646 OA
ATOM     87  H   GCU d 403       7.489  25.247  -5.569  0.00  0.00     0.210 HD
ATOM     88  H   GCU d 403       5.750  28.913  -8.442  0.00  0.00     0.104 H 
ATOM     89  H   GCU d 403       7.483  27.576  -7.170  0.00  0.00     0.091 H 
ATOM     90  H   GCU d 403       8.062  25.064  -8.365  0.00  0.00     0.210 HD
ATOM     91  H   GCU d 403       5.071  27.836  -6.091  0.00  0.00     0.133 H 
ATOM     92  H   GCU d 403       5.875  25.088  -7.273  0.00  0.00     0.094 H 
ATOM     93  H   GCU d 403       6.169  26.174  -9.485  0.00  0.00     0.092 H 
ENDROOT
TORSDOF 23
ENDMDL
MODEL 28
REMARK VINA RESULT:      -5.7      2.210     12.132
REMARK  0 active torsions:
REMARK  status: ('A' for Active; 'I' for Inactive)
REMARK       I    between atoms: C8_1  and  C7_27 
REMARK       I    between atoms: O6_2  and  C6_34 
REMARK       I    between atoms: O4_3  and  C4_39 
REMARK       I    between atoms: O4_4  and  C4_6 
REMARK       I    between atoms: O2_7  and  C2_37 
REMARK       I    between atoms: C7_9  and  C8_15 
REMARK       I    between atoms: C7_9  and  N2_13 
REMARK       I    between atoms: N2_10  and  C2_53 
REMARK       I    between atoms: N2_10  and  C7_27 
REMARK       I    between atoms: C6_11  and  C5_48 
REMARK       I    between atoms: C5_12  and  C6_17 
REMARK       I    between atoms: N2_13  and  C2_19 
REMARK       I    between atoms: C2_16  and  O2_42 
REMARK       I    between atoms: C3_18  and  O3_23 
REMARK       I    between atoms: O3_20  and  C1_24 
REMARK       I    between atoms: O3_20  and  C3_22 
REMARK       I    between atoms: O6_21  and  C6_28 
REMARK       I    between atoms: O4_25  and  C4_50 
REMARK       I    between atoms: O4_26  and  C1_33 
REMARK       I    between atoms: O4_26  and  C4_41 
REMARK       I    between atoms: C6_28  and  C5_43 
REMARK       I    between atoms: C5_29  and  C6_34 
REMARK       I    between atoms: O3_30  and  C3_46 
REMARK       I    between atoms: C3_31  and  O3_49 
REMARK       I    between atoms: C1_38  and  O3_49 
ROOT
ATOM      1  C8  NAG d 404       9.180  27.996 -16.350  0.00  0.00    -0.003 C 
ATOM      2  O6  NAG d 404      10.556  35.371 -15.605  0.00  0.00    -0.398 OA
ATOM      3  N2  NAG d 404      10.443  29.350 -14.785  0.00  0.00    -0.349 N 
ATOM      4  O3  NAG d 404       9.875  30.537 -11.901  0.00  0.00    -0.348 OA
ATOM      5  C3  NAG d 404       9.868  31.148 -13.147  0.00  0.00     0.093 C 
ATOM      6  O4  NAG d 404       9.118  33.289 -12.175  0.00  0.00    -0.390 OA
ATOM      7  C7  NAG d 404       9.633  29.352 -15.891  0.00  0.00     0.214 C 
ATOM      8  C5  NAG d 404       9.817  33.259 -14.455  0.00  0.00     0.089 C 
ATOM      9  C6  NAG d 404       9.878  34.767 -14.492  0.00  0.00     0.043 C 
ATOM     10  O5  NAG d 404      10.755  32.664 -15.345  0.00  0.00    -0.337 OA
ATOM     11  C1  NAG d 404      11.543  31.619 -14.865  0.00  0.00     0.283 C 
ATOM     12  O7  NAG d 404       9.297  30.378 -16.476  0.00  0.00    -0.274 OA
ATOM     13  C4  NAG d 404      10.053  32.663 -13.060  0.00  0.00     0.089 C 
ATOM     14  C2  NAG d 404      10.930  30.530 -14.046  0.00  0.00     0.102 C 
ATOM     15  H   NAG d 404       9.585  27.246 -15.703  0.00  0.00     0.040 H 
ATOM     16  H   NAG d 404       9.520  27.826 -17.350  0.00  0.00     0.040 H 
ATOM     17  H   NAG d 404       8.111  27.950 -16.323  0.00  0.00     0.040 H 
ATOM     18  H   NAG d 404      10.527  36.337 -15.515  0.00  0.00     0.209 HD
ATOM     19  H   NAG d 404      10.729  28.471 -14.449  0.00  0.00     0.163 HD
ATOM     20  H   NAG d 404       8.902  30.979 -13.575  0.00  0.00     0.091 H 
ATOM     21  H   NAG d 404       9.235  32.937 -11.279  0.00  0.00     0.210 HD
ATOM     22  H   NAG d 404       8.816  33.034 -14.757  0.00  0.00     0.090 H 
ATOM     23  H   NAG d 404       8.871  35.129 -14.494  0.00  0.00     0.078 H 
ATOM     24  H   NAG d 404      10.458  35.040 -13.636  0.00  0.00     0.078 H 
ATOM     25  H   NAG d 404      11.041  32.838 -12.690  0.00  0.00     0.091 H 
ATOM     26  H   NAG d 404      11.717  30.102 -13.462  0.00  0.00     0.085 H 
ATOM     27  O4  NAG d 402       4.337  29.646  -3.511  0.00  0.00    -0.390 OA
ATOM     28  O5  NAG d 402       6.600  29.241  -6.321  0.00  0.00    -0.349 OA
ATOM     29  C7  NAG d 402       3.540  26.398  -8.444  0.00  0.00     0.214 C 
ATOM     30  N2  NAG d 402       3.695  27.664  -7.959  0.00  0.00    -0.349 N 
ATOM     31  C8  NAG d 402       2.547  26.182  -9.573  0.00  0.00    -0.003 C 
ATOM     32  C2  NAG d 402       4.612  27.985  -6.854  0.00  0.00     0.087 C 
ATOM     33  O6  NAG d 402       8.110  29.194  -4.015  0.00  0.00    -0.398 OA
ATOM     34  C6  NAG d 402       7.162  30.233  -4.246  0.00  0.00     0.043 C 
ATOM     35  C3  NAG d 402       3.929  28.545  -5.618  0.00  0.00     0.093 C 
ATOM     36  O7  NAG d 402       4.150  25.439  -8.019  0.00  0.00    -0.274 OA
ATOM     37  C1  NAG d 402       5.675  28.963  -7.361  0.00  0.00     0.154 C 
ATOM     38  C4  NAG d 402       4.985  28.949  -4.579  0.00  0.00     0.089 C 
ATOM     39  C5  NAG d 402       6.028  29.875  -5.175  0.00  0.00     0.089 C 
ATOM     40  O3  NAG d 402       3.174  27.547  -4.975  0.00  0.00    -0.348 OA
ATOM     41  H   NAG d 402       3.664  29.073  -3.113  0.00  0.00     0.210 HD
ATOM     42  H   NAG d 402       3.173  28.392  -8.366  0.00  0.00     0.163 HD
ATOM     43  H   NAG d 402       2.095  27.116  -9.834  0.00  0.00     0.040 H 
ATOM     44  H   NAG d 402       1.790  25.495  -9.256  0.00  0.00     0.040 H 
ATOM     45  H   NAG d 402       3.058  25.783 -10.425  0.00  0.00     0.040 H 
ATOM     46  H   NAG d 402       5.053  27.062  -6.540  0.00  0.00     0.084 H 
ATOM     47  H   NAG d 402       8.798  29.512  -3.410  0.00  0.00     0.209 HD
ATOM     48  H   NAG d 402       7.682  31.068  -4.665  0.00  0.00     0.078 H 
ATOM     49  H   NAG d 402       6.713  30.440  -3.296  0.00  0.00     0.078 H 
ATOM     50  H   NAG d 402       3.325  29.367  -5.941  0.00  0.00     0.091 H 
ATOM     51  H   NAG d 402       5.244  29.901  -7.644  0.00  0.00     0.132 H 
ATOM     52  H   NAG d 402       5.469  28.059  -4.234  0.00  0.00     0.091 H 
ATOM     53  H   NAG d 402       5.512  30.784  -5.404  0.00  0.00     0.090 H 
ATOM     54  O4  GCU d 401      -2.089  26.671  -4.438  0.00  0.00    -0.390 OA
ATOM     55  C4  GCU d 401      -0.722  26.708  -4.015  0.00  0.00     0.097 C 
ATOM     56  C6  GCU d 401      -0.798  29.190  -3.483  0.00  0.00     0.206 C 
ATOM     57  C2  GCU d 401       1.511  25.937  -4.802  0.00  0.00     0.110 C 
ATOM     58  O3  GCU d 401      -0.298  24.384  -4.328  0.00  0.00    -0.390 OA
ATOM     59  C1  GCU d 401       1.875  27.394  -5.091  0.00  0.00     0.160 C 
ATOM     60  O2  GCU d 401       2.159  25.077  -5.726  0.00  0.00    -0.388 OA
ATOM     61  O6B GCU d 401      -2.016  28.959  -3.331  0.00  0.00    -0.646 OA
ATOM     62  C3  GCU d 401       0.025  25.682  -4.853  0.00  0.00     0.092 C 
ATOM     63  O5  GCU d 401       1.221  28.166  -4.083  0.00  0.00    -0.340 OA
ATOM     64  C5  GCU d 401      -0.178  28.118  -4.295  0.00  0.00     0.152 C 
ATOM     65  O6A GCU d 401      -0.021  30.104  -3.134  0.00  0.00    -0.646 OA
ATOM     66  H   GCU d 401      -2.455  25.789  -4.270  0.00  0.00     0.210 HD
ATOM     67  H   GCU d 401      -0.609  26.488  -2.974  0.00  0.00     0.091 H 
ATOM     68  H   GCU d 401       1.843  25.736  -3.806  0.00  0.00     0.094 H 
ATOM     69  H   GCU d 401      -1.258  24.247  -4.372  0.00  0.00     0.210 HD
ATOM     70  H   GCU d 401       1.580  27.690  -6.077  0.00  0.00     0.133 H 
ATOM     71  H   GCU d 401       1.848  25.272  -6.624  0.00  0.00     0.210 HD
ATOM     72  H   GCU d 401      -0.267  25.745  -5.880  0.00  0.00     0.091 H 
ATOM     73  H   GCU d 401      -0.429  28.304  -5.319  0.00  0.00     0.104 H 
ATOM     74  O4  GCU d 405      12.557  31.357 -15.716  0.00  0.00    -0.189 OA
ATOM     75  O2  GCU d 403      10.576  28.439 -10.520  0.00  0.00    -0.388 OA
ATOM     76  C5  GCU d 403       6.620  29.747 -10.454  0.00  0.00     0.152 C 
ATOM     77  O5  GCU d 403       7.640  30.406 -11.155  0.00  0.00    -0.340 OA
ATOM     78  C6  GCU d 403       5.459  30.664 -10.313  0.00  0.00     0.206 C 
ATOM     79  C3  GCU d 403       8.444  28.381  -9.431  0.00  0.00     0.092 C 
ATOM     80  O3  GCU d 403       8.942  27.806  -8.213  0.00  0.00    -0.390 OA
ATOM     81  C1  GCU d 403       8.900  29.846 -11.398  0.00  0.00     0.160 C 
ATOM     82  O4  GCU d 403       6.249  28.431  -8.439  0.00  0.00    -0.348 OA
ATOM     83  O6A GCU d 403       5.676  31.850  -9.969  0.00  0.00    -0.646 OA
ATOM     84  C2  GCU d 403       9.470  29.247 -10.113  0.00  0.00     0.110 C 
ATOM     85  C4  GCU d 403       7.191  29.190  -9.146  0.00  0.00     0.103 C 
ATOM     86  O6B GCU d 403       4.333  30.180 -10.544  0.00  0.00    -0.646 OA
ATOM     87  H   GCU d 403      10.981  28.030  -9.740  0.00  0.00     0.210 HD
ATOM     88  H   GCU d 403       6.245  28.896 -10.982  0.00  0.00     0.104 H 
ATOM     89  H   GCU d 403       8.214  27.574 -10.096  0.00  0.00     0.091 H 
ATOM     90  H   GCU d 403       9.161  28.515  -7.587  0.00  0.00     0.210 HD
ATOM     91  H   GCU d 403       8.620  29.171 -12.179  0.00  0.00     0.133 H 
ATOM     92  H   GCU d 403       9.757  30.014  -9.424  0.00  0.00     0.094 H 
ATOM     93  H   GCU d 403       7.447  30.018  -8.519  0.00  0.00     0.092 H 
ENDROOT
TORSDOF 23
ENDMDL
MODEL 29
REMARK VINA RESULT:      -5.5      4.344     12.326
REMARK  0 active torsions:
REMARK  status: ('A' for Active; 'I' for Inactive)
REMARK       I    between atoms: C8_1  and  C7_27 
REMARK       I    between atoms: O6_2  and  C6_34 
REMARK       I    between atoms: O4_3  and  C4_39 
REMARK       I    between atoms: O4_4  and  C4_6 
REMARK       I    between atoms: O2_7  and  C2_37 
REMARK       I    between atoms: C7_9  and  C8_15 
REMARK       I    between atoms: C7_9  and  N2_13 
REMARK       I    between atoms: N2_10  and  C2_53 
REMARK       I    between atoms: N2_10  and  C7_27 
REMARK       I    between atoms: C6_11  and  C5_48 
REMARK       I    between atoms: C5_12  and  C6_17 
REMARK       I    between atoms: N2_13  and  C2_19 
REMARK       I    between atoms: C2_16  and  O2_42 
REMARK       I    between atoms: C3_18  and  O3_23 
REMARK       I    between atoms: O3_20  and  C1_24 
REMARK       I    between atoms: O3_20  and  C3_22 
REMARK       I    between atoms: O6_21  and  C6_28 
REMARK       I    between atoms: O4_25  and  C4_50 
REMARK       I    between atoms: O4_26  and  C1_33 
REMARK       I    between atoms: O4_26  and  C4_41 
REMARK       I    between atoms: C6_28  and  C5_43 
REMARK       I    between atoms: C5_29  and  C6_34 
REMARK       I    between atoms: O3_30  and  C3_46 
REMARK       I    between atoms: C3_31  and  O3_49 
REMARK       I    between atoms: C1_38  and  O3_49 
ROOT
ATOM      1  C8  NAG d 404       7.680  25.297 -16.815  0.00  0.00    -0.003 C 
ATOM      2  O6  NAG d 404       9.509  32.406 -18.533  0.00  0.00    -0.398 OA
ATOM      3  N2  NAG d 404       9.574  26.736 -16.347  0.00  0.00    -0.349 N 
ATOM      4  O3  NAG d 404      10.456  28.526 -13.885  0.00  0.00    -0.348 OA
ATOM      5  C3  NAG d 404       9.893  28.879 -15.103  0.00  0.00     0.093 C 
ATOM      6  O4  NAG d 404       9.759  31.252 -14.437  0.00  0.00    -0.390 OA
ATOM      7  C7  NAG d 404       8.343  26.637 -16.942  0.00  0.00     0.214 C 
ATOM      8  C5  NAG d 404       9.315  30.683 -16.710  0.00  0.00     0.089 C 
ATOM      9  C6  NAG d 404       9.405  32.131 -17.127  0.00  0.00     0.043 C 
ATOM     10  O5  NAG d 404       9.709  29.800 -17.755  0.00  0.00    -0.337 OA
ATOM     11  C1  NAG d 404      10.591  28.767 -17.443  0.00  0.00     0.283 C 
ATOM     12  O7  NAG d 404       7.810  27.568 -17.541  0.00  0.00    -0.274 OA
ATOM     13  C4  NAG d 404      10.151  30.340 -15.469  0.00  0.00     0.089 C 
ATOM     14  C2  NAG d 404      10.391  27.955 -16.206  0.00  0.00     0.102 C 
ATOM     15  H   NAG d 404       8.312  24.637 -16.259  0.00  0.00     0.040 H 
ATOM     16  H   NAG d 404       7.509  24.890 -17.791  0.00  0.00     0.040 H 
ATOM     17  H   NAG d 404       6.745  25.408 -16.306  0.00  0.00     0.040 H 
ATOM     18  H   NAG d 404       9.560  33.365 -18.671  0.00  0.00     0.209 HD
ATOM     19  H   NAG d 404       9.952  25.906 -15.976  0.00  0.00     0.163 HD
ATOM     20  H   NAG d 404       8.833  28.769 -15.003  0.00  0.00     0.091 H 
ATOM     21  H   NAG d 404      10.267  31.067 -13.632  0.00  0.00     0.210 HD
ATOM     22  H   NAG d 404       8.281  30.547 -16.472  0.00  0.00     0.090 H 
ATOM     23  H   NAG d 404       8.527  32.625 -16.766  0.00  0.00     0.078 H 
ATOM     24  H   NAG d 404      10.326  32.480 -16.710  0.00  0.00     0.078 H 
ATOM     25  H   NAG d 404      11.204  30.442 -15.630  0.00  0.00     0.091 H 
ATOM     26  H   NAG d 404      11.343  27.542 -15.950  0.00  0.00     0.085 H 
ATOM     27  O4  NAG d 402       9.433  30.068  -3.964  0.00  0.00    -0.390 OA
ATOM     28  O5  NAG d 402      10.111  28.811  -7.302  0.00  0.00    -0.349 OA
ATOM     29  C7  NAG d 402       6.315  26.073  -7.100  0.00  0.00     0.214 C 
ATOM     30  N2  NAG d 402       6.724  27.374  -7.050  0.00  0.00    -0.349 N 
ATOM     31  C8  NAG d 402       4.904  25.785  -7.582  0.00  0.00    -0.003 C 
ATOM     32  C2  NAG d 402       8.060  27.769  -6.580  0.00  0.00     0.087 C 
ATOM     33  O6  NAG d 402      12.518  28.998  -5.971  0.00  0.00    -0.398 OA
ATOM     34  C6  NAG d 402      11.610  30.096  -5.994  0.00  0.00     0.043 C 
ATOM     35  C3  NAG d 402       8.052  28.649  -5.341  0.00  0.00     0.093 C 
ATOM     36  O7  NAG d 402       7.018  25.138  -6.777  0.00  0.00    -0.274 OA
ATOM     37  C1  NAG d 402       8.800  28.471  -7.723  0.00  0.00     0.154 C 
ATOM     38  C4  NAG d 402       9.484  29.093  -5.009  0.00  0.00     0.089 C 
ATOM     39  C5  NAG d 402      10.162  29.729  -6.207  0.00  0.00     0.089 C 
ATOM     40  O3  NAG d 402       7.648  27.911  -4.213  0.00  0.00    -0.348 OA
ATOM     41  H   NAG d 402       9.003  29.684  -3.185  0.00  0.00     0.210 HD
ATOM     42  H   NAG d 402       6.099  28.076  -7.341  0.00  0.00     0.163 HD
ATOM     43  H   NAG d 402       4.416  26.705  -7.828  0.00  0.00     0.040 H 
ATOM     44  H   NAG d 402       4.357  25.286  -6.809  0.00  0.00     0.040 H 
ATOM     45  H   NAG d 402       4.945  25.161  -8.450  0.00  0.00     0.040 H 
ATOM     46  H   NAG d 402       8.563  26.872  -6.286  0.00  0.00     0.084 H 
ATOM     47  H   NAG d 402      13.420  29.327  -5.831  0.00  0.00     0.209 HD
ATOM     48  H   NAG d 402      11.905  30.752  -6.786  0.00  0.00     0.078 H 
ATOM     49  H   NAG d 402      11.663  30.545  -5.024  0.00  0.00     0.078 H 
ATOM     50  H   NAG d 402       7.397  29.470  -5.546  0.00  0.00     0.091 H 
ATOM     51  H   NAG d 402       8.321  29.387  -7.998  0.00  0.00     0.132 H 
ATOM     52  H   NAG d 402      10.040  28.227  -4.715  0.00  0.00     0.091 H 
ATOM     53  H   NAG d 402       9.631  30.640  -6.391  0.00  0.00     0.090 H 
ATOM     54  O4  GCU d 401       3.212  27.909  -1.200  0.00  0.00    -0.390 OA
ATOM     55  C4  GCU d 401       4.619  27.833  -1.452  0.00  0.00     0.097 C 
ATOM     56  C6  GCU d 401       4.889  30.357  -1.547  0.00  0.00     0.206 C 
ATOM     57  C2  GCU d 401       6.200  26.617  -2.943  0.00  0.00     0.110 C 
ATOM     58  O3  GCU d 401       4.765  25.457  -1.360  0.00  0.00    -0.390 OA
ATOM     59  C1  GCU d 401       6.439  27.924  -3.699  0.00  0.00     0.160 C 
ATOM     60  O2  GCU d 401       6.312  25.511  -3.825  0.00  0.00    -0.388 OA
ATOM     61  O6B GCU d 401       3.874  30.334  -0.819  0.00  0.00    -0.646 OA
ATOM     62  C3  GCU d 401       4.852  26.569  -2.265  0.00  0.00     0.092 C 
ATOM     63  O5  GCU d 401       6.358  28.962  -2.720  0.00  0.00    -0.340 OA
ATOM     64  C5  GCU d 401       5.020  29.071  -2.270  0.00  0.00     0.152 C 
ATOM     65  O6A GCU d 401       5.772  31.202  -1.807  0.00  0.00    -0.646 OA
ATOM     66  H   GCU d 401       2.934  27.137  -0.683  0.00  0.00     0.210 HD
ATOM     67  H   GCU d 401       5.195  27.806  -0.551  0.00  0.00     0.091 H 
ATOM     68  H   GCU d 401       6.950  26.568  -2.182  0.00  0.00     0.094 H 
ATOM     69  H   GCU d 401       3.891  25.451  -0.939  0.00  0.00     0.210 HD
ATOM     70  H   GCU d 401       5.730  28.062  -4.489  0.00  0.00     0.133 H 
ATOM     71  H   GCU d 401       5.626  25.572  -4.508  0.00  0.00     0.210 HD
ATOM     72  H   GCU d 401       4.118  26.473  -3.037  0.00  0.00     0.091 H 
ATOM     73  H   GCU d 401       4.329  29.089  -3.086  0.00  0.00     0.104 H 
ATOM     74  O4  GCU d 405      11.082  28.204 -18.567  0.00  0.00    -0.189 OA
ATOM     75  O2  GCU d 403      11.644  26.658 -12.507  0.00  0.00    -0.388 OA
ATOM     76  C5  GCU d 403       8.224  28.500 -11.000  0.00  0.00     0.152 C 
ATOM     77  O5  GCU d 403       8.823  28.859 -12.215  0.00  0.00    -0.340 OA
ATOM     78  C6  GCU d 403       7.296  29.581 -10.578  0.00  0.00     0.206 C 
ATOM     79  C3  GCU d 403      10.264  27.113 -10.604  0.00  0.00     0.092 C 
ATOM     80  O3  GCU d 403      11.250  26.721  -9.638  0.00  0.00    -0.390 OA
ATOM     81  C1  GCU d 403       9.804  28.091 -12.853  0.00  0.00     0.160 C 
ATOM     82  O4  GCU d 403       8.786  27.664  -8.782  0.00  0.00    -0.348 OA
ATOM     83  O6A GCU d 403       7.690  30.769 -10.660  0.00  0.00    -0.646 OA
ATOM     84  C2  GCU d 403      10.885  27.677 -11.855  0.00  0.00     0.110 C 
ATOM     85  C4  GCU d 403       9.317  28.131  -9.992  0.00  0.00     0.103 C 
ATOM     86  O6B GCU d 403       6.175  29.226 -10.163  0.00  0.00    -0.646 OA
ATOM     87  H   GCU d 403      12.350  26.354 -11.917  0.00  0.00     0.210 HD
ATOM     88  H   GCU d 403       7.616  27.624 -11.087  0.00  0.00     0.104 H 
ATOM     89  H   GCU d 403       9.722  26.234 -10.885  0.00  0.00     0.091 H 
ATOM     90  H   GCU d 403      11.761  27.499  -9.363  0.00  0.00     0.210 HD
ATOM     91  H   GCU d 403       9.168  27.323 -13.243  0.00  0.00     0.133 H 
ATOM     92  H   GCU d 403      11.487  28.514 -11.569  0.00  0.00     0.094 H 
ATOM     93  H   GCU d 403       9.865  29.021  -9.761  0.00  0.00     0.092 H 
ENDROOT
TORSDOF 23
ENDMDL
MODEL 30
REMARK VINA RESULT:      -5.4      3.866      5.121
REMARK  0 active torsions:
REMARK  status: ('A' for Active; 'I' for Inactive)
REMARK       I    between atoms: C8_1  and  C7_27 
REMARK       I    between atoms: O6_2  and  C6_34 
REMARK       I    between atoms: O4_3  and  C4_39 
REMARK       I    between atoms: O4_4  and  C4_6 
REMARK       I    between atoms: O2_7  and  C2_37 
REMARK       I    between atoms: C7_9  and  C8_15 
REMARK       I    between atoms: C7_9  and  N2_13 
REMARK       I    between atoms: N2_10  and  C2_53 
REMARK       I    between atoms: N2_10  and  C7_27 
REMARK       I    between atoms: C6_11  and  C5_48 
REMARK       I    between atoms: C5_12  and  C6_17 
REMARK       I    between atoms: N2_13  and  C2_19 
REMARK       I    between atoms: C2_16  and  O2_42 
REMARK       I    between atoms: C3_18  and  O3_23 
REMARK       I    between atoms: O3_20  and  C1_24 
REMARK       I    between atoms: O3_20  and  C3_22 
REMARK       I    between atoms: O6_21  and  C6_28 
REMARK       I    between atoms: O4_25  and  C4_50 
REMARK       I    between atoms: O4_26  and  C1_33 
REMARK       I    between atoms: O4_26  and  C4_41 
REMARK       I    between atoms: C6_28  and  C5_43 
REMARK       I    between atoms: C5_29  and  C6_34 
REMARK       I    between atoms: O3_30  and  C3_46 
REMARK       I    between atoms: C3_31  and  O3_49 
REMARK       I    between atoms: C1_38  and  O3_49 
ROOT
ATOM      1  C8  NAG d 404      -1.590  30.579  -4.356  0.00  0.00    -0.003 C 
ATOM      2  O6  NAG d 404      -3.894  23.497  -3.186  0.00  0.00    -0.398 OA
ATOM      3  N2  NAG d 404      -0.918  28.786  -2.870  0.00  0.00    -0.349 N 
ATOM      4  O3  NAG d 404       1.381  26.604  -2.908  0.00  0.00    -0.348 OA
ATOM      5  C3  NAG d 404       0.025  26.494  -3.188  0.00  0.00     0.093 C 
ATOM      6  O4  NAG d 404       0.274  24.123  -3.824  0.00  0.00    -0.390 OA
ATOM      7  C7  NAG d 404      -1.761  29.166  -3.881  0.00  0.00     0.214 C 
ATOM      8  C5  NAG d 404      -1.926  25.012  -3.590  0.00  0.00     0.089 C 
ATOM      9  C6  NAG d 404      -2.526  23.627  -3.604  0.00  0.00     0.043 C 
ATOM     10  O5  NAG d 404      -2.705  25.923  -2.820  0.00  0.00    -0.337 OA
ATOM     11  C1  NAG d 404      -2.042  26.743  -1.909  0.00  0.00     0.283 C 
ATOM     12  O7  NAG d 404      -2.602  28.417  -4.372  0.00  0.00    -0.274 OA
ATOM     13  C4  NAG d 404      -0.488  25.061  -3.056  0.00  0.00     0.089 C 
ATOM     14  C2  NAG d 404      -0.777  27.434  -2.299  0.00  0.00     0.102 C 
ATOM     15  H   NAG d 404      -0.808  31.051  -3.799  0.00  0.00     0.040 H 
ATOM     16  H   NAG d 404      -2.504  31.117  -4.213  0.00  0.00     0.040 H 
ATOM     17  H   NAG d 404      -1.335  30.578  -5.396  0.00  0.00     0.040 H 
ATOM     18  H   NAG d 404      -4.161  22.566  -3.239  0.00  0.00     0.209 HD
ATOM     19  H   NAG d 404      -0.347  29.489  -2.484  0.00  0.00     0.163 HD
ATOM     20  H   NAG d 404      -0.108  26.777  -4.211  0.00  0.00     0.091 H 
ATOM     21  H   NAG d 404       1.193  24.124  -3.517  0.00  0.00     0.210 HD
ATOM     22  H   NAG d 404      -1.918  25.300  -4.619  0.00  0.00     0.090 H 
ATOM     23  H   NAG d 404      -2.459  23.258  -4.606  0.00  0.00     0.078 H 
ATOM     24  H   NAG d 404      -1.964  23.076  -2.878  0.00  0.00     0.078 H 
ATOM     25  H   NAG d 404      -0.413  24.794  -2.023  0.00  0.00     0.091 H 
ATOM     26  H   NAG d 404      -0.247  27.642  -1.393  0.00  0.00     0.085 H 
ATOM     27  O4  NAG d 402      10.438  24.164  -6.632  0.00  0.00    -0.390 OA
ATOM     28  O5  NAG d 402       7.581  25.648  -4.954  0.00  0.00    -0.349 OA
ATOM     29  C7  NAG d 402       7.307  28.971  -8.245  0.00  0.00     0.214 C 
ATOM     30  N2  NAG d 402       7.252  27.622  -8.053  0.00  0.00    -0.349 N 
ATOM     31  C8  NAG d 402       6.559  29.555  -9.431  0.00  0.00    -0.003 C 
ATOM     32  C2  NAG d 402       7.955  26.947  -6.951  0.00  0.00     0.087 C 
ATOM     33  O6  NAG d 402       9.391  24.893  -3.017  0.00  0.00    -0.398 OA
ATOM     34  C6  NAG d 402       8.990  23.981  -4.037  0.00  0.00     0.043 C 
ATOM     35  C3  NAG d 402       9.009  25.949  -7.399  0.00  0.00     0.093 C 
ATOM     36  O7  NAG d 402       7.923  29.726  -7.521  0.00  0.00    -0.274 OA
ATOM     37  C1  NAG d 402       6.923  26.259  -6.053  0.00  0.00     0.154 C 
ATOM     38  C4  NAG d 402       9.594  25.226  -6.178  0.00  0.00     0.089 C 
ATOM     39  C5  NAG d 402       8.504  24.619  -5.315  0.00  0.00     0.089 C 
ATOM     40  O3  NAG d 402      10.111  26.615  -7.968  0.00  0.00    -0.348 OA
ATOM     41  H   NAG d 402      11.145  24.528  -7.187  0.00  0.00     0.210 HD
ATOM     42  H   NAG d 402       6.720  27.078  -8.677  0.00  0.00     0.163 HD
ATOM     43  H   NAG d 402       6.070  28.769  -9.966  0.00  0.00     0.040 H 
ATOM     44  H   NAG d 402       7.250  30.052 -10.079  0.00  0.00     0.040 H 
ATOM     45  H   NAG d 402       5.829  30.256  -9.082  0.00  0.00     0.040 H 
ATOM     46  H   NAG d 402       8.490  27.703  -6.416  0.00  0.00     0.084 H 
ATOM     47  H   NAG d 402       9.686  24.396  -2.237  0.00  0.00     0.209 HD
ATOM     48  H   NAG d 402       8.199  23.376  -3.647  0.00  0.00     0.078 H 
ATOM     49  H   NAG d 402       9.866  23.424  -4.297  0.00  0.00     0.078 H 
ATOM     50  H   NAG d 402       8.535  25.284  -8.091  0.00  0.00     0.091 H 
ATOM     51  H   NAG d 402       6.408  25.478  -6.572  0.00  0.00     0.132 H 
ATOM     52  H   NAG d 402      10.137  25.942  -5.597  0.00  0.00     0.091 H 
ATOM     53  H   NAG d 402       8.066  23.842  -5.906  0.00  0.00     0.090 H 
ATOM     54  O4  GCU d 401      11.973  27.060 -12.977  0.00  0.00    -0.390 OA
ATOM     55  C4  GCU d 401      12.070  26.915 -11.556  0.00  0.00     0.097 C 
ATOM     56  C6  GCU d 401      11.657  24.410 -11.635  0.00  0.00     0.206 C 
ATOM     57  C2  GCU d 401      11.190  27.993  -9.491  0.00  0.00     0.110 C 
ATOM     58  O3  GCU d 401      12.553  29.204 -11.100  0.00  0.00    -0.390 OA
ATOM     59  C1  GCU d 401      10.321  26.758  -9.256  0.00  0.00     0.160 C 
ATOM     60  O2  GCU d 401      10.537  29.154  -9.001  0.00  0.00    -0.388 OA
ATOM     61  O6B GCU d 401      12.124  24.529 -12.787  0.00  0.00    -0.646 OA
ATOM     62  C3  GCU d 401      11.535  28.202 -10.945  0.00  0.00     0.092 C 
ATOM     63  O5  GCU d 401      11.085  25.648  -9.731  0.00  0.00    -0.340 OA
ATOM     64  C5  GCU d 401      11.189  25.725 -11.141  0.00  0.00     0.152 C 
ATOM     65  O6A GCU d 401      11.485  23.458 -10.844  0.00  0.00    -0.646 OA
ATOM     66  H   GCU d 401      12.522  27.807 -13.263  0.00  0.00     0.210 HD
ATOM     67  H   GCU d 401      13.073  26.740 -11.230  0.00  0.00     0.091 H 
ATOM     68  H   GCU d 401      12.103  27.825  -8.960  0.00  0.00     0.094 H 
ATOM     69  H   GCU d 401      12.755  29.316 -12.043  0.00  0.00     0.210 HD
ATOM     70  H   GCU d 401       9.376  26.836  -9.753  0.00  0.00     0.133 H 
ATOM     71  H   GCU d 401       9.712  29.293  -9.492  0.00  0.00     0.210 HD
ATOM     72  H   GCU d 401      10.637  28.511 -11.437  0.00  0.00     0.091 H 
ATOM     73  H   GCU d 401      10.242  25.921 -11.597  0.00  0.00     0.104 H 
ATOM     74  O4  GCU d 405      -2.922  27.333  -1.072  0.00  0.00    -0.189 OA
ATOM     75  O2  GCU d 403       3.265  28.068  -1.856  0.00  0.00    -0.388 OA
ATOM     76  C5  GCU d 403       3.637  26.699  -5.774  0.00  0.00     0.152 C 
ATOM     77  O5  GCU d 403       2.554  26.379  -4.942  0.00  0.00    -0.340 OA
ATOM     78  C6  GCU d 403       3.661  25.757  -6.923  0.00  0.00     0.206 C 
ATOM     79  C3  GCU d 403       4.702  27.652  -3.725  0.00  0.00     0.092 C 
ATOM     80  O3  GCU d 403       5.920  27.754  -2.972  0.00  0.00    -0.390 OA
ATOM     81  C1  GCU d 403       2.286  27.029  -3.732  0.00  0.00     0.160 C 
ATOM     82  O4  GCU d 403       6.025  27.169  -5.681  0.00  0.00    -0.348 OA
ATOM     83  O6A GCU d 403       3.494  24.536  -6.695  0.00  0.00    -0.646 OA
ATOM     84  C2  GCU d 403       3.559  27.131  -2.893  0.00  0.00     0.110 C 
ATOM     85  C4  GCU d 403       4.915  26.754  -4.932  0.00  0.00     0.103 C 
ATOM     86  O6B GCU d 403       3.853  26.256  -8.050  0.00  0.00    -0.646 OA
ATOM     87  H   GCU d 403       4.042  28.175  -1.287  0.00  0.00     0.210 HD
ATOM     88  H   GCU d 403       3.544  27.673  -6.208  0.00  0.00     0.104 H 
ATOM     89  H   GCU d 403       4.440  28.639  -4.046  0.00  0.00     0.091 H 
ATOM     90  H   GCU d 403       6.185  26.872  -2.664  0.00  0.00     0.210 HD
ATOM     91  H   GCU d 403       1.880  27.935  -4.132  0.00  0.00     0.133 H 
ATOM     92  H   GCU d 403       3.847  26.175  -2.510  0.00  0.00     0.094 H 
ATOM     93  H   GCU d 403       5.130  25.762  -4.594  0.00  0.00     0.092 H 
ENDROOT
TORSDOF 23
ENDMDL
MODEL 31
REMARK VINA RESULT:      -5.4      4.031     12.958
REMARK  0 active torsions:
REMARK  status: ('A' for Active; 'I' for Inactive)
REMARK       I    between atoms: C8_1  and  C7_27 
REMARK       I    between atoms: O6_2  and  C6_34 
REMARK       I    between atoms: O4_3  and  C4_39 
REMARK       I    between atoms: O4_4  and  C4_6 
REMARK       I    between atoms: O2_7  and  C2_37 
REMARK       I    between atoms: C7_9  and  C8_15 
REMARK       I    between atoms: C7_9  and  N2_13 
REMARK       I    between atoms: N2_10  and  C2_53 
REMARK       I    between atoms: N2_10  and  C7_27 
REMARK       I    between atoms: C6_11  and  C5_48 
REMARK       I    between atoms: C5_12  and  C6_17 
REMARK       I    between atoms: N2_13  and  C2_19 
REMARK       I    between atoms: C2_16  and  O2_42 
REMARK       I    between atoms: C3_18  and  O3_23 
REMARK       I    between atoms: O3_20  and  C1_24 
REMARK       I    between atoms: O3_20  and  C3_22 
REMARK       I    between atoms: O6_21  and  C6_28 
REMARK       I    between atoms: O4_25  and  C4_50 
REMARK       I    between atoms: O4_26  and  C1_33 
REMARK       I    between atoms: O4_26  and  C4_41 
REMARK       I    between atoms: C6_28  and  C5_43 
REMARK       I    between atoms: C5_29  and  C6_34 
REMARK       I    between atoms: O3_30  and  C3_46 
REMARK       I    between atoms: C3_31  and  O3_49 
REMARK       I    between atoms: C1_38  and  O3_49 
ROOT
ATOM      1  C8  NAG d 404       8.179  30.444 -11.034  0.00  0.00    -0.003 C 
ATOM      2  O6  NAG d 404      11.709  34.561  -5.797  0.00  0.00    -0.398 OA
ATOM      3  N2  NAG d 404       9.531  29.938  -9.086  0.00  0.00    -0.349 N 
ATOM      4  O3  NAG d 404       8.900  29.122  -6.089  0.00  0.00    -0.348 OA
ATOM      5  C3  NAG d 404       9.300  30.337  -6.630  0.00  0.00     0.093 C 
ATOM      6  O4  NAG d 404       9.126  31.455  -4.436  0.00  0.00    -0.390 OA
ATOM      7  C7  NAG d 404       8.961  30.926  -9.846  0.00  0.00     0.214 C 
ATOM      8  C5  NAG d 404      10.149  32.637  -6.237  0.00  0.00     0.089 C 
ATOM      9  C6  NAG d 404      10.697  33.677  -5.290  0.00  0.00     0.043 C 
ATOM     10  O5  NAG d 404      10.981  32.464  -7.380  0.00  0.00    -0.337 OA
ATOM     11  C1  NAG d 404      11.298  31.163  -7.768  0.00  0.00     0.283 C 
ATOM     12  O7  NAG d 404       9.075  32.122  -9.591  0.00  0.00    -0.274 OA
ATOM     13  C4  NAG d 404       9.944  31.258  -5.595  0.00  0.00     0.089 C 
ATOM     14  C2  NAG d 404      10.240  30.109  -7.805  0.00  0.00     0.102 C 
ATOM     15  H   NAG d 404       8.208  29.375 -11.070  0.00  0.00     0.040 H 
ATOM     16  H   NAG d 404       8.609  30.843 -11.930  0.00  0.00     0.040 H 
ATOM     17  H   NAG d 404       7.164  30.771 -10.949  0.00  0.00     0.040 H 
ATOM     18  H   NAG d 404      11.978  35.178  -5.099  0.00  0.00     0.209 HD
ATOM     19  H   NAG d 404       9.458  29.019  -9.430  0.00  0.00     0.163 HD
ATOM     20  H   NAG d 404       8.416  30.832  -6.976  0.00  0.00     0.091 H 
ATOM     21  H   NAG d 404       8.973  30.603  -4.000  0.00  0.00     0.210 HD
ATOM     22  H   NAG d 404       9.195  33.026  -6.523  0.00  0.00     0.090 H 
ATOM     23  H   NAG d 404       9.876  34.281  -4.966  0.00  0.00     0.078 H 
ATOM     24  H   NAG d 404      11.182  33.117  -4.519  0.00  0.00     0.078 H 
ATOM     25  H   NAG d 404      10.859  30.796  -5.290  0.00  0.00     0.091 H 
ATOM     26  H   NAG d 404      10.739  29.168  -7.713  0.00  0.00     0.085 H 
ATOM     27  O4  NAG d 402       2.050  25.127   0.153  0.00  0.00    -0.390 OA
ATOM     28  O5  NAG d 402       4.498  25.838  -2.431  0.00  0.00    -0.349 OA
ATOM     29  C7  NAG d 402       1.087  26.305  -5.608  0.00  0.00     0.214 C 
ATOM     30  N2  NAG d 402       1.558  26.814  -4.433  0.00  0.00    -0.349 N 
ATOM     31  C8  NAG d 402       0.282  27.223  -6.512  0.00  0.00    -0.003 C 
ATOM     32  C2  NAG d 402       2.331  26.010  -3.473  0.00  0.00     0.087 C 
ATOM     33  O6  NAG d 402       5.505  23.810  -0.858  0.00  0.00    -0.398 OA
ATOM     34  C6  NAG d 402       4.994  25.004  -0.271  0.00  0.00     0.043 C 
ATOM     35  C3  NAG d 402       1.668  25.851  -2.115  0.00  0.00     0.093 C 
ATOM     36  O7  NAG d 402       1.276  25.161  -5.966  0.00  0.00    -0.274 OA
ATOM     37  C1  NAG d 402       3.722  26.632  -3.313  0.00  0.00     0.154 C 
ATOM     38  C4  NAG d 402       2.608  25.097  -1.163  0.00  0.00     0.089 C 
ATOM     39  C5  NAG d 402       3.978  25.747  -1.103  0.00  0.00     0.089 C 
ATOM     40  O3  NAG d 402       0.536  25.021  -2.212  0.00  0.00    -0.348 OA
ATOM     41  H   NAG d 402       1.172  24.716   0.141  0.00  0.00     0.210 HD
ATOM     42  H   NAG d 402       1.373  27.756  -4.219  0.00  0.00     0.163 HD
ATOM     43  H   NAG d 402       0.204  28.190  -6.061  0.00  0.00     0.040 H 
ATOM     44  H   NAG d 402      -0.698  26.815  -6.652  0.00  0.00     0.040 H 
ATOM     45  H   NAG d 402       0.772  27.310  -7.459  0.00  0.00     0.040 H 
ATOM     46  H   NAG d 402       2.393  25.021  -3.876  0.00  0.00     0.084 H 
ATOM     47  H   NAG d 402       6.148  23.403  -0.256  0.00  0.00     0.209 HD
ATOM     48  H   NAG d 402       5.818  25.663  -0.090  0.00  0.00     0.078 H 
ATOM     49  H   NAG d 402       4.484  24.702   0.620  0.00  0.00     0.078 H 
ATOM     50  H   NAG d 402       1.424  26.833  -1.770  0.00  0.00     0.091 H 
ATOM     51  H   NAG d 402       3.669  27.608  -2.879  0.00  0.00     0.132 H 
ATOM     52  H   NAG d 402       2.715  24.096  -1.525  0.00  0.00     0.091 H 
ATOM     53  H   NAG d 402       3.827  26.699  -0.639  0.00  0.00     0.090 H 
ATOM     54  O4  GCU d 401      -4.741  25.926  -1.907  0.00  0.00    -0.390 OA
ATOM     55  C4  GCU d 401      -3.525  25.203  -1.687  0.00  0.00     0.097 C 
ATOM     56  C6  GCU d 401      -2.887  26.600   0.336  0.00  0.00     0.206 C 
ATOM     57  C2  GCU d 401      -1.560  24.388  -2.981  0.00  0.00     0.110 C 
ATOM     58  O3  GCU d 401      -3.826  23.654  -3.472  0.00  0.00    -0.390 OA
ATOM     59  C1  GCU d 401      -0.705  25.446  -2.284  0.00  0.00     0.160 C 
ATOM     60  O2  GCU d 401      -1.079  24.155  -4.295  0.00  0.00    -0.388 OA
ATOM     61  O6B GCU d 401      -4.122  26.772   0.410  0.00  0.00    -0.646 OA
ATOM     62  C3  GCU d 401      -3.020  24.767  -3.053  0.00  0.00     0.092 C 
ATOM     63  O5  GCU d 401      -1.234  25.567  -0.962  0.00  0.00    -0.340 OA
ATOM     64  C5  GCU d 401      -2.518  26.160  -1.029  0.00  0.00     0.152 C 
ATOM     65  O6A GCU d 401      -1.927  26.733   1.125  0.00  0.00    -0.646 OA
ATOM     66  H   GCU d 401      -5.394  25.342  -2.322  0.00  0.00     0.210 HD
ATOM     67  H   GCU d 401      -3.665  24.352  -1.054  0.00  0.00     0.091 H 
ATOM     68  H   GCU d 401      -1.482  23.500  -2.390  0.00  0.00     0.094 H 
ATOM     69  H   GCU d 401      -4.756  23.925  -3.509  0.00  0.00     0.210 HD
ATOM     70  H   GCU d 401      -0.720  26.379  -2.808  0.00  0.00     0.133 H 
ATOM     71  H   GCU d 401      -1.156  24.969  -4.817  0.00  0.00     0.210 HD
ATOM     72  H   GCU d 401      -3.099  25.565  -3.760  0.00  0.00     0.091 H 
ATOM     73  H   GCU d 401      -2.521  27.026  -1.657  0.00  0.00     0.104 H 
ATOM     74  O4  GCU d 405      12.302  31.166  -8.671  0.00  0.00    -0.189 OA
ATOM     75  O2  GCU d 403       8.648  26.556  -6.474  0.00  0.00    -0.388 OA
ATOM     76  C5  GCU d 403       5.371  28.803  -5.220  0.00  0.00     0.152 C 
ATOM     77  O5  GCU d 403       6.651  29.343  -5.411  0.00  0.00    -0.340 OA
ATOM     78  C6  GCU d 403       4.560  29.753  -4.413  0.00  0.00     0.206 C 
ATOM     79  C3  GCU d 403       6.461  26.573  -5.501  0.00  0.00     0.092 C 
ATOM     80  O3  GCU d 403       6.536  25.230  -5.000  0.00  0.00    -0.390 OA
ATOM     81  C1  GCU d 403       7.686  28.670  -6.071  0.00  0.00     0.160 C 
ATOM     82  O4  GCU d 403       4.265  26.748  -4.524  0.00  0.00    -0.348 OA
ATOM     83  O6A GCU d 403       5.087  30.274  -3.402  0.00  0.00    -0.646 OA
ATOM     84  C2  GCU d 403       7.810  27.242  -5.543  0.00  0.00     0.110 C 
ATOM     85  C4  GCU d 403       5.505  27.389  -4.647  0.00  0.00     0.103 C 
ATOM     86  O6B GCU d 403       3.394  29.962  -4.803  0.00  0.00    -0.646 OA
ATOM     87  H   GCU d 403       8.764  25.637  -6.189  0.00  0.00     0.210 HD
ATOM     88  H   GCU d 403       4.836  28.685  -6.139  0.00  0.00     0.104 H 
ATOM     89  H   GCU d 403       6.098  26.521  -6.506  0.00  0.00     0.091 H 
ATOM     90  H   GCU d 403       6.864  25.242  -4.087  0.00  0.00     0.210 HD
ATOM     91  H   GCU d 403       7.338  28.800  -7.075  0.00  0.00     0.133 H 
ATOM     92  H   GCU d 403       8.208  27.231  -4.550  0.00  0.00     0.094 H 
ATOM     93  H   GCU d 403       5.905  27.471  -3.658  0.00  0.00     0.092 H 
ENDROOT
TORSDOF 23
ENDMDL
MODEL 32
REMARK VINA RESULT:      -5.4      2.915      3.722
REMARK  0 active torsions:
REMARK  status: ('A' for Active; 'I' for Inactive)
REMARK       I    between atoms: C8_1  and  C7_27 
REMARK       I    between atoms: O6_2  and  C6_34 
REMARK       I    between atoms: O4_3  and  C4_39 
REMARK       I    between atoms: O4_4  and  C4_6 
REMARK       I    between atoms: O2_7  and  C2_37 
REMARK       I    between atoms: C7_9  and  C8_15 
REMARK       I    between atoms: C7_9  and  N2_13 
REMARK       I    between atoms: N2_10  and  C2_53 
REMARK       I    between atoms: N2_10  and  C7_27 
REMARK       I    between atoms: C6_11  and  C5_48 
REMARK       I    between atoms: C5_12  and  C6_17 
REMARK       I    between atoms: N2_13  and  C2_19 
REMARK       I    between atoms: C2_16  and  O2_42 
REMARK       I    between atoms: C3_18  and  O3_23 
REMARK       I    between atoms: O3_20  and  C1_24 
REMARK       I    between atoms: O3_20  and  C3_22 
REMARK       I    between atoms: O6_21  and  C6_28 
REMARK       I    between atoms: O4_25  and  C4_50 
REMARK       I    between atoms: O4_26  and  C1_33 
REMARK       I    between atoms: O4_26  and  C4_41 
REMARK       I    between atoms: C6_28  and  C5_43 
REMARK       I    between atoms: C5_29  and  C6_34 
REMARK       I    between atoms: O3_30  and  C3_46 
REMARK       I    between atoms: C3_31  and  O3_49 
REMARK       I    between atoms: C1_38  and  O3_49 
ROOT
ATOM      1  C8  NAG d 404       1.993  27.303  -1.603  0.00  0.00    -0.003 C 
ATOM      2  O6  NAG d 404      -3.601  24.704  -5.938  0.00  0.00    -0.398 OA
ATOM      3  N2  NAG d 404       1.743  25.446  -3.141  0.00  0.00    -0.349 N 
ATOM      4  O3  NAG d 404       2.518  24.945  -6.173  0.00  0.00    -0.348 OA
ATOM      5  C3  NAG d 404       1.292  25.234  -5.590  0.00  0.00     0.093 C 
ATOM      6  O4  NAG d 404       0.184  25.338  -7.793  0.00  0.00    -0.390 OA
ATOM      7  C7  NAG d 404       1.142  26.540  -2.576  0.00  0.00     0.214 C 
ATOM      8  C5  NAG d 404      -1.175  25.366  -5.834  0.00  0.00     0.089 C 
ATOM      9  C6  NAG d 404      -2.417  25.099  -6.650  0.00  0.00     0.043 C 
ATOM     10  O5  NAG d 404      -1.277  24.834  -4.517  0.00  0.00    -0.337 OA
ATOM     11  C1  NAG d 404      -0.201  24.101  -4.021  0.00  0.00     0.283 C 
ATOM     12  O7  NAG d 404      -0.009  26.883  -2.834  0.00  0.00    -0.274 OA
ATOM     13  C4  NAG d 404       0.111  24.813  -6.463  0.00  0.00     0.089 C 
ATOM     14  C2  NAG d 404       1.197  24.593  -4.212  0.00  0.00     0.102 C 
ATOM     15  H   NAG d 404       2.953  26.837  -1.527  0.00  0.00     0.040 H 
ATOM     16  H   NAG d 404       1.521  27.307  -0.643  0.00  0.00     0.040 H 
ATOM     17  H   NAG d 404       2.112  28.310  -1.947  0.00  0.00     0.040 H 
ATOM     18  H   NAG d 404      -4.325  24.564  -6.568  0.00  0.00     0.209 HD
ATOM     19  H   NAG d 404       2.633  25.204  -2.795  0.00  0.00     0.163 HD
ATOM     20  H   NAG d 404       1.237  26.298  -5.488  0.00  0.00     0.091 H 
ATOM     21  H   NAG d 404       0.988  25.010  -8.226  0.00  0.00     0.210 HD
ATOM     22  H   NAG d 404      -1.110  26.433  -5.805  0.00  0.00     0.090 H 
ATOM     23  H   NAG d 404      -2.648  25.995  -7.186  0.00  0.00     0.078 H 
ATOM     24  H   NAG d 404      -2.170  24.256  -7.260  0.00  0.00     0.078 H 
ATOM     25  H   NAG d 404       0.127  23.744  -6.518  0.00  0.00     0.091 H 
ATOM     26  H   NAG d 404       1.837  23.738  -4.149  0.00  0.00     0.085 H 
ATOM     27  O4  NAG d 402       8.513  27.784 -13.779  0.00  0.00    -0.390 OA
ATOM     28  O5  NAG d 402       7.047  26.551 -10.695  0.00  0.00    -0.349 OA
ATOM     29  C7  NAG d 402       8.280  30.487  -8.473  0.00  0.00     0.214 C 
ATOM     30  N2  NAG d 402       7.535  30.010  -9.512  0.00  0.00    -0.349 N 
ATOM     31  C8  NAG d 402       7.851  31.793  -7.826  0.00  0.00    -0.003 C 
ATOM     32  C2  NAG d 402       7.870  28.768 -10.226  0.00  0.00     0.087 C 
ATOM     33  O6  NAG d 402       8.348  24.443 -11.906  0.00  0.00    -0.398 OA
ATOM     34  C6  NAG d 402       7.434  25.254 -12.639  0.00  0.00     0.043 C 
ATOM     35  C3  NAG d 402       8.187  28.960 -11.699  0.00  0.00     0.093 C 
ATOM     36  O7  NAG d 402       9.266  29.925  -8.043  0.00  0.00    -0.274 OA
ATOM     37  C1  NAG d 402       6.717  27.774 -10.058  0.00  0.00     0.154 C 
ATOM     38  C4  NAG d 402       8.408  27.594 -12.366  0.00  0.00     0.089 C 
ATOM     39  C5  NAG d 402       7.246  26.654 -12.107  0.00  0.00     0.089 C 
ATOM     40  O3  NAG d 402       9.417  29.625 -11.858  0.00  0.00    -0.348 OA
ATOM     41  H   NAG d 402       9.251  28.383 -13.970  0.00  0.00     0.210 HD
ATOM     42  H   NAG d 402       6.741  30.518  -9.795  0.00  0.00     0.163 HD
ATOM     43  H   NAG d 402       6.973  32.160  -8.314  0.00  0.00     0.040 H 
ATOM     44  H   NAG d 402       8.638  32.512  -7.919  0.00  0.00     0.040 H 
ATOM     45  H   NAG d 402       7.641  31.624  -6.791  0.00  0.00     0.040 H 
ATOM     46  H   NAG d 402       8.771  28.393  -9.789  0.00  0.00     0.084 H 
ATOM     47  H   NAG d 402       8.405  23.567 -12.318  0.00  0.00     0.209 HD
ATOM     48  H   NAG d 402       6.481  24.768 -12.632  0.00  0.00     0.078 H 
ATOM     49  H   NAG d 402       7.852  25.363 -13.618  0.00  0.00     0.078 H 
ATOM     50  H   NAG d 402       7.372  29.506 -12.126  0.00  0.00     0.091 H 
ATOM     51  H   NAG d 402       5.821  28.128 -10.523  0.00  0.00     0.132 H 
ATOM     52  H   NAG d 402       9.298  27.165 -11.956  0.00  0.00     0.091 H 
ATOM     53  H   NAG d 402       6.410  27.077 -12.624  0.00  0.00     0.090 H 
ATOM     54  O4  GCU d 401      10.764  34.555 -13.483  0.00  0.00    -0.390 OA
ATOM     55  C4  GCU d 401      10.898  33.134 -13.374  0.00  0.00     0.097 C 
ATOM     56  C6  GCU d 401       9.214  32.683 -15.220  0.00  0.00     0.206 C 
ATOM     57  C2  GCU d 401      10.919  31.377 -11.609  0.00  0.00     0.110 C 
ATOM     58  O3  GCU d 401      12.562  33.168 -11.668  0.00  0.00    -0.390 OA
ATOM     59  C1  GCU d 401       9.552  30.908 -12.108  0.00  0.00     0.160 C 
ATOM     60  O2  GCU d 401      11.030  31.168 -10.210  0.00  0.00    -0.388 OA
ATOM     61  O6B GCU d 401       9.565  33.820 -15.602  0.00  0.00    -0.646 OA
ATOM     62  C3  GCU d 401      11.187  32.831 -11.912  0.00  0.00     0.092 C 
ATOM     63  O5  GCU d 401       9.563  31.109 -13.522  0.00  0.00    -0.340 OA
ATOM     64  C5  GCU d 401       9.563  32.499 -13.793  0.00  0.00     0.152 C 
ATOM     65  O6A GCU d 401       8.635  31.712 -15.752  0.00  0.00    -0.646 OA
ATOM     66  H   GCU d 401      11.597  34.979 -13.223  0.00  0.00     0.210 HD
ATOM     67  H   GCU d 401      11.681  32.748 -13.993  0.00  0.00     0.091 H 
ATOM     68  H   GCU d 401      11.647  30.795 -12.134  0.00  0.00     0.094 H 
ATOM     69  H   GCU d 401      12.706  34.106 -11.870  0.00  0.00     0.210 HD
ATOM     70  H   GCU d 401       8.752  31.438 -11.634  0.00  0.00     0.133 H 
ATOM     71  H   GCU d 401      10.363  31.702  -9.750  0.00  0.00     0.210 HD
ATOM     72  H   GCU d 401      10.550  33.404 -11.272  0.00  0.00     0.091 H 
ATOM     73  H   GCU d 401       8.827  33.015 -13.213  0.00  0.00     0.104 H 
ATOM     74  O4  GCU d 405      -0.552  23.438  -2.899  0.00  0.00    -0.189 OA
ATOM     75  O2  GCU d 403       4.979  24.177  -5.779  0.00  0.00    -0.388 OA
ATOM     76  C5  GCU d 403       4.207  27.695  -7.874  0.00  0.00     0.152 C 
ATOM     77  O5  GCU d 403       3.201  26.847  -7.391  0.00  0.00    -0.340 OA
ATOM     78  C6  GCU d 403       3.623  28.614  -8.886  0.00  0.00     0.206 C 
ATOM     79  C3  GCU d 403       5.798  25.869  -7.262  0.00  0.00     0.092 C 
ATOM     80  O3  GCU d 403       6.947  25.119  -7.685  0.00  0.00    -0.390 OA
ATOM     81  C1  GCU d 403       3.431  25.813  -6.475  0.00  0.00     0.160 C 
ATOM     82  O4  GCU d 403       6.477  27.634  -8.755  0.00  0.00    -0.348 OA
ATOM     83  O6A GCU d 403       2.855  28.133  -9.752  0.00  0.00    -0.646 OA
ATOM     84  C2  GCU d 403       4.635  24.979  -6.910  0.00  0.00     0.110 C 
ATOM     85  C4  GCU d 403       5.391  26.847  -8.351  0.00  0.00     0.103 C 
ATOM     86  O6B GCU d 403       3.946  29.815  -8.803  0.00  0.00    -0.646 OA
ATOM     87  H   GCU d 403       5.742  23.621  -5.998  0.00  0.00     0.210 HD
ATOM     88  H   GCU d 403       4.606  28.331  -7.112  0.00  0.00     0.104 H 
ATOM     89  H   GCU d 403       6.071  26.403  -6.375  0.00  0.00     0.091 H 
ATOM     90  H   GCU d 403       6.730  24.621  -8.489  0.00  0.00     0.210 HD
ATOM     91  H   GCU d 403       3.534  26.411  -5.593  0.00  0.00     0.133 H 
ATOM     92  H   GCU d 403       4.404  24.390  -7.773  0.00  0.00     0.094 H 
ATOM     93  H   GCU d 403       5.076  26.297  -9.212  0.00  0.00     0.092 H 
ENDROOT
TORSDOF 23
ENDMDL
MODEL 33
REMARK VINA RESULT:      -5.3      4.100      6.523
REMARK  0 active torsions:
REMARK  status: ('A' for Active; 'I' for Inactive)
REMARK       I    between atoms: C8_1  and  C7_27 
REMARK       I    between atoms: O6_2  and  C6_34 
REMARK       I    between atoms: O4_3  and  C4_39 
REMARK       I    between atoms: O4_4  and  C4_6 
REMARK       I    between atoms: O2_7  and  C2_37 
REMARK       I    between atoms: C7_9  and  C8_15 
REMARK       I    between atoms: C7_9  and  N2_13 
REMARK       I    between atoms: N2_10  and  C2_53 
REMARK       I    between atoms: N2_10  and  C7_27 
REMARK       I    between atoms: C6_11  and  C5_48 
REMARK       I    between atoms: C5_12  and  C6_17 
REMARK       I    between atoms: N2_13  and  C2_19 
REMARK       I    between atoms: C2_16  and  O2_42 
REMARK       I    between atoms: C3_18  and  O3_23 
REMARK       I    between atoms: O3_20  and  C1_24 
REMARK       I    between atoms: O3_20  and  C3_22 
REMARK       I    between atoms: O6_21  and  C6_28 
REMARK       I    between atoms: O4_25  and  C4_50 
REMARK       I    between atoms: O4_26  and  C1_33 
REMARK       I    between atoms: O4_26  and  C4_41 
REMARK       I    between atoms: C6_28  and  C5_43 
REMARK       I    between atoms: C5_29  and  C6_34 
REMARK       I    between atoms: O3_30  and  C3_46 
REMARK       I    between atoms: C3_31  and  O3_49 
REMARK       I    between atoms: C1_38  and  O3_49 
ROOT
ATOM      1  C8  NAG d 404       4.560  23.846  -3.348  0.00  0.00    -0.003 C 
ATOM      2  O6  NAG d 404       9.683  27.340   0.940  0.00  0.00    -0.398 OA
ATOM      3  N2  NAG d 404       4.959  26.146  -2.692  0.00  0.00    -0.349 N 
ATOM      4  O3  NAG d 404       6.372  28.637  -4.050  0.00  0.00    -0.348 OA
ATOM      5  C3  NAG d 404       6.813  27.783  -3.048  0.00  0.00     0.093 C 
ATOM      6  O4  NAG d 404       9.018  28.890  -2.974  0.00  0.00    -0.390 OA
ATOM      7  C7  NAG d 404       5.396  24.850  -2.608  0.00  0.00     0.214 C 
ATOM      8  C5  NAG d 404       8.480  27.312  -1.269  0.00  0.00     0.089 C 
ATOM      9  C6  NAG d 404       9.651  27.766  -0.431  0.00  0.00     0.043 C 
ATOM     10  O5  NAG d 404       7.406  26.829  -0.469  0.00  0.00    -0.337 OA
ATOM     11  C1  NAG d 404       6.119  27.279  -0.760  0.00  0.00     0.283 C 
ATOM     12  O7  NAG d 404       6.394  24.516  -1.974  0.00  0.00    -0.274 OA
ATOM     13  C4  NAG d 404       7.920  28.401  -2.196  0.00  0.00     0.089 C 
ATOM     14  C2  NAG d 404       5.646  27.344  -2.175  0.00  0.00     0.102 C 
ATOM     15  H   NAG d 404       3.745  24.346  -3.829  0.00  0.00     0.040 H 
ATOM     16  H   NAG d 404       4.178  23.122  -2.659  0.00  0.00     0.040 H 
ATOM     17  H   NAG d 404       5.162  23.356  -4.085  0.00  0.00     0.040 H 
ATOM     18  H   NAG d 404      10.478  27.693   1.369  0.00  0.00     0.209 HD
ATOM     19  H   NAG d 404       4.098  26.292  -3.145  0.00  0.00     0.163 HD
ATOM     20  H   NAG d 404       7.235  26.926  -3.530  0.00  0.00     0.091 H 
ATOM     21  H   NAG d 404       8.704  29.583  -3.576  0.00  0.00     0.210 HD
ATOM     22  H   NAG d 404       8.883  26.526  -1.872  0.00  0.00     0.090 H 
ATOM     23  H   NAG d 404      10.541  27.405  -0.901  0.00  0.00     0.078 H 
ATOM     24  H   NAG d 404       9.560  28.831  -0.386  0.00  0.00     0.078 H 
ATOM     25  H   NAG d 404       7.487  29.222  -1.665  0.00  0.00     0.091 H 
ATOM     26  H   NAG d 404       4.859  28.067  -2.205  0.00  0.00     0.085 H 
ATOM     27  O4  NAG d 402       9.317  32.759 -12.779  0.00  0.00    -0.390 OA
ATOM     28  O5  NAG d 402       7.523  31.356  -9.952  0.00  0.00    -0.349 OA
ATOM     29  C7  NAG d 402       6.979  27.304 -12.240  0.00  0.00     0.214 C 
ATOM     30  N2  NAG d 402       7.922  28.163 -11.754  0.00  0.00    -0.349 N 
ATOM     31  C8  NAG d 402       7.350  25.837 -12.373  0.00  0.00    -0.003 C 
ATOM     32  C2  NAG d 402       7.679  29.606 -11.603  0.00  0.00     0.087 C 
ATOM     33  O6  NAG d 402       6.683  33.962 -10.267  0.00  0.00    -0.398 OA
ATOM     34  C6  NAG d 402       8.071  33.644 -10.223  0.00  0.00     0.043 C 
ATOM     35  C3  NAG d 402       8.588  30.485 -12.445  0.00  0.00     0.093 C 
ATOM     36  O7  NAG d 402       5.864  27.652 -12.571  0.00  0.00    -0.274 OA
ATOM     37  C1  NAG d 402       7.808  29.977 -10.122  0.00  0.00     0.154 C 
ATOM     38  C4  NAG d 402       8.326  31.963 -12.123  0.00  0.00     0.089 C 
ATOM     39  C5  NAG d 402       8.421  32.234 -10.634  0.00  0.00     0.089 C 
ATOM     40  O3  NAG d 402       8.266  30.365 -13.810  0.00  0.00    -0.348 OA
ATOM     41  H   NAG d 402       9.275  32.603 -13.735  0.00  0.00     0.210 HD
ATOM     42  H   NAG d 402       8.800  27.802 -11.495  0.00  0.00     0.163 HD
ATOM     43  H   NAG d 402       8.357  25.692 -12.043  0.00  0.00     0.040 H 
ATOM     44  H   NAG d 402       7.264  25.540 -13.398  0.00  0.00     0.040 H 
ATOM     45  H   NAG d 402       6.689  25.247 -11.774  0.00  0.00     0.040 H 
ATOM     46  H   NAG d 402       6.690  29.793 -11.964  0.00  0.00     0.084 H 
ATOM     47  H   NAG d 402       6.554  34.883  -9.988  0.00  0.00     0.209 HD
ATOM     48  H   NAG d 402       8.413  33.790  -9.221  0.00  0.00     0.078 H 
ATOM     49  H   NAG d 402       8.546  34.286 -10.936  0.00  0.00     0.078 H 
ATOM     50  H   NAG d 402       9.593  30.183 -12.237  0.00  0.00     0.091 H 
ATOM     51  H   NAG d 402       8.804  29.824  -9.764  0.00  0.00     0.132 H 
ATOM     52  H   NAG d 402       7.339  32.206 -12.457  0.00  0.00     0.091 H 
ATOM     53  H   NAG d 402       9.448  32.078 -10.375  0.00  0.00     0.090 H 
ATOM     54  O4  GCU d 401      10.725  28.093 -17.998  0.00  0.00    -0.390 OA
ATOM     55  C4  GCU d 401       9.957  29.092 -17.320  0.00  0.00     0.097 C 
ATOM     56  C6  GCU d 401      12.015  30.250 -16.385  0.00  0.00     0.206 C 
ATOM     57  C2  GCU d 401       7.974  29.246 -15.821  0.00  0.00     0.110 C 
ATOM     58  O3  GCU d 401       7.828  28.326 -18.068  0.00  0.00    -0.390 OA
ATOM     59  C1  GCU d 401       8.913  29.616 -14.673  0.00  0.00     0.160 C 
ATOM     60  O2  GCU d 401       6.858  28.520 -15.330  0.00  0.00    -0.388 OA
ATOM     61  O6B GCU d 401      12.562  29.739 -17.384  0.00  0.00    -0.646 OA
ATOM     62  C3  GCU d 401       8.653  28.433 -16.896  0.00  0.00     0.092 C 
ATOM     63  O5  GCU d 401       9.965  30.383 -15.261  0.00  0.00    -0.340 OA
ATOM     64  C5  GCU d 401      10.751  29.540 -16.082  0.00  0.00     0.152 C 
ATOM     65  O6A GCU d 401      12.298  31.180 -15.600  0.00  0.00    -0.646 OA
ATOM     66  H   GCU d 401      10.243  27.793 -18.785  0.00  0.00     0.210 HD
ATOM     67  H   GCU d 401       9.758  29.943 -17.936  0.00  0.00     0.091 H 
ATOM     68  H   GCU d 401       7.657  30.168 -16.261  0.00  0.00     0.094 H 
ATOM     69  H   GCU d 401       8.288  27.800 -18.741  0.00  0.00     0.210 HD
ATOM     70  H   GCU d 401       9.284  28.749 -14.167  0.00  0.00     0.133 H 
ATOM     71  H   GCU d 401       7.163  27.687 -14.935  0.00  0.00     0.210 HD
ATOM     72  H   GCU d 401       8.834  27.462 -16.485  0.00  0.00     0.091 H 
ATOM     73  H   GCU d 401      11.006  28.628 -15.583  0.00  0.00     0.104 H 
ATOM     74  O4  GCU d 405       5.267  26.966   0.240  0.00  0.00    -0.189 OA
ATOM     75  O2  GCU d 403       4.331  29.477  -5.439  0.00  0.00    -0.388 OA
ATOM     76  C5  GCU d 403       7.741  28.084  -7.387  0.00  0.00     0.152 C 
ATOM     77  O5  GCU d 403       7.631  28.176  -5.992  0.00  0.00    -0.340 OA
ATOM     78  C6  GCU d 403       9.175  27.937  -7.751  0.00  0.00     0.206 C 
ATOM     79  C3  GCU d 403       5.601  29.371  -7.466  0.00  0.00     0.092 C 
ATOM     80  O3  GCU d 403       4.896  30.441  -8.112  0.00  0.00    -0.390 OA
ATOM     81  C1  GCU d 403       6.421  28.392  -5.322  0.00  0.00     0.160 C 
ATOM     82  O4  GCU d 403       6.993  29.187  -9.425  0.00  0.00    -0.348 OA
ATOM     83  O6A GCU d 403      10.011  28.683  -7.188  0.00  0.00    -0.646 OA
ATOM     84  C2  GCU d 403       5.655  29.544  -5.971  0.00  0.00     0.110 C 
ATOM     85  C4  GCU d 403       7.010  29.268  -8.026  0.00  0.00     0.103 C 
ATOM     86  O6B GCU d 403       9.448  27.073  -8.608  0.00  0.00    -0.646 OA
ATOM     87  H   GCU d 403       3.794  30.190  -5.818  0.00  0.00     0.210 HD
ATOM     88  H   GCU d 403       7.260  27.212  -7.777  0.00  0.00     0.104 H 
ATOM     89  H   GCU d 403       5.064  28.466  -7.663  0.00  0.00     0.091 H 
ATOM     90  H   GCU d 403       5.360  31.278  -7.950  0.00  0.00     0.210 HD
ATOM     91  H   GCU d 403       6.013  27.407  -5.421  0.00  0.00     0.133 H 
ATOM     92  H   GCU d 403       6.128  30.483  -5.770  0.00  0.00     0.094 H 
ATOM     93  H   GCU d 403       7.548  30.160  -7.779  0.00  0.00     0.092 H 
ENDROOT
TORSDOF 23
ENDMDL
MODEL 34
REMARK VINA RESULT:      -5.2      3.888     12.118
REMARK  0 active torsions:
REMARK  status: ('A' for Active; 'I' for Inactive)
REMARK       I    between atoms: C8_1  and  C7_27 
REMARK       I    between atoms: O6_2  and  C6_34 
REMARK       I    between atoms: O4_3  and  C4_39 
REMARK       I    between atoms: O4_4  and  C4_6 
REMARK       I    between atoms: O2_7  and  C2_37 
REMARK       I    between atoms: C7_9  and  C8_15 
REMARK       I    between atoms: C7_9  and  N2_13 
REMARK       I    between atoms: N2_10  and  C2_53 
REMARK       I    between atoms: N2_10  and  C7_27 
REMARK       I    between atoms: C6_11  and  C5_48 
REMARK       I    between atoms: C5_12  and  C6_17 
REMARK       I    between atoms: N2_13  and  C2_19 
REMARK       I    between atoms: C2_16  and  O2_42 
REMARK       I    between atoms: C3_18  and  O3_23 
REMARK       I    between atoms: O3_20  and  C1_24 
REMARK       I    between atoms: O3_20  and  C3_22 
REMARK       I    between atoms: O6_21  and  C6_28 
REMARK       I    between atoms: O4_25  and  C4_50 
REMARK       I    between atoms: O4_26  and  C1_33 
REMARK       I    between atoms: O4_26  and  C4_41 
REMARK       I    between atoms: C6_28  and  C5_43 
REMARK       I    between atoms: C5_29  and  C6_34 
REMARK       I    between atoms: O3_30  and  C3_46 
REMARK       I    between atoms: C3_31  and  O3_49 
REMARK       I    between atoms: C1_38  and  O3_49 
ROOT
ATOM      1  C8  NAG d 404       5.987  34.436 -11.861  0.00  0.00    -0.003 C 
ATOM      2  O6  NAG d 404      12.290  35.897  -7.991  0.00  0.00    -0.398 OA
ATOM      3  N2  NAG d 404       8.032  33.219 -11.402  0.00  0.00    -0.349 N 
ATOM      4  O3  NAG d 404       8.875  30.985  -9.317  0.00  0.00    -0.348 OA
ATOM      5  C3  NAG d 404       9.139  32.347  -9.338  0.00  0.00     0.093 C 
ATOM      6  O4  NAG d 404      10.279  32.234  -7.151  0.00  0.00    -0.390 OA
ATOM      7  C7  NAG d 404       7.327  34.374 -11.187  0.00  0.00     0.214 C 
ATOM      8  C5  NAG d 404      10.432  34.254  -8.410  0.00  0.00     0.089 C 
ATOM      9  C6  NAG d 404      11.543  34.763  -7.524  0.00  0.00     0.043 C 
ATOM     10  O5  NAG d 404      10.534  34.757  -9.738  0.00  0.00    -0.337 OA
ATOM     11  C1  NAG d 404      10.396  33.856 -10.792  0.00  0.00     0.283 C 
ATOM     12  O7  NAG d 404       7.747  35.300 -10.498  0.00  0.00    -0.274 OA
ATOM     13  C4  NAG d 404      10.357  32.723  -8.495  0.00  0.00     0.089 C 
ATOM     14  C2  NAG d 404       9.308  32.833 -10.770  0.00  0.00     0.102 C 
ATOM     15  H   NAG d 404       5.819  33.531 -12.405  0.00  0.00     0.040 H 
ATOM     16  H   NAG d 404       5.965  35.267 -12.535  0.00  0.00     0.040 H 
ATOM     17  H   NAG d 404       5.222  34.555 -11.122  0.00  0.00     0.040 H 
ATOM     18  H   NAG d 404      12.971  36.126  -7.339  0.00  0.00     0.209 HD
ATOM     19  H   NAG d 404       7.648  32.580 -12.045  0.00  0.00     0.163 HD
ATOM     20  H   NAG d 404       8.295  32.837  -8.897  0.00  0.00     0.091 H 
ATOM     21  H   NAG d 404      10.229  31.266  -7.162  0.00  0.00     0.210 HD
ATOM     22  H   NAG d 404       9.541  34.613  -7.939  0.00  0.00     0.090 H 
ATOM     23  H   NAG d 404      11.108  35.030  -6.584  0.00  0.00     0.078 H 
ATOM     24  H   NAG d 404      12.252  33.963  -7.486  0.00  0.00     0.078 H 
ATOM     25  H   NAG d 404      11.212  32.286  -8.966  0.00  0.00     0.091 H 
ATOM     26  H   NAG d 404       9.624  32.033 -11.405  0.00  0.00     0.085 H 
ATOM     27  O4  NAG d 402       5.557  23.671  -3.205  0.00  0.00    -0.390 OA
ATOM     28  O5  NAG d 402       6.448  25.834  -5.981  0.00  0.00    -0.349 OA
ATOM     29  C7  NAG d 402       2.030  27.364  -6.276  0.00  0.00     0.214 C 
ATOM     30  N2  NAG d 402       3.104  27.293  -5.438  0.00  0.00    -0.349 N 
ATOM     31  C8  NAG d 402       1.041  28.499  -6.074  0.00  0.00    -0.003 C 
ATOM     32  C2  NAG d 402       4.113  26.226  -5.528  0.00  0.00     0.087 C 
ATOM     33  O6  NAG d 402       7.765  23.438  -6.331  0.00  0.00    -0.398 OA
ATOM     34  C6  NAG d 402       7.822  24.126  -5.084  0.00  0.00     0.043 C 
ATOM     35  C3  NAG d 402       4.209  25.350  -4.290  0.00  0.00     0.093 C 
ATOM     36  O7  NAG d 402       1.824  26.569  -7.169  0.00  0.00    -0.274 OA
ATOM     37  C1  NAG d 402       5.474  26.856  -5.837  0.00  0.00     0.154 C 
ATOM     38  C4  NAG d 402       5.363  24.350  -4.449  0.00  0.00     0.089 C 
ATOM     39  C5  NAG d 402       6.661  25.050  -4.805  0.00  0.00     0.089 C 
ATOM     40  O3  NAG d 402       3.064  24.541  -4.167  0.00  0.00    -0.348 OA
ATOM     41  H   NAG d 402       4.739  23.214  -2.956  0.00  0.00     0.210 HD
ATOM     42  H   NAG d 402       3.209  27.984  -4.745  0.00  0.00     0.163 HD
ATOM     43  H   NAG d 402       1.360  29.109  -5.255  0.00  0.00     0.040 H 
ATOM     44  H   NAG d 402       0.073  28.095  -5.862  0.00  0.00     0.040 H 
ATOM     45  H   NAG d 402       0.993  29.092  -6.963  0.00  0.00     0.040 H 
ATOM     46  H   NAG d 402       3.801  25.571  -6.315  0.00  0.00     0.084 H 
ATOM     47  H   NAG d 402       8.547  22.872  -6.423  0.00  0.00     0.209 HD
ATOM     48  H   NAG d 402       8.719  24.709  -5.069  0.00  0.00     0.078 H 
ATOM     49  H   NAG d 402       7.789  23.371  -4.327  0.00  0.00     0.078 H 
ATOM     50  H   NAG d 402       4.335  26.005  -3.453  0.00  0.00     0.091 H 
ATOM     51  H   NAG d 402       5.807  27.485  -5.039  0.00  0.00     0.132 H 
ATOM     52  H   NAG d 402       5.108  23.671  -5.235  0.00  0.00     0.091 H 
ATOM     53  H   NAG d 402       6.922  25.632  -3.947  0.00  0.00     0.090 H 
ATOM     54  O4  GCU d 401      -1.111  24.538  -0.802  0.00  0.00    -0.390 OA
ATOM     55  C4  GCU d 401      -0.087  23.952  -1.612  0.00  0.00     0.097 C 
ATOM     56  C6  GCU d 401       1.702  24.261   0.165  0.00  0.00     0.206 C 
ATOM     57  C2  GCU d 401       0.796  24.111  -3.935  0.00  0.00     0.110 C 
ATOM     58  O3  GCU d 401      -1.493  23.438  -3.466  0.00  0.00    -0.390 OA
ATOM     59  C1  GCU d 401       2.045  24.793  -3.378  0.00  0.00     0.160 C 
ATOM     60  O2  GCU d 401       0.504  24.603  -5.234  0.00  0.00    -0.388 OA
ATOM     61  O6B GCU d 401       0.719  24.225   0.935  0.00  0.00    -0.646 OA
ATOM     62  C3  GCU d 401      -0.417  24.297  -3.056  0.00  0.00     0.092 C 
ATOM     63  O5  GCU d 401       2.281  24.194  -2.103  0.00  0.00    -0.340 OA
ATOM     64  C5  GCU d 401       1.255  24.585  -1.209  0.00  0.00     0.152 C 
ATOM     65  O6A GCU d 401       2.935  24.110   0.297  0.00  0.00    -0.646 OA
ATOM     66  H   GCU d 401      -1.970  24.154  -1.038  0.00  0.00     0.210 HD
ATOM     67  H   GCU d 401      -0.025  22.891  -1.490  0.00  0.00     0.091 H 
ATOM     68  H   GCU d 401       1.015  23.064  -3.971  0.00  0.00     0.094 H 
ATOM     69  H   GCU d 401      -2.258  23.578  -2.885  0.00  0.00     0.210 HD
ATOM     70  H   GCU d 401       1.920  25.854  -3.306  0.00  0.00     0.133 H 
ATOM     71  H   GCU d 401       0.308  25.552  -5.183  0.00  0.00     0.210 HD
ATOM     72  H   GCU d 401      -0.711  25.321  -3.145  0.00  0.00     0.091 H 
ATOM     73  H   GCU d 401       1.076  25.639  -1.249  0.00  0.00     0.104 H 
ATOM     74  O4  GCU d 405      10.792  34.418 -11.954  0.00  0.00    -0.189 OA
ATOM     75  O2  GCU d 403       8.049  28.917 -10.674  0.00  0.00    -0.388 OA
ATOM     76  C5  GCU d 403       6.267  29.860  -7.027  0.00  0.00     0.152 C 
ATOM     77  O5  GCU d 403       7.344  30.576  -7.569  0.00  0.00    -0.340 OA
ATOM     78  C6  GCU d 403       6.140  30.194  -5.585  0.00  0.00     0.206 C 
ATOM     79  C3  GCU d 403       6.686  28.195  -8.842  0.00  0.00     0.092 C 
ATOM     80  O3  GCU d 403       6.784  26.798  -9.156  0.00  0.00    -0.390 OA
ATOM     81  C1  GCU d 403       7.780  30.437  -8.892  0.00  0.00     0.160 C 
ATOM     82  O4  GCU d 403       5.344  27.608  -6.928  0.00  0.00    -0.348 OA
ATOM     83  O6A GCU d 403       7.181  30.220  -4.887  0.00  0.00    -0.646 OA
ATOM     84  C2  GCU d 403       7.918  28.958  -9.252  0.00  0.00     0.110 C 
ATOM     85  C4  GCU d 403       6.438  28.373  -7.354  0.00  0.00     0.103 C 
ATOM     86  O6B GCU d 403       4.988  30.423  -5.163  0.00  0.00    -0.646 OA
ATOM     87  H   GCU d 403       8.141  27.996 -10.963  0.00  0.00     0.210 HD
ATOM     88  H   GCU d 403       5.331  30.138  -7.465  0.00  0.00     0.104 H 
ATOM     89  H   GCU d 403       5.864  28.593  -9.399  0.00  0.00     0.091 H 
ATOM     90  H   GCU d 403       7.524  26.407  -8.666  0.00  0.00     0.210 HD
ATOM     91  H   GCU d 403       7.000  30.993  -9.370  0.00  0.00     0.133 H 
ATOM     92  H   GCU d 403       8.755  28.517  -8.752  0.00  0.00     0.094 H 
ATOM     93  H   GCU d 403       7.290  28.014  -6.814  0.00  0.00     0.092 H 
ENDROOT
TORSDOF 23
ENDMDL
MODEL 35
REMARK VINA RESULT:      -5.1      4.439      5.590
REMARK  0 active torsions:
REMARK  status: ('A' for Active; 'I' for Inactive)
REMARK       I    between atoms: C8_1  and  C7_27 
REMARK       I    between atoms: O6_2  and  C6_34 
REMARK       I    between atoms: O4_3  and  C4_39 
REMARK       I    between atoms: O4_4  and  C4_6 
REMARK       I    between atoms: O2_7  and  C2_37 
REMARK       I    between atoms: C7_9  and  C8_15 
REMARK       I    between atoms: C7_9  and  N2_13 
REMARK       I    between atoms: N2_10  and  C2_53 
REMARK       I    between atoms: N2_10  and  C7_27 
REMARK       I    between atoms: C6_11  and  C5_48 
REMARK       I    between atoms: C5_12  and  C6_17 
REMARK       I    between atoms: N2_13  and  C2_19 
REMARK       I    between atoms: C2_16  and  O2_42 
REMARK       I    between atoms: C3_18  and  O3_23 
REMARK       I    between atoms: O3_20  and  C1_24 
REMARK       I    between atoms: O3_20  and  C3_22 
REMARK       I    between atoms: O6_21  and  C6_28 
REMARK       I    between atoms: O4_25  and  C4_50 
REMARK       I    between atoms: O4_26  and  C1_33 
REMARK       I    between atoms: O4_26  and  C4_41 
REMARK       I    between atoms: C6_28  and  C5_43 
REMARK       I    between atoms: C5_29  and  C6_34 
REMARK       I    between atoms: O3_30  and  C3_46 
REMARK       I    between atoms: C3_31  and  O3_49 
REMARK       I    between atoms: C1_38  and  O3_49 
ROOT
ATOM      1  C8  NAG d 404       5.063  31.311  -1.941  0.00  0.00    -0.003 C 
ATOM      2  O6  NAG d 404       2.517  24.517   0.109  0.00  0.00    -0.398 OA
ATOM      3  N2  NAG d 404       6.095  29.167  -1.478  0.00  0.00    -0.349 N 
ATOM      4  O3  NAG d 404       7.119  26.755  -3.262  0.00  0.00    -0.348 OA
ATOM      5  C3  NAG d 404       5.965  26.891  -2.503  0.00  0.00     0.093 C 
ATOM      6  O4  NAG d 404       5.119  24.700  -3.262  0.00  0.00    -0.390 OA
ATOM      7  C7  NAG d 404       4.919  29.864  -1.568  0.00  0.00     0.214 C 
ATOM      8  C5  NAG d 404       3.977  25.805  -1.484  0.00  0.00     0.089 C 
ATOM      9  C6  NAG d 404       3.211  24.549  -1.148  0.00  0.00     0.043 C 
ATOM     10  O5  NAG d 404       4.186  26.626  -0.339  0.00  0.00    -0.337 OA
ATOM     11  C1  NAG d 404       5.466  27.134  -0.122  0.00  0.00     0.283 C 
ATOM     12  O7  NAG d 404       3.819  29.358  -1.358  0.00  0.00    -0.274 OA
ATOM     13  C4  NAG d 404       5.346  25.545  -2.129  0.00  0.00     0.089 C 
ATOM     14  C2  NAG d 404       6.246  27.717  -1.255  0.00  0.00     0.102 C 
ATOM     15  H   NAG d 404       6.099  31.542  -2.078  0.00  0.00     0.040 H 
ATOM     16  H   NAG d 404       4.661  31.923  -1.161  0.00  0.00     0.040 H 
ATOM     17  H   NAG d 404       4.533  31.498  -2.852  0.00  0.00     0.040 H 
ATOM     18  H   NAG d 404       2.067  23.664   0.207  0.00  0.00     0.209 HD
ATOM     19  H   NAG d 404       6.925  29.687  -1.572  0.00  0.00     0.163 HD
ATOM     20  H   NAG d 404       5.248  27.403  -3.110  0.00  0.00     0.091 H 
ATOM     21  H   NAG d 404       5.964  24.512  -3.699  0.00  0.00     0.210 HD
ATOM     22  H   NAG d 404       3.355  26.305  -2.196  0.00  0.00     0.090 H 
ATOM     23  H   NAG d 404       2.486  24.399  -1.920  0.00  0.00     0.078 H 
ATOM     24  H   NAG d 404       3.956  23.785  -1.070  0.00  0.00     0.078 H 
ATOM     25  H   NAG d 404       6.034  25.055  -1.472  0.00  0.00     0.091 H 
ATOM     26  H   NAG d 404       7.279  27.652  -0.984  0.00  0.00     0.085 H 
ATOM     27  O4  NAG d 402      10.249  23.980 -12.447  0.00  0.00    -0.390 OA
ATOM     28  O5  NAG d 402       9.780  25.438  -9.155  0.00  0.00    -0.349 OA
ATOM     29  C7  NAG d 402       8.176  29.397 -11.080  0.00  0.00     0.214 C 
ATOM     30  N2  NAG d 402       7.935  28.058 -10.983  0.00  0.00    -0.349 N 
ATOM     31  C8  NAG d 402       6.998  30.317 -11.347  0.00  0.00    -0.003 C 
ATOM     32  C2  NAG d 402       9.004  27.073 -10.748  0.00  0.00     0.087 C 
ATOM     33  O6  NAG d 402      12.160  24.048  -9.124  0.00  0.00    -0.398 OA
ATOM     34  C6  NAG d 402      10.966  23.439  -9.608  0.00  0.00     0.043 C 
ATOM     35  C3  NAG d 402       9.181  26.063 -11.868  0.00  0.00     0.093 C 
ATOM     36  O7  NAG d 402       9.280  29.889 -10.966  0.00  0.00    -0.274 OA
ATOM     37  C1  NAG d 402       8.730  26.353  -9.424  0.00  0.00     0.154 C 
ATOM     38  C4  NAG d 402      10.237  25.023 -11.468  0.00  0.00     0.089 C 
ATOM     39  C5  NAG d 402       9.919  24.396 -10.124  0.00  0.00     0.089 C 
ATOM     40  O3  NAG d 402       9.721  26.682 -13.011  0.00  0.00    -0.348 OA
ATOM     41  H   NAG d 402      10.451  24.357 -13.317  0.00  0.00     0.210 HD
ATOM     42  H   NAG d 402       7.010  27.737 -11.075  0.00  0.00     0.163 HD
ATOM     43  H   NAG d 402       6.102  29.737 -11.421  0.00  0.00     0.040 H 
ATOM     44  H   NAG d 402       7.158  30.845 -12.264  0.00  0.00     0.040 H 
ATOM     45  H   NAG d 402       6.904  31.018 -10.544  0.00  0.00     0.040 H 
ATOM     46  H   NAG d 402       9.923  27.618 -10.709  0.00  0.00     0.084 H 
ATOM     47  H   NAG d 402      12.771  23.361  -8.815  0.00  0.00     0.209 HD
ATOM     48  H   NAG d 402      10.534  22.876  -8.807  0.00  0.00     0.078 H 
ATOM     49  H   NAG d 402      11.257  22.839 -10.445  0.00  0.00     0.078 H 
ATOM     50  H   NAG d 402       8.220  25.633 -12.056  0.00  0.00     0.091 H 
ATOM     51  H   NAG d 402       7.828  25.779  -9.468  0.00  0.00     0.132 H 
ATOM     52  H   NAG d 402      11.183  25.517 -11.404  0.00  0.00     0.091 H 
ATOM     53  H   NAG d 402       9.023  23.830 -10.271  0.00  0.00     0.090 H 
ATOM     54  O4  GCU d 401       7.717  27.939 -17.823  0.00  0.00    -0.390 OA
ATOM     55  C4  GCU d 401       8.713  27.481 -16.903  0.00  0.00     0.097 C 
ATOM     56  C6  GCU d 401       7.756  25.130 -16.810  0.00  0.00     0.206 C 
ATOM     57  C2  GCU d 401       9.773  28.198 -14.767  0.00  0.00     0.110 C 
ATOM     58  O3  GCU d 401       9.921  29.532 -16.795  0.00  0.00    -0.390 OA
ATOM     59  C1  GCU d 401       9.027  27.069 -14.057  0.00  0.00     0.160 C 
ATOM     60  O2  GCU d 401       9.941  29.303 -13.893  0.00  0.00    -0.388 OA
ATOM     61  O6B GCU d 401       7.325  25.430 -17.943  0.00  0.00    -0.646 OA
ATOM     62  C3  GCU d 401       9.075  28.665 -16.021  0.00  0.00     0.092 C 
ATOM     63  O5  GCU d 401       8.958  25.995 -14.996  0.00  0.00    -0.340 OA
ATOM     64  C5  GCU d 401       8.092  26.359 -16.055  0.00  0.00     0.152 C 
ATOM     65  O6A GCU d 401       7.938  24.062 -16.187  0.00  0.00    -0.646 OA
ATOM     66  H   GCU d 401       8.086  28.650 -18.371  0.00  0.00     0.210 HD
ATOM     67  H   GCU d 401       9.584  27.106 -17.397  0.00  0.00     0.091 H 
ATOM     68  H   GCU d 401      10.723  27.798 -15.053  0.00  0.00     0.094 H 
ATOM     69  H   GCU d 401       9.449  29.816 -17.593  0.00  0.00     0.210 HD
ATOM     70  H   GCU d 401       8.055  27.378 -13.730  0.00  0.00     0.133 H 
ATOM     71  H   GCU d 401       9.071  29.653 -13.644  0.00  0.00     0.210 HD
ATOM     72  H   GCU d 401       8.197  29.191 -15.711  0.00  0.00     0.091 H 
ATOM     73  H   GCU d 401       7.175  26.774 -15.691  0.00  0.00     0.104 H 
ATOM     74  O4  GCU d 405       5.572  27.643   1.123  0.00  0.00    -0.189 OA
ATOM     75  O2  GCU d 403       9.497  27.692  -3.777  0.00  0.00    -0.388 OA
ATOM     76  C5  GCU d 403       6.756  27.161  -6.870  0.00  0.00     0.152 C 
ATOM     77  O5  GCU d 403       6.493  26.817  -5.536  0.00  0.00    -0.340 OA
ATOM     78  C6  GCU d 403       5.759  26.493  -7.748  0.00  0.00     0.206 C 
ATOM     79  C3  GCU d 403       9.119  27.499  -6.133  0.00  0.00     0.092 C 
ATOM     80  O3  GCU d 403      10.498  27.272  -6.463  0.00  0.00    -0.390 OA
ATOM     81  C1  GCU d 403       7.291  27.222  -4.459  0.00  0.00     0.160 C 
ATOM     82  O4  GCU d 403       8.586  27.274  -8.473  0.00  0.00    -0.348 OA
ATOM     83  O6A GCU d 403       5.498  25.285  -7.540  0.00  0.00    -0.646 OA
ATOM     84  C2  GCU d 403       8.765  26.970  -4.768  0.00  0.00     0.110 C 
ATOM     85  C4  GCU d 403       8.226  26.861  -7.184  0.00  0.00     0.103 C 
ATOM     86  O6B GCU d 403       5.250  27.192  -8.647  0.00  0.00    -0.646 OA
ATOM     87  H   GCU d 403      10.448  27.569  -3.924  0.00  0.00     0.210 HD
ATOM     88  H   GCU d 403       6.637  28.208  -7.053  0.00  0.00     0.104 H 
ATOM     89  H   GCU d 403       8.963  28.558  -6.116  0.00  0.00     0.091 H 
ATOM     90  H   GCU d 403      10.672  26.318  -6.486  0.00  0.00     0.210 HD
ATOM     91  H   GCU d 403       6.962  28.238  -4.399  0.00  0.00     0.133 H 
ATOM     92  H   GCU d 403       8.988  25.923  -4.759  0.00  0.00     0.094 H 
ATOM     93  H   GCU d 403       8.358  25.800  -7.155  0.00  0.00     0.092 H 
ENDROOT
TORSDOF 23
ENDMDL
MODEL 36
REMARK VINA RESULT:      -4.9      3.990     12.476
REMARK  0 active torsions:
REMARK  status: ('A' for Active; 'I' for Inactive)
REMARK       I    between atoms: C8_1  and  C7_27 
REMARK       I    between atoms: O6_2  and  C6_34 
REMARK       I    between atoms: O4_3  and  C4_39 
REMARK       I    between atoms: O4_4  and  C4_6 
REMARK       I    between atoms: O2_7  and  C2_37 
REMARK       I    between atoms: C7_9  and  C8_15 
REMARK       I    between atoms: C7_9  and  N2_13 
REMARK       I    between atoms: N2_10  and  C2_53 
REMARK       I    between atoms: N2_10  and  C7_27 
REMARK       I    between atoms: C6_11  and  C5_48 
REMARK       I    between atoms: C5_12  and  C6_17 
REMARK       I    between atoms: N2_13  and  C2_19 
REMARK       I    between atoms: C2_16  and  O2_42 
REMARK       I    between atoms: C3_18  and  O3_23 
REMARK       I    between atoms: O3_20  and  C1_24 
REMARK       I    between atoms: O3_20  and  C3_22 
REMARK       I    between atoms: O6_21  and  C6_28 
REMARK       I    between atoms: O4_25  and  C4_50 
REMARK       I    between atoms: O4_26  and  C1_33 
REMARK       I    between atoms: O4_26  and  C4_41 
REMARK       I    between atoms: C6_28  and  C5_43 
REMARK       I    between atoms: C5_29  and  C6_34 
REMARK       I    between atoms: O3_30  and  C3_46 
REMARK       I    between atoms: C3_31  and  O3_49 
REMARK       I    between atoms: C1_38  and  O3_49 
ROOT
ATOM      1  C8  NAG d 404       7.692  26.763 -17.971  0.00  0.00    -0.003 C 
ATOM      2  O6  NAG d 404      11.386  33.311 -18.534  0.00  0.00    -0.398 OA
ATOM      3  N2  NAG d 404       9.841  27.585 -17.207  0.00  0.00    -0.349 N 
ATOM      4  O3  NAG d 404      10.936  28.747 -14.469  0.00  0.00    -0.348 OA
ATOM      5  C3  NAG d 404      10.583  29.391 -15.647  0.00  0.00     0.093 C 
ATOM      6  O4  NAG d 404      10.995  31.609 -14.646  0.00  0.00    -0.390 OA
ATOM      7  C7  NAG d 404       8.679  27.889 -17.867  0.00  0.00     0.214 C 
ATOM      8  C5  NAG d 404      10.614  31.476 -16.996  0.00  0.00     0.089 C 
ATOM      9  C6  NAG d 404      11.100  32.892 -17.190  0.00  0.00     0.043 C 
ATOM     10  O5  NAG d 404      10.859  30.665 -18.140  0.00  0.00    -0.337 OA
ATOM     11  C1  NAG d 404      11.424  29.406 -17.942  0.00  0.00     0.283 C 
ATOM     12  O7  NAG d 404       8.449  28.996 -18.347  0.00  0.00    -0.274 OA
ATOM     13  C4  NAG d 404      11.230  30.768 -15.781  0.00  0.00     0.089 C 
ATOM     14  C2  NAG d 404      10.923  28.520 -16.848  0.00  0.00     0.102 C 
ATOM     15  H   NAG d 404       8.089  25.894 -17.488  0.00  0.00     0.040 H 
ATOM     16  H   NAG d 404       7.506  26.545 -19.002  0.00  0.00     0.040 H 
ATOM     17  H   NAG d 404       6.776  27.047 -17.495  0.00  0.00     0.040 H 
ATOM     18  H   NAG d 404      11.688  34.233 -18.527  0.00  0.00     0.209 HD
ATOM     19  H   NAG d 404       9.965  26.645 -16.944  0.00  0.00     0.163 HD
ATOM     20  H   NAG d 404       9.525  29.548 -15.614  0.00  0.00     0.091 H 
ATOM     21  H   NAG d 404      11.371  31.195 -13.854  0.00  0.00     0.210 HD
ATOM     22  H   NAG d 404       9.563  31.584 -16.830  0.00  0.00     0.090 H 
ATOM     23  H   NAG d 404      10.347  33.546 -16.803  0.00  0.00     0.078 H 
ATOM     24  H   NAG d 404      12.041  32.931 -16.684  0.00  0.00     0.078 H 
ATOM     25  H   NAG d 404      12.284  30.613 -15.875  0.00  0.00     0.091 H 
ATOM     26  H   NAG d 404      11.716  27.843 -16.612  0.00  0.00     0.085 H 
ATOM     27  O4  NAG d 402       9.506  29.199  -4.488  0.00  0.00    -0.390 OA
ATOM     28  O5  NAG d 402      10.124  28.254  -7.939  0.00  0.00    -0.349 OA
ATOM     29  C7  NAG d 402       5.758  26.598  -8.322  0.00  0.00     0.214 C 
ATOM     30  N2  NAG d 402       6.475  27.729  -8.062  0.00  0.00    -0.349 N 
ATOM     31  C8  NAG d 402       4.365  26.753  -8.908  0.00  0.00    -0.003 C 
ATOM     32  C2  NAG d 402       7.824  27.698  -7.476  0.00  0.00     0.087 C 
ATOM     33  O6  NAG d 402      12.380  27.632  -6.483  0.00  0.00    -0.398 OA
ATOM     34  C6  NAG d 402      11.783  28.922  -6.387  0.00  0.00     0.043 C 
ATOM     35  C3  NAG d 402       7.933  28.381  -6.123  0.00  0.00     0.093 C 
ATOM     36  O7  NAG d 402       6.174  25.478  -8.107  0.00  0.00    -0.274 OA
ATOM     37  C1  NAG d 402       8.809  28.325  -8.467  0.00  0.00     0.154 C 
ATOM     38  C4  NAG d 402       9.398  28.389  -5.662  0.00  0.00     0.089 C 
ATOM     39  C5  NAG d 402      10.312  28.977  -6.720  0.00  0.00     0.089 C 
ATOM     40  O3  NAG d 402       7.263  27.634  -5.137  0.00  0.00    -0.348 OA
ATOM     41  H   NAG d 402       8.929  28.842  -3.795  0.00  0.00     0.210 HD
ATOM     42  H   NAG d 402       6.073  28.602  -8.276  0.00  0.00     0.163 HD
ATOM     43  H   NAG d 402       4.147  27.792  -9.038  0.00  0.00     0.040 H 
ATOM     44  H   NAG d 402       3.648  26.318  -8.243  0.00  0.00     0.040 H 
ATOM     45  H   NAG d 402       4.320  26.258  -9.855  0.00  0.00     0.040 H 
ATOM     46  H   NAG d 402       8.059  26.670  -7.294  0.00  0.00     0.084 H 
ATOM     47  H   NAG d 402      13.321  27.694  -6.253  0.00  0.00     0.209 HD
ATOM     48  H   NAG d 402      12.298  29.576  -7.058  0.00  0.00     0.078 H 
ATOM     49  H   NAG d 402      11.865  29.212  -5.360  0.00  0.00     0.078 H 
ATOM     50  H   NAG d 402       7.525  29.364  -6.236  0.00  0.00     0.091 H 
ATOM     51  H   NAG d 402       8.600  29.362  -8.627  0.00  0.00     0.132 H 
ATOM     52  H   NAG d 402       9.692  27.378  -5.473  0.00  0.00     0.091 H 
ATOM     53  H   NAG d 402      10.045  30.010  -6.793  0.00  0.00     0.090 H 
ATOM     54  O4  GCU d 401       2.734  28.396  -2.370  0.00  0.00    -0.390 OA
ATOM     55  C4  GCU d 401       4.093  27.990  -2.564  0.00  0.00     0.097 C 
ATOM     56  C6  GCU d 401       4.995  30.346  -2.273  0.00  0.00     0.206 C 
ATOM     57  C2  GCU d 401       5.436  26.608  -4.141  0.00  0.00     0.110 C 
ATOM     58  O3  GCU d 401       3.628  25.666  -2.815  0.00  0.00    -0.390 OA
ATOM     59  C1  GCU d 401       6.058  27.894  -4.684  0.00  0.00     0.160 C 
ATOM     60  O2  GCU d 401       5.340  25.636  -5.169  0.00  0.00    -0.388 OA
ATOM     61  O6B GCU d 401       3.950  30.494  -1.605  0.00  0.00    -0.646 OA
ATOM     62  C3  GCU d 401       4.068  26.825  -3.541  0.00  0.00     0.092 C 
ATOM     63  O5  GCU d 401       6.159  28.781  -3.568  0.00  0.00    -0.340 OA
ATOM     64  C5  GCU d 401       4.859  29.176  -3.170  0.00  0.00     0.152 C 
ATOM     65  O6A GCU d 401       6.080  30.958  -2.364  0.00  0.00    -0.646 OA
ATOM     66  H   GCU d 401       2.228  27.663  -1.986  0.00  0.00     0.210 HD
ATOM     67  H   GCU d 401       4.566  27.696  -1.650  0.00  0.00     0.091 H 
ATOM     68  H   GCU d 401       6.083  26.266  -3.361  0.00  0.00     0.094 H 
ATOM     69  H   GCU d 401       2.748  25.833  -2.442  0.00  0.00     0.210 HD
ATOM     70  H   GCU d 401       5.475  28.314  -5.478  0.00  0.00     0.133 H 
ATOM     71  H   GCU d 401       4.750  25.961  -5.868  0.00  0.00     0.210 HD
ATOM     72  H   GCU d 401       3.400  27.025  -4.353  0.00  0.00     0.091 H 
ATOM     73  H   GCU d 401       4.265  29.479  -4.007  0.00  0.00     0.104 H 
ATOM     74  O4  GCU d 405      11.851  28.885 -19.112  0.00  0.00    -0.189 OA
ATOM     75  O2  GCU d 403      11.496  26.472 -13.326  0.00  0.00    -0.388 OA
ATOM     76  C5  GCU d 403       8.535  28.929 -11.727  0.00  0.00     0.152 C 
ATOM     77  O5  GCU d 403       9.305  29.275 -12.847  0.00  0.00    -0.340 OA
ATOM     78  C6  GCU d 403       7.877  30.151 -11.196  0.00  0.00     0.206 C 
ATOM     79  C3  GCU d 403      10.120  27.019 -11.445  0.00  0.00     0.092 C 
ATOM     80  O3  GCU d 403      10.892  26.261 -10.500  0.00  0.00    -0.390 OA
ATOM     81  C1  GCU d 403      10.111  28.367 -13.544  0.00  0.00     0.160 C 
ATOM     82  O4  GCU d 403       8.682  27.695  -9.633  0.00  0.00    -0.348 OA
ATOM     83  O6A GCU d 403       8.562  31.194 -11.083  0.00  0.00    -0.646 OA
ATOM     84  C2  GCU d 403      10.966  27.560 -12.568  0.00  0.00     0.110 C 
ATOM     85  C4  GCU d 403       9.412  28.160 -10.734  0.00  0.00     0.103 C 
ATOM     86  O6B GCU d 403       6.672  30.049 -10.891  0.00  0.00    -0.646 OA
ATOM     87  H   GCU d 403      12.051  25.920 -12.754  0.00  0.00     0.210 HD
ATOM     88  H   GCU d 403       7.736  28.261 -11.972  0.00  0.00     0.104 H 
ATOM     89  H   GCU d 403       9.400  26.356 -11.877  0.00  0.00     0.091 H 
ATOM     90  H   GCU d 403      11.557  26.836 -10.090  0.00  0.00     0.210 HD
ATOM     91  H   GCU d 403       9.338  27.849 -14.072  0.00  0.00     0.133 H 
ATOM     92  H   GCU d 403      11.732  28.166 -12.134  0.00  0.00     0.094 H 
ATOM     93  H   GCU d 403      10.145  28.838 -10.349  0.00  0.00     0.092 H 
ENDROOT
TORSDOF 23
ENDMDL
MODEL 37
REMARK VINA RESULT:      -4.8      3.986      4.788
REMARK  0 active torsions:
REMARK  status: ('A' for Active; 'I' for Inactive)
REMARK       I    between atoms: C8_1  and  C7_27 
REMARK       I    between atoms: O6_2  and  C6_34 
REMARK       I    between atoms: O4_3  and  C4_39 
REMARK       I    between atoms: O4_4  and  C4_6 
REMARK       I    between atoms: O2_7  and  C2_37 
REMARK       I    between atoms: C7_9  and  C8_15 
REMARK       I    between atoms: C7_9  and  N2_13 
REMARK       I    between atoms: N2_10  and  C2_53 
REMARK       I    between atoms: N2_10  and  C7_27 
REMARK       I    between atoms: C6_11  and  C5_48 
REMARK       I    between atoms: C5_12  and  C6_17 
REMARK       I    between atoms: N2_13  and  C2_19 
REMARK       I    between atoms: C2_16  and  O2_42 
REMARK       I    between atoms: C3_18  and  O3_23 
REMARK       I    between atoms: O3_20  and  C1_24 
REMARK       I    between atoms: O3_20  and  C3_22 
REMARK       I    between atoms: O6_21  and  C6_28 
REMARK       I    between atoms: O4_25  and  C4_50 
REMARK       I    between atoms: O4_26  and  C1_33 
REMARK       I    between atoms: O4_26  and  C4_41 
REMARK       I    between atoms: C6_28  and  C5_43 
REMARK       I    between atoms: C5_29  and  C6_34 
REMARK       I    between atoms: O3_30  and  C3_46 
REMARK       I    between atoms: C3_31  and  O3_49 
REMARK       I    between atoms: C1_38  and  O3_49 
ROOT
ATOM      1  C8  NAG d 404       5.195  30.563  -0.000  0.00  0.00    -0.003 C 
ATOM      2  O6  NAG d 404       1.695  24.231  -2.121  0.00  0.00    -0.398 OA
ATOM      3  N2  NAG d 404       5.923  28.352  -0.680  0.00  0.00    -0.349 N 
ATOM      4  O3  NAG d 404       6.966  27.087  -3.392  0.00  0.00    -0.348 OA
ATOM      5  C3  NAG d 404       5.728  26.999  -2.772  0.00  0.00     0.093 C 
ATOM      6  O4  NAG d 404       4.795  25.699  -4.651  0.00  0.00    -0.390 OA
ATOM      7  C7  NAG d 404       4.850  29.180  -0.474  0.00  0.00     0.214 C 
ATOM      8  C5  NAG d 404       3.507  25.893  -2.654  0.00  0.00     0.089 C 
ATOM      9  C6  NAG d 404       2.576  24.794  -3.106  0.00  0.00     0.043 C 
ATOM     10  O5  NAG d 404       3.616  25.951  -1.235  0.00  0.00    -0.337 OA
ATOM     11  C1  NAG d 404       4.891  26.051  -0.680  0.00  0.00     0.283 C 
ATOM     12  O7  NAG d 404       3.687  28.832  -0.655  0.00  0.00    -0.274 OA
ATOM     13  C4  NAG d 404       4.926  25.780  -3.228  0.00  0.00     0.089 C 
ATOM     14  C2  NAG d 404       5.892  26.996  -1.258  0.00  0.00     0.102 C 
ATOM     15  H   NAG d 404       6.257  30.654   0.091  0.00  0.00     0.040 H 
ATOM     16  H   NAG d 404       4.739  30.738   0.952  0.00  0.00     0.040 H 
ATOM     17  H   NAG d 404       4.835  31.281  -0.706  0.00  0.00     0.040 H 
ATOM     18  H   NAG d 404       1.152  23.540  -2.531  0.00  0.00     0.209 HD
ATOM     19  H   NAG d 404       6.805  28.699  -0.415  0.00  0.00     0.163 HD
ATOM     20  H   NAG d 404       5.168  27.863  -3.064  0.00  0.00     0.091 H 
ATOM     21  H   NAG d 404       5.675  25.626  -5.053  0.00  0.00     0.210 HD
ATOM     22  H   NAG d 404       3.056  26.785  -3.034  0.00  0.00     0.090 H 
ATOM     23  H   NAG d 404       1.969  25.190  -3.892  0.00  0.00     0.078 H 
ATOM     24  H   NAG d 404       3.220  23.988  -3.391  0.00  0.00     0.078 H 
ATOM     25  H   NAG d 404       5.451  24.913  -2.885  0.00  0.00     0.091 H 
ATOM     26  H   NAG d 404       6.858  26.629  -0.984  0.00  0.00     0.085 H 
ATOM     27  O4  NAG d 402      11.194  29.006 -12.353  0.00  0.00    -0.390 OA
ATOM     28  O5  NAG d 402      10.367  28.597  -8.841  0.00  0.00    -0.349 OA
ATOM     29  C7  NAG d 402       9.485  33.183  -8.461  0.00  0.00     0.214 C 
ATOM     30  N2  NAG d 402       9.100  32.050  -9.118  0.00  0.00    -0.349 N 
ATOM     31  C8  NAG d 402       8.461  34.290  -8.285  0.00  0.00    -0.003 C 
ATOM     32  C2  NAG d 402      10.015  30.924  -9.364  0.00  0.00     0.087 C 
ATOM     33  O6  NAG d 402      12.562  27.017  -9.374  0.00  0.00    -0.398 OA
ATOM     34  C6  NAG d 402      11.403  26.958 -10.201  0.00  0.00     0.043 C 
ATOM     35  C3  NAG d 402      10.263  30.630 -10.833  0.00  0.00     0.093 C 
ATOM     36  O7  NAG d 402      10.602  33.351  -8.015  0.00  0.00    -0.274 OA
ATOM     37  C1  NAG d 402       9.468  29.679  -8.659  0.00  0.00     0.154 C 
ATOM     38  C4  NAG d 402      11.134  29.373 -10.972  0.00  0.00     0.089 C 
ATOM     39  C5  NAG d 402      10.550  28.203 -10.203  0.00  0.00     0.089 C 
ATOM     40  O3  NAG d 402      11.033  31.652 -11.419  0.00  0.00    -0.348 OA
ATOM     41  H   NAG d 402      11.566  29.739 -12.866  0.00  0.00     0.210 HD
ATOM     42  H   NAG d 402       8.172  31.984  -9.440  0.00  0.00     0.163 HD
ATOM     43  H   NAG d 402       7.534  33.992  -8.729  0.00  0.00     0.040 H 
ATOM     44  H   NAG d 402       8.814  35.182  -8.761  0.00  0.00     0.040 H 
ATOM     45  H   NAG d 402       8.313  34.476  -7.242  0.00  0.00     0.040 H 
ATOM     46  H   NAG d 402      10.967  31.207  -8.967  0.00  0.00     0.084 H 
ATOM     47  H   NAG d 402      13.046  26.179  -9.435  0.00  0.00     0.209 HD
ATOM     48  H   NAG d 402      10.798  26.143  -9.864  0.00  0.00     0.078 H 
ATOM     49  H   NAG d 402      11.759  26.841 -11.203  0.00  0.00     0.078 H 
ATOM     50  H   NAG d 402       9.304  30.527 -11.297  0.00  0.00     0.091 H 
ATOM     51  H   NAG d 402       8.531  29.372  -9.075  0.00  0.00     0.132 H 
ATOM     52  H   NAG d 402      12.104  29.596 -10.579  0.00  0.00     0.091 H 
ATOM     53  H   NAG d 402       9.635  27.956 -10.701  0.00  0.00     0.090 H 
ATOM     54  O4  GCU d 401       9.937  35.539 -14.946  0.00  0.00    -0.390 OA
ATOM     55  C4  GCU d 401      10.727  34.510 -14.341  0.00  0.00     0.097 C 
ATOM     56  C6  GCU d 401       9.538  32.652 -15.598  0.00  0.00     0.206 C 
ATOM     57  C2  GCU d 401      11.509  33.825 -12.078  0.00  0.00     0.110 C 
ATOM     58  O3  GCU d 401      12.103  35.971 -13.055  0.00  0.00    -0.390 OA
ATOM     59  C1  GCU d 401      10.552  32.635 -12.145  0.00  0.00     0.160 C 
ATOM     60  O2  GCU d 401      11.648  34.269 -10.738  0.00  0.00    -0.388 OA
ATOM     61  O6B GCU d 401       9.321  33.564 -16.424  0.00  0.00    -0.646 OA
ATOM     62  C3  GCU d 401      11.065  34.985 -12.936  0.00  0.00     0.092 C 
ATOM     63  O5  GCU d 401      10.523  32.234 -13.516  0.00  0.00    -0.340 OA
ATOM     64  C5  GCU d 401       9.873  33.234 -14.279  0.00  0.00     0.152 C 
ATOM     65  O6A GCU d 401       9.513  31.403 -15.634  0.00  0.00    -0.646 OA
ATOM     66  H   GCU d 401      10.456  36.357 -14.997  0.00  0.00     0.210 HD
ATOM     67  H   GCU d 401      11.623  34.307 -14.888  0.00  0.00     0.091 H 
ATOM     68  H   GCU d 401      12.447  33.479 -12.458  0.00  0.00     0.094 H 
ATOM     69  H   GCU d 401      11.791  36.703 -13.611  0.00  0.00     0.210 HD
ATOM     70  H   GCU d 401       9.577  32.887 -11.781  0.00  0.00     0.133 H 
ATOM     71  H   GCU d 401      10.790  34.579 -10.409  0.00  0.00     0.210 HD
ATOM     72  H   GCU d 401      10.206  35.411 -12.462  0.00  0.00     0.091 H 
ATOM     73  H   GCU d 401       8.957  33.546 -13.823  0.00  0.00     0.104 H 
ATOM     74  O4  GCU d 405       4.852  25.813   0.648  0.00  0.00    -0.189 OA
ATOM     75  O2  GCU d 403       9.477  27.741  -3.136  0.00  0.00    -0.388 OA
ATOM     76  C5  GCU d 403       7.211  29.360  -6.235  0.00  0.00     0.152 C 
ATOM     77  O5  GCU d 403       6.711  28.424  -5.319  0.00  0.00    -0.340 OA
ATOM     78  C6  GCU d 403       6.302  29.424  -7.409  0.00  0.00     0.206 C 
ATOM     79  C3  GCU d 403       9.453  28.866  -5.249  0.00  0.00     0.092 C 
ATOM     80  O3  GCU d 403      10.836  28.616  -5.540  0.00  0.00    -0.390 OA
ATOM     81  C1  GCU d 403       7.368  28.070  -4.134  0.00  0.00     0.160 C 
ATOM     82  O4  GCU d 403       9.270  29.982  -7.377  0.00  0.00    -0.348 OA
ATOM     83  O6A GCU d 403       5.892  28.347  -7.902  0.00  0.00    -0.646 OA
ATOM     84  C2  GCU d 403       8.840  27.773  -4.413  0.00  0.00     0.110 C 
ATOM     85  C4  GCU d 403       8.674  29.026  -6.544  0.00  0.00     0.103 C 
ATOM     86  O6B GCU d 403       6.011  30.561  -7.830  0.00  0.00    -0.646 OA
ATOM     87  H   GCU d 403      10.422  27.555  -3.250  0.00  0.00     0.210 HD
ATOM     88  H   GCU d 403       7.227  30.353  -5.836  0.00  0.00     0.104 H 
ATOM     89  H   GCU d 403       9.402  29.770  -4.679  0.00  0.00     0.091 H 
ATOM     90  H   GCU d 403      10.916  27.799  -6.057  0.00  0.00     0.210 HD
ATOM     91  H   GCU d 403       7.137  28.946  -3.564  0.00  0.00     0.133 H 
ATOM     92  H   GCU d 403       8.953  26.853  -4.949  0.00  0.00     0.094 H 
ATOM     93  H   GCU d 403       8.694  28.100  -7.079  0.00  0.00     0.092 H 
ENDROOT
TORSDOF 23
ENDMDL
MODEL 38
REMARK VINA RESULT:      -4.8      3.761     12.561
REMARK  0 active torsions:
REMARK  status: ('A' for Active; 'I' for Inactive)
REMARK       I    between atoms: C8_1  and  C7_27 
REMARK       I    between atoms: O6_2  and  C6_34 
REMARK       I    between atoms: O4_3  and  C4_39 
REMARK       I    between atoms: O4_4  and  C4_6 
REMARK       I    between atoms: O2_7  and  C2_37 
REMARK       I    between atoms: C7_9  and  C8_15 
REMARK       I    between atoms: C7_9  and  N2_13 
REMARK       I    between atoms: N2_10  and  C2_53 
REMARK       I    between atoms: N2_10  and  C7_27 
REMARK       I    between atoms: C6_11  and  C5_48 
REMARK       I    between atoms: C5_12  and  C6_17 
REMARK       I    between atoms: N2_13  and  C2_19 
REMARK       I    between atoms: C2_16  and  O2_42 
REMARK       I    between atoms: C3_18  and  O3_23 
REMARK       I    between atoms: O3_20  and  C1_24 
REMARK       I    between atoms: O3_20  and  C3_22 
REMARK       I    between atoms: O6_21  and  C6_28 
REMARK       I    between atoms: O4_25  and  C4_50 
REMARK       I    between atoms: O4_26  and  C1_33 
REMARK       I    between atoms: O4_26  and  C4_41 
REMARK       I    between atoms: C6_28  and  C5_43 
REMARK       I    between atoms: C5_29  and  C6_34 
REMARK       I    between atoms: O3_30  and  C3_46 
REMARK       I    between atoms: C3_31  and  O3_49 
REMARK       I    between atoms: C1_38  and  O3_49 
ROOT
ATOM      1  C8  NAG d 404       9.317  28.971 -18.578  0.00  0.00    -0.003 C 
ATOM      2  O6  NAG d 404      10.525  36.409 -18.364  0.00  0.00    -0.398 OA
ATOM      3  N2  NAG d 404      10.968  30.406 -17.533  0.00  0.00    -0.349 N 
ATOM      4  O3  NAG d 404      11.344  31.621 -14.629  0.00  0.00    -0.348 OA
ATOM      5  C3  NAG d 404      10.893  32.208 -15.803  0.00  0.00     0.093 C 
ATOM      6  O4  NAG d 404      10.415  34.333 -14.643  0.00  0.00    -0.390 OA
ATOM      7  C7  NAG d 404       9.836  30.353 -18.302  0.00  0.00     0.214 C 
ATOM      8  C5  NAG d 404      10.311  34.290 -17.025  0.00  0.00     0.089 C 
ATOM      9  C6  NAG d 404      10.287  35.798 -17.086  0.00  0.00     0.043 C 
ATOM     10  O5  NAG d 404      10.923  33.719 -18.177  0.00  0.00    -0.337 OA
ATOM     11  C1  NAG d 404      11.873  32.717 -17.984  0.00  0.00     0.283 C 
ATOM     12  O7  NAG d 404       9.276  31.352 -18.745  0.00  0.00    -0.274 OA
ATOM     13  C4  NAG d 404      11.027  33.730 -15.788  0.00  0.00     0.089 C 
ATOM     14  C2  NAG d 404      11.620  31.618 -17.004  0.00  0.00     0.102 C 
ATOM     15  H   NAG d 404       9.950  28.251 -18.102  0.00  0.00     0.040 H 
ATOM     16  H   NAG d 404       9.311  28.796 -19.634  0.00  0.00     0.040 H 
ATOM     17  H   NAG d 404       8.323  28.880 -18.195  0.00  0.00     0.040 H 
ATOM     18  H   NAG d 404      10.484  37.374 -18.273  0.00  0.00     0.209 HD
ATOM     19  H   NAG d 404      11.390  29.545 -17.309  0.00  0.00     0.163 HD
ATOM     20  H   NAG d 404       9.848  31.991 -15.882  0.00  0.00     0.091 H 
ATOM     21  H   NAG d 404      10.841  34.004 -13.837  0.00  0.00     0.210 HD
ATOM     22  H   NAG d 404       9.278  34.018 -16.974  0.00  0.00     0.090 H 
ATOM     23  H   NAG d 404       9.322  36.118 -16.752  0.00  0.00     0.078 H 
ATOM     24  H   NAG d 404      11.107  36.112 -16.475  0.00  0.00     0.078 H 
ATOM     25  H   NAG d 404      12.073  33.953 -15.771  0.00  0.00     0.091 H 
ATOM     26  H   NAG d 404      12.576  31.235 -16.716  0.00  0.00     0.085 H 
ATOM     27  O4  NAG d 402       8.981  30.655  -4.865  0.00  0.00    -0.390 OA
ATOM     28  O5  NAG d 402      10.189  30.293  -8.270  0.00  0.00    -0.349 OA
ATOM     29  C7  NAG d 402       6.729  27.286  -9.234  0.00  0.00     0.214 C 
ATOM     30  N2  NAG d 402       6.979  28.566  -8.834  0.00  0.00    -0.349 N 
ATOM     31  C8  NAG d 402       5.426  27.008  -9.964  0.00  0.00    -0.003 C 
ATOM     32  C2  NAG d 402       8.197  28.945  -8.101  0.00  0.00     0.087 C 
ATOM     33  O6  NAG d 402      12.384  30.352  -6.603  0.00  0.00    -0.398 OA
ATOM     34  C6  NAG d 402      11.368  31.346  -6.506  0.00  0.00     0.043 C 
ATOM     35  C3  NAG d 402       7.943  29.500  -6.709  0.00  0.00     0.093 C 
ATOM     36  O7  NAG d 402       7.489  26.361  -9.034  0.00  0.00    -0.274 OA
ATOM     37  C1  NAG d 402       8.984  29.958  -8.938  0.00  0.00     0.154 C 
ATOM     38  C4  NAG d 402       9.266  29.966  -6.085  0.00  0.00     0.089 C 
ATOM     39  C5  NAG d 402      10.005  30.924  -7.000  0.00  0.00     0.089 C 
ATOM     40  O3  NAG d 402       7.493  28.483  -5.847  0.00  0.00    -0.348 OA
ATOM     41  H   NAG d 402       8.508  30.062  -4.262  0.00  0.00     0.210 HD
ATOM     42  H   NAG d 402       6.318  29.264  -9.044  0.00  0.00     0.163 HD
ATOM     43  H   NAG d 402       4.871  27.917 -10.062  0.00  0.00     0.040 H 
ATOM     44  H   NAG d 402       4.851  26.296  -9.409  0.00  0.00     0.040 H 
ATOM     45  H   NAG d 402       5.640  26.615 -10.936  0.00  0.00     0.040 H 
ATOM     46  H   NAG d 402       8.760  28.048  -7.950  0.00  0.00     0.084 H 
ATOM     47  H   NAG d 402      13.220  30.711  -6.265  0.00  0.00     0.209 HD
ATOM     48  H   NAG d 402      11.679  32.195  -7.078  0.00  0.00     0.078 H 
ATOM     49  H   NAG d 402      11.254  31.552  -5.462  0.00  0.00     0.078 H 
ATOM     50  H   NAG d 402       7.228  30.289  -6.814  0.00  0.00     0.091 H 
ATOM     51  H   NAG d 402       8.440  30.871  -9.064  0.00  0.00     0.132 H 
ATOM     52  H   NAG d 402       9.877  29.104  -5.919  0.00  0.00     0.091 H 
ATOM     53  H   NAG d 402       9.401  31.806  -7.047  0.00  0.00     0.090 H 
ATOM     54  O4  GCU d 401       2.759  27.398  -3.573  0.00  0.00    -0.390 OA
ATOM     55  C4  GCU d 401       4.186  27.500  -3.634  0.00  0.00     0.097 C 
ATOM     56  C6  GCU d 401       4.179  29.986  -3.116  0.00  0.00     0.206 C 
ATOM     57  C2  GCU d 401       6.059  26.809  -5.121  0.00  0.00     0.110 C 
ATOM     58  O3  GCU d 401       4.586  25.190  -4.062  0.00  0.00    -0.390 OA
ATOM     59  C1  GCU d 401       6.238  28.273  -5.520  0.00  0.00     0.160 C 
ATOM     60  O2  GCU d 401       6.399  25.959  -6.205  0.00  0.00    -0.388 OA
ATOM     61  O6B GCU d 401       3.094  29.707  -2.563  0.00  0.00    -0.646 OA
ATOM     62  C3  GCU d 401       4.655  26.490  -4.670  0.00  0.00     0.092 C 
ATOM     63  O5  GCU d 401       5.925  29.037  -4.354  0.00  0.00    -0.340 OA
ATOM     64  C5  GCU d 401       4.539  28.926  -4.084  0.00  0.00     0.152 C 
ATOM     65  O6A GCU d 401       4.986  30.937  -3.050  0.00  0.00    -0.646 OA
ATOM     66  H   GCU d 401       2.511  26.504  -3.290  0.00  0.00     0.210 HD
ATOM     67  H   GCU d 401       4.650  27.304  -2.690  0.00  0.00     0.091 H 
ATOM     68  H   GCU d 401       6.714  26.640  -4.293  0.00  0.00     0.094 H 
ATOM     69  H   GCU d 401       3.674  25.012  -3.782  0.00  0.00     0.210 HD
ATOM     70  H   GCU d 401       5.617  28.538  -6.351  0.00  0.00     0.133 H 
ATOM     71  H   GCU d 401       5.797  26.124  -6.947  0.00  0.00     0.210 HD
ATOM     72  H   GCU d 401       4.033  26.522  -5.540  0.00  0.00     0.091 H 
ATOM     73  H   GCU d 401       3.952  29.082  -4.965  0.00  0.00     0.104 H 
ATOM     74  O4  GCU d 405      12.555  32.481 -19.125  0.00  0.00    -0.189 OA
ATOM     75  O2  GCU d 403      12.562  29.581 -13.556  0.00  0.00    -0.388 OA
ATOM     76  C5  GCU d 403       8.802  30.723 -12.172  0.00  0.00     0.152 C 
ATOM     77  O5  GCU d 403       9.497  31.410 -13.177  0.00  0.00    -0.340 OA
ATOM     78  C6  GCU d 403       7.714  31.593 -11.653  0.00  0.00     0.206 C 
ATOM     79  C3  GCU d 403      10.924  29.453 -11.815  0.00  0.00     0.092 C 
ATOM     80  O3  GCU d 403      11.826  28.923 -10.832  0.00  0.00    -0.390 OA
ATOM     81  C1  GCU d 403      10.628  30.899 -13.826  0.00  0.00     0.160 C 
ATOM     82  O4  GCU d 403       9.187  29.430 -10.144  0.00  0.00    -0.348 OA
ATOM     83  O6A GCU d 403       7.979  32.793 -11.406  0.00  0.00    -0.646 OA
ATOM     84  C2  GCU d 403      11.621  30.349 -12.804  0.00  0.00     0.110 C 
ATOM     85  C4  GCU d 403       9.802  30.214 -11.128  0.00  0.00     0.103 C 
ATOM     86  O6B GCU d 403       6.599  31.058 -11.492  0.00  0.00    -0.646 OA
ATOM     87  H   GCU d 403      13.223  29.203 -12.955  0.00  0.00     0.210 HD
ATOM     88  H   GCU d 403       8.311  29.847 -12.541  0.00  0.00     0.104 H 
ATOM     89  H   GCU d 403      10.521  28.625 -12.361  0.00  0.00     0.091 H 
ATOM     90  H   GCU d 403      12.209  29.651 -10.319  0.00  0.00     0.210 HD
ATOM     91  H   GCU d 403      10.133  30.199 -14.465  0.00  0.00     0.133 H 
ATOM     92  H   GCU d 403      12.087  31.139 -12.254  0.00  0.00     0.094 H 
ATOM     93  H   GCU d 403      10.215  31.064 -10.627  0.00  0.00     0.092 H 
ENDROOT
TORSDOF 23
ENDMDL
MODEL 39
REMARK VINA RESULT:      -4.8      3.791      4.588
REMARK  0 active torsions:
REMARK  status: ('A' for Active; 'I' for Inactive)
REMARK       I    between atoms: C8_1  and  C7_27 
REMARK       I    between atoms: O6_2  and  C6_34 
REMARK       I    between atoms: O4_3  and  C4_39 
REMARK       I    between atoms: O4_4  and  C4_6 
REMARK       I    between atoms: O2_7  and  C2_37 
REMARK       I    between atoms: C7_9  and  C8_15 
REMARK       I    between atoms: C7_9  and  N2_13 
REMARK       I    between atoms: N2_10  and  C2_53 
REMARK       I    between atoms: N2_10  and  C7_27 
REMARK       I    between atoms: C6_11  and  C5_48 
REMARK       I    between atoms: C5_12  and  C6_17 
REMARK       I    between atoms: N2_13  and  C2_19 
REMARK       I    between atoms: C2_16  and  O2_42 
REMARK       I    between atoms: C3_18  and  O3_23 
REMARK       I    between atoms: O3_20  and  C1_24 
REMARK       I    between atoms: O3_20  and  C3_22 
REMARK       I    between atoms: O6_21  and  C6_28 
REMARK       I    between atoms: O4_25  and  C4_50 
REMARK       I    between atoms: O4_26  and  C1_33 
REMARK       I    between atoms: O4_26  and  C4_41 
REMARK       I    between atoms: C6_28  and  C5_43 
REMARK       I    between atoms: C5_29  and  C6_34 
REMARK       I    between atoms: O3_30  and  C3_46 
REMARK       I    between atoms: C3_31  and  O3_49 
REMARK       I    between atoms: C1_38  and  O3_49 
ROOT
ATOM      1  C8  NAG d 404       4.962  31.313  -2.075  0.00  0.00    -0.003 C 
ATOM      2  O6  NAG d 404       2.011  24.378  -1.889  0.00  0.00    -0.398 OA
ATOM      3  N2  NAG d 404       5.874  29.067  -2.017  0.00  0.00    -0.349 N 
ATOM      4  O3  NAG d 404       7.010  27.067  -4.198  0.00  0.00    -0.348 OA
ATOM      5  C3  NAG d 404       5.787  27.090  -3.542  0.00  0.00     0.093 C 
ATOM      6  O4  NAG d 404       4.961  25.174  -4.861  0.00  0.00    -0.390 OA
ATOM      7  C7  NAG d 404       4.736  29.829  -2.058  0.00  0.00     0.214 C 
ATOM      8  C5  NAG d 404       3.670  25.911  -2.997  0.00  0.00     0.089 C 
ATOM      9  C6  NAG d 404       2.835  24.654  -3.032  0.00  0.00     0.043 C 
ATOM     10  O5  NAG d 404       3.781  26.441  -1.679  0.00  0.00    -0.337 OA
ATOM     11  C1  NAG d 404       5.045  26.819  -1.229  0.00  0.00     0.283 C 
ATOM     12  O7  NAG d 404       3.606  29.348  -2.077  0.00  0.00    -0.274 OA
ATOM     13  C4  NAG d 404       5.091  25.730  -3.548  0.00  0.00     0.089 C 
ATOM     14  C2  NAG d 404       5.958  27.599  -2.118  0.00  0.00     0.102 C 
ATOM     15  H   NAG d 404       6.013  31.514  -2.054  0.00  0.00     0.040 H 
ATOM     16  H   NAG d 404       4.498  31.754  -1.217  0.00  0.00     0.040 H 
ATOM     17  H   NAG d 404       4.538  31.728  -2.965  0.00  0.00     0.040 H 
ATOM     18  H   NAG d 404       1.527  23.549  -2.033  0.00  0.00     0.209 HD
ATOM     19  H   NAG d 404       6.725  29.551  -1.908  0.00  0.00     0.163 HD
ATOM     20  H   NAG d 404       5.153  27.763  -4.083  0.00  0.00     0.091 H 
ATOM     21  H   NAG d 404       5.841  25.044  -5.246  0.00  0.00     0.210 HD
ATOM     22  H   NAG d 404       3.142  26.590  -3.632  0.00  0.00     0.090 H 
ATOM     23  H   NAG d 404       2.192  24.719  -3.885  0.00  0.00     0.078 H 
ATOM     24  H   NAG d 404       3.545  23.854  -3.059  0.00  0.00     0.078 H 
ATOM     25  H   NAG d 404       5.690  25.068  -2.957  0.00  0.00     0.091 H 
ATOM     26  H   NAG d 404       6.954  27.420  -1.770  0.00  0.00     0.085 H 
ATOM     27  O4  NAG d 402      11.014  26.263 -13.427  0.00  0.00    -0.390 OA
ATOM     28  O5  NAG d 402      10.241  26.967  -9.950  0.00  0.00    -0.349 OA
ATOM     29  C7  NAG d 402       8.970  31.337 -11.063  0.00  0.00     0.214 C 
ATOM     30  N2  NAG d 402       8.680  30.025 -11.300  0.00  0.00    -0.349 N 
ATOM     31  C8  NAG d 402       7.854  32.355 -11.226  0.00  0.00    -0.003 C 
ATOM     32  C2  NAG d 402       9.688  28.957 -11.194  0.00  0.00     0.087 C 
ATOM     33  O6  NAG d 402      12.562  25.481 -10.008  0.00  0.00    -0.398 OA
ATOM     34  C6  NAG d 402      11.408  25.061 -10.731  0.00  0.00     0.043 C 
ATOM     35  C3  NAG d 402       9.953  28.216 -12.493  0.00  0.00     0.093 C 
ATOM     36  O7  NAG d 402      10.070  31.731 -10.734  0.00  0.00    -0.274 OA
ATOM     37  C1  NAG d 402       9.253  27.974 -10.103  0.00  0.00     0.154 C 
ATOM     38  C4  NAG d 402      10.929  27.058 -12.241  0.00  0.00     0.089 C 
ATOM     39  C5  NAG d 402      10.451  26.163 -11.113  0.00  0.00     0.089 C 
ATOM     40  O3  NAG d 402      10.629  29.047 -13.406  0.00  0.00    -0.348 OA
ATOM     41  H   NAG d 402      11.318  26.814 -14.164  0.00  0.00     0.210 HD
ATOM     42  H   NAG d 402       7.761  29.782 -11.552  0.00  0.00     0.163 HD
ATOM     43  H   NAG d 402       6.955  31.855 -11.517  0.00  0.00     0.040 H 
ATOM     44  H   NAG d 402       8.127  33.066 -11.978  0.00  0.00     0.040 H 
ATOM     45  H   NAG d 402       7.697  32.861 -10.297  0.00  0.00     0.040 H 
ATOM     46  H   NAG d 402      10.614  29.430 -10.942  0.00  0.00     0.084 H 
ATOM     47  H   NAG d 402      13.116  24.710  -9.807  0.00  0.00     0.209 HD
ATOM     48  H   NAG d 402      10.877  24.356 -10.126  0.00  0.00     0.078 H 
ATOM     49  H   NAG d 402      11.769  24.649 -11.651  0.00  0.00     0.078 H 
ATOM     50  H   NAG d 402       9.004  27.891 -12.866  0.00  0.00     0.091 H 
ATOM     51  H   NAG d 402       8.345  27.473 -10.364  0.00  0.00     0.132 H 
ATOM     52  H   NAG d 402      11.877  27.474 -11.975  0.00  0.00     0.091 H 
ATOM     53  H   NAG d 402       9.559  25.694 -11.472  0.00  0.00     0.090 H 
ATOM     54  O4  GCU d 401       9.186  31.457 -17.973  0.00  0.00    -0.390 OA
ATOM     55  C4  GCU d 401      10.065  30.751 -17.091  0.00  0.00     0.097 C 
ATOM     56  C6  GCU d 401       9.034  28.493 -17.631  0.00  0.00     0.206 C 
ATOM     57  C2  GCU d 401      10.913  30.913 -14.756  0.00  0.00     0.110 C 
ATOM     58  O3  GCU d 401      11.316  32.658 -16.400  0.00  0.00    -0.390 OA
ATOM     59  C1  GCU d 401      10.062  29.695 -14.398  0.00  0.00     0.160 C 
ATOM     60  O2  GCU d 401      11.020  31.783 -13.640  0.00  0.00    -0.388 OA
ATOM     61  O6B GCU d 401       8.735  29.063 -18.702  0.00  0.00    -0.646 OA
ATOM     62  C3  GCU d 401      10.367  31.686 -15.931  0.00  0.00     0.092 C 
ATOM     63  O5  GCU d 401      10.062  28.864 -15.560  0.00  0.00    -0.340 OA
ATOM     64  C5  GCU d 401       9.324  29.502 -16.587  0.00  0.00     0.152 C 
ATOM     65  O6A GCU d 401       9.117  27.305 -17.255  0.00  0.00    -0.646 OA
ATOM     66  H   GCU d 401       9.632  32.251 -18.306  0.00  0.00     0.210 HD
ATOM     67  H   GCU d 401      10.972  30.451 -17.571  0.00  0.00     0.091 H 
ATOM     68  H   GCU d 401      11.876  30.537 -15.032  0.00  0.00     0.094 H 
ATOM     69  H   GCU d 401      10.939  33.139 -17.154  0.00  0.00     0.210 HD
ATOM     70  H   GCU d 401       9.071  29.974 -14.104  0.00  0.00     0.133 H 
ATOM     71  H   GCU d 401      10.140  32.114 -13.403  0.00  0.00     0.210 HD
ATOM     72  H   GCU d 401       9.477  32.175 -15.595  0.00  0.00     0.091 H 
ATOM     73  H   GCU d 401       8.387  29.873 -16.228  0.00  0.00     0.104 H 
ATOM     74  O4  GCU d 405       5.033  27.029   0.104  0.00  0.00    -0.189 OA
ATOM     75  O2  GCU d 403       9.456  27.968  -4.252  0.00  0.00    -0.388 OA
ATOM     76  C5  GCU d 403       7.044  28.291  -7.635  0.00  0.00     0.152 C 
ATOM     77  O5  GCU d 403       6.631  27.671  -6.447  0.00  0.00    -0.340 OA
ATOM     78  C6  GCU d 403       6.127  27.892  -8.734  0.00  0.00     0.206 C 
ATOM     79  C3  GCU d 403       9.325  28.329  -6.615  0.00  0.00     0.092 C 
ATOM     80  O3  GCU d 403      10.723  28.109  -6.854  0.00  0.00    -0.390 OA
ATOM     81  C1  GCU d 403       7.322  27.781  -5.234  0.00  0.00     0.160 C 
ATOM     82  O4  GCU d 403       9.037  28.664  -8.985  0.00  0.00    -0.348 OA
ATOM     83  O6A GCU d 403       5.809  26.683  -8.834  0.00  0.00    -0.646 OA
ATOM     84  C2  GCU d 403       8.813  27.527  -5.448  0.00  0.00     0.110 C 
ATOM     85  C4  GCU d 403       8.529  27.992  -7.865  0.00  0.00     0.103 C 
ATOM     86  O6B GCU d 403       5.738  28.801  -9.494  0.00  0.00    -0.646 OA
ATOM     87  H   GCU d 403      10.413  27.830  -4.331  0.00  0.00     0.210 HD
ATOM     88  H   GCU d 403       6.977  29.357  -7.584  0.00  0.00     0.104 H 
ATOM     89  H   GCU d 403       9.200  29.364  -6.371  0.00  0.00     0.091 H 
ATOM     90  H   GCU d 403      10.870  27.176  -7.078  0.00  0.00     0.210 HD
ATOM     91  H   GCU d 403       7.019  28.774  -4.975  0.00  0.00     0.133 H 
ATOM     92  H   GCU d 403       9.002  26.494  -5.657  0.00  0.00     0.094 H 
ATOM     93  H   GCU d 403       8.627  26.946  -8.068  0.00  0.00     0.092 H 
ENDROOT
TORSDOF 23
ENDMDL
MODEL 40
REMARK VINA RESULT:      -4.8      3.196     12.628
REMARK  0 active torsions:
REMARK  status: ('A' for Active; 'I' for Inactive)
REMARK       I    between atoms: C8_1  and  C7_27 
REMARK       I    between atoms: O6_2  and  C6_34 
REMARK       I    between atoms: O4_3  and  C4_39 
REMARK       I    between atoms: O4_4  and  C4_6 
REMARK       I    between atoms: O2_7  and  C2_37 
REMARK       I    between atoms: C7_9  and  C8_15 
REMARK       I    between atoms: C7_9  and  N2_13 
REMARK       I    between atoms: N2_10  and  C2_53 
REMARK       I    between atoms: N2_10  and  C7_27 
REMARK       I    between atoms: C6_11  and  C5_48 
REMARK       I    between atoms: C5_12  and  C6_17 
REMARK       I    between atoms: N2_13  and  C2_19 
REMARK       I    between atoms: C2_16  and  O2_42 
REMARK       I    between atoms: C3_18  and  O3_23 
REMARK       I    between atoms: O3_20  and  C1_24 
REMARK       I    between atoms: O3_20  and  C3_22 
REMARK       I    between atoms: O6_21  and  C6_28 
REMARK       I    between atoms: O4_25  and  C4_50 
REMARK       I    between atoms: O4_26  and  C1_33 
REMARK       I    between atoms: O4_26  and  C4_41 
REMARK       I    between atoms: C6_28  and  C5_43 
REMARK       I    between atoms: C5_29  and  C6_34 
REMARK       I    between atoms: O3_30  and  C3_46 
REMARK       I    between atoms: C3_31  and  O3_49 
REMARK       I    between atoms: C1_38  and  O3_49 
ROOT
ATOM      1  C8  NAG d 404      10.519  24.114 -11.847  0.00  0.00    -0.003 C 
ATOM      2  O6  NAG d 404       9.593  30.813 -15.179  0.00  0.00    -0.398 OA
ATOM      3  N2  NAG d 404      10.886  26.417 -11.187  0.00  0.00    -0.349 N 
ATOM      4  O3  NAG d 404       9.245  28.540  -9.499  0.00  0.00    -0.348 OA
ATOM      5  C3  NAG d 404       9.419  28.415 -10.871  0.00  0.00     0.093 C 
ATOM      6  O4  NAG d 404       7.880  30.294 -11.311  0.00  0.00    -0.390 OA
ATOM      7  C7  NAG d 404      10.445  25.577 -12.175  0.00  0.00     0.214 C 
ATOM      8  C5  NAG d 404       9.163  29.427 -13.124  0.00  0.00     0.089 C 
ATOM      9  C6  NAG d 404       8.823  30.621 -13.982  0.00  0.00     0.043 C 
ATOM     10  O5  NAG d 404      10.435  28.878 -13.453  0.00  0.00    -0.337 OA
ATOM     11  C1  NAG d 404      11.311  28.583 -12.409  0.00  0.00     0.283 C 
ATOM     12  O7  NAG d 404      10.019  25.976 -13.256  0.00  0.00    -0.274 OA
ATOM     13  C4  NAG d 404       9.156  29.722 -11.618  0.00  0.00     0.089 C 
ATOM     14  C2  NAG d 404      10.813  27.890 -11.183  0.00  0.00     0.102 C 
ATOM     15  H   NAG d 404      10.916  23.989 -10.861  0.00  0.00     0.040 H 
ATOM     16  H   NAG d 404      11.155  23.622 -12.553  0.00  0.00     0.040 H 
ATOM     17  H   NAG d 404       9.538  23.688 -11.893  0.00  0.00     0.040 H 
ATOM     18  H   NAG d 404       9.281  31.608 -15.640  0.00  0.00     0.209 HD
ATOM     19  H   NAG d 404      11.295  25.994 -10.398  0.00  0.00     0.163 HD
ATOM     20  H   NAG d 404       8.691  27.710 -11.216  0.00  0.00     0.091 H 
ATOM     21  H   NAG d 404       7.835  30.496 -10.363  0.00  0.00     0.210 HD
ATOM     22  H   NAG d 404       8.384  28.726 -13.338  0.00  0.00     0.090 H 
ATOM     23  H   NAG d 404       7.797  30.528 -14.271  0.00  0.00     0.078 H 
ATOM     24  H   NAG d 404       9.047  31.471 -13.372  0.00  0.00     0.078 H 
ATOM     25  H   NAG d 404       9.918  30.412 -11.321  0.00  0.00     0.091 H 
ATOM     26  H   NAG d 404      11.493  28.133 -10.393  0.00  0.00     0.085 H 
ATOM     27  O4  NAG d 402       2.058  29.826  -2.532  0.00  0.00    -0.390 OA
ATOM     28  O5  NAG d 402       5.031  28.994  -4.441  0.00  0.00    -0.349 OA
ATOM     29  C7  NAG d 402       3.563  24.569  -4.900  0.00  0.00     0.214 C 
ATOM     30  N2  NAG d 402       3.230  25.862  -5.183  0.00  0.00    -0.349 N 
ATOM     31  C8  NAG d 402       3.018  23.477  -5.804  0.00  0.00    -0.003 C 
ATOM     32  C2  NAG d 402       3.684  26.996  -4.363  0.00  0.00     0.087 C 
ATOM     33  O6  NAG d 402       5.799  30.645  -2.371  0.00  0.00    -0.398 OA
ATOM     34  C6  NAG d 402       4.708  30.996  -3.218  0.00  0.00     0.043 C 
ATOM     35  C3  NAG d 402       2.561  27.782  -3.707  0.00  0.00     0.093 C 
ATOM     36  O7  NAG d 402       4.267  24.248  -3.965  0.00  0.00    -0.274 OA
ATOM     37  C1  NAG d 402       4.541  27.923  -5.231  0.00  0.00     0.154 C 
ATOM     38  C4  NAG d 402       3.139  29.002  -2.975  0.00  0.00     0.089 C 
ATOM     39  C5  NAG d 402       4.016  29.836  -3.890  0.00  0.00     0.089 C 
ATOM     40  O3  NAG d 402       1.956  27.022  -2.689  0.00  0.00    -0.348 OA
ATOM     41  H   NAG d 402       1.482  29.314  -1.943  0.00  0.00     0.210 HD
ATOM     42  H   NAG d 402       2.664  26.042  -5.967  0.00  0.00     0.163 HD
ATOM     43  H   NAG d 402       2.421  23.917  -6.575  0.00  0.00     0.040 H 
ATOM     44  H   NAG d 402       2.417  22.804  -5.228  0.00  0.00     0.040 H 
ATOM     45  H   NAG d 402       3.831  22.941  -6.245  0.00  0.00     0.040 H 
ATOM     46  H   NAG d 402       4.253  26.587  -3.555  0.00  0.00     0.084 H 
ATOM     47  H   NAG d 402       6.181  31.449  -1.985  0.00  0.00     0.209 HD
ATOM     48  H   NAG d 402       5.079  31.647  -3.982  0.00  0.00     0.078 H 
ATOM     49  H   NAG d 402       3.976  31.452  -2.585  0.00  0.00     0.078 H 
ATOM     50  H   NAG d 402       1.871  28.046  -4.481  0.00  0.00     0.091 H 
ATOM     51  H   NAG d 402       3.969  28.362  -6.021  0.00  0.00     0.132 H 
ATOM     52  H   NAG d 402       3.730  28.649  -2.156  0.00  0.00     0.091 H 
ATOM     53  H   NAG d 402       3.358  30.247  -4.627  0.00  0.00     0.090 H 
ATOM     54  O4  GCU d 401      -2.811  24.612  -2.218  0.00  0.00    -0.390 OA
ATOM     55  C4  GCU d 401      -1.676  25.360  -1.769  0.00  0.00     0.097 C 
ATOM     56  C6  GCU d 401      -2.563  27.548  -2.705  0.00  0.00     0.206 C 
ATOM     57  C2  GCU d 401       0.809  25.210  -1.802  0.00  0.00     0.110 C 
ATOM     58  O3  GCU d 401      -0.572  23.534  -0.709  0.00  0.00    -0.390 OA
ATOM     59  C1  GCU d 401       0.831  26.356  -2.814  0.00  0.00     0.160 C 
ATOM     60  O2  GCU d 401       1.894  24.327  -2.037  0.00  0.00    -0.388 OA
ATOM     61  O6B GCU d 401      -3.667  26.982  -2.557  0.00  0.00    -0.646 OA
ATOM     62  C3  GCU d 401      -0.479  24.424  -1.833  0.00  0.00     0.092 C 
ATOM     63  O5  GCU d 401      -0.259  27.209  -2.461  0.00  0.00    -0.340 OA
ATOM     64  C5  GCU d 401      -1.478  26.541  -2.732  0.00  0.00     0.152 C 
ATOM     65  O6A GCU d 401      -2.189  28.731  -2.851  0.00  0.00    -0.646 OA
ATOM     66  H   GCU d 401      -2.957  23.858  -1.624  0.00  0.00     0.210 HD
ATOM     67  H   GCU d 401      -1.801  25.735  -0.775  0.00  0.00     0.091 H 
ATOM     68  H   GCU d 401       0.894  25.660  -0.835  0.00  0.00     0.094 H 
ATOM     69  H   GCU d 401      -1.408  23.043  -0.754  0.00  0.00     0.210 HD
ATOM     70  H   GCU d 401       0.751  26.000  -3.820  0.00  0.00     0.133 H 
ATOM     71  H   GCU d 401       1.802  23.928  -2.916  0.00  0.00     0.210 HD
ATOM     72  H   GCU d 401      -0.481  23.866  -2.745  0.00  0.00     0.091 H 
ATOM     73  H   GCU d 401      -1.477  26.097  -3.705  0.00  0.00     0.104 H 
ATOM     74  O4  GCU d 405      12.552  28.345 -12.881  0.00  0.00    -0.189 OA
ATOM     75  O2  GCU d 403      10.076  27.819  -7.135  0.00  0.00    -0.388 OA
ATOM     76  C5  GCU d 403       6.056  27.395  -8.146  0.00  0.00     0.152 C 
ATOM     77  O5  GCU d 403       7.013  27.958  -9.002  0.00  0.00    -0.340 OA
ATOM     78  C6  GCU d 403       4.698  27.750  -8.637  0.00  0.00     0.206 C 
ATOM     79  C3  GCU d 403       7.824  27.500  -6.385  0.00  0.00     0.092 C 
ATOM     80  O3  GCU d 403       8.101  27.825  -5.015  0.00  0.00    -0.390 OA
ATOM     81  C1  GCU d 403       8.393  27.873  -8.785  0.00  0.00     0.160 C 
ATOM     82  O4  GCU d 403       5.511  27.195  -5.781  0.00  0.00    -0.348 OA
ATOM     83  O6A GCU d 403       4.484  28.935  -8.987  0.00  0.00    -0.646 OA
ATOM     84  C2  GCU d 403       8.725  28.238  -7.340  0.00  0.00     0.110 C 
ATOM     85  C4  GCU d 403       6.371  27.805  -6.704  0.00  0.00     0.103 C 
ATOM     86  O6B GCU d 403       3.854  26.832  -8.659  0.00  0.00    -0.646 OA
ATOM     87  H   GCU d 403      10.344  28.027  -6.227  0.00  0.00     0.210 HD
ATOM     88  H   GCU d 403       6.086  26.326  -8.148  0.00  0.00     0.104 H 
ATOM     89  H   GCU d 403       8.013  26.454  -6.512  0.00  0.00     0.091 H 
ATOM     90  H   GCU d 403       7.940  28.770  -4.868  0.00  0.00     0.210 HD
ATOM     91  H   GCU d 403       8.533  26.855  -9.085  0.00  0.00     0.133 H 
ATOM     92  H   GCU d 403       8.593  29.286  -7.166  0.00  0.00     0.094 H 
ATOM     93  H   GCU d 403       6.210  28.859  -6.619  0.00  0.00     0.092 H 
ENDROOT
TORSDOF 23
ENDMDL
MODEL 41
REMARK VINA RESULT:      -4.5      4.161     12.462
REMARK  0 active torsions:
REMARK  status: ('A' for Active; 'I' for Inactive)
REMARK       I    between atoms: C8_1  and  C7_27 
REMARK       I    between atoms: O6_2  and  C6_34 
REMARK       I    between atoms: O4_3  and  C4_39 
REMARK       I    between atoms: O4_4  and  C4_6 
REMARK       I    between atoms: O2_7  and  C2_37 
REMARK       I    between atoms: C7_9  and  C8_15 
REMARK       I    between atoms: C7_9  and  N2_13 
REMARK       I    between atoms: N2_10  and  C2_53 
REMARK       I    between atoms: N2_10  and  C7_27 
REMARK       I    between atoms: C6_11  and  C5_48 
REMARK       I    between atoms: C5_12  and  C6_17 
REMARK       I    between atoms: N2_13  and  C2_19 
REMARK       I    between atoms: C2_16  and  O2_42 
REMARK       I    between atoms: C3_18  and  O3_23 
REMARK       I    between atoms: O3_20  and  C1_24 
REMARK       I    between atoms: O3_20  and  C3_22 
REMARK       I    between atoms: O6_21  and  C6_28 
REMARK       I    between atoms: O4_25  and  C4_50 
REMARK       I    between atoms: O4_26  and  C1_33 
REMARK       I    between atoms: O4_26  and  C4_41 
REMARK       I    between atoms: C6_28  and  C5_43 
REMARK       I    between atoms: C5_29  and  C6_34 
REMARK       I    between atoms: O3_30  and  C3_46 
REMARK       I    between atoms: C3_31  and  O3_49 
REMARK       I    between atoms: C1_38  and  O3_49 
ROOT
ATOM      1  C8  NAG d 404       8.013  27.854 -16.816  0.00  0.00    -0.003 C 
ATOM      2  O6  NAG d 404      11.302  34.637 -16.898  0.00  0.00    -0.398 OA
ATOM      3  N2  NAG d 404      10.102  28.751 -15.975  0.00  0.00    -0.349 N 
ATOM      4  O3  NAG d 404      11.105  29.791 -13.154  0.00  0.00    -0.348 OA
ATOM      5  C3  NAG d 404      10.721  30.490 -14.290  0.00  0.00     0.093 C 
ATOM      6  O4  NAG d 404      10.989  32.656 -13.137  0.00  0.00    -0.390 OA
ATOM      7  C7  NAG d 404       8.928  29.029 -16.626  0.00  0.00     0.214 C 
ATOM      8  C5  NAG d 404      10.633  32.659 -15.495  0.00  0.00     0.089 C 
ATOM      9  C6  NAG d 404      11.033  34.112 -15.589  0.00  0.00     0.043 C 
ATOM     10  O5  NAG d 404      10.936  31.943 -16.689  0.00  0.00    -0.337 OA
ATOM     11  C1  NAG d 404      11.575  30.711 -16.569  0.00  0.00     0.283 C 
ATOM     12  O7  NAG d 404       8.634  30.149 -17.034  0.00  0.00    -0.274 OA
ATOM     13  C4  NAG d 404      11.284  31.910 -14.324  0.00  0.00     0.089 C 
ATOM     14  C2  NAG d 404      11.123  29.724 -15.543  0.00  0.00     0.102 C 
ATOM     15  H   NAG d 404       8.459  26.981 -16.389  0.00  0.00     0.040 H 
ATOM     16  H   NAG d 404       7.848  27.695 -17.862  0.00  0.00     0.040 H 
ATOM     17  H   NAG d 404       7.078  28.049 -16.332  0.00  0.00     0.040 H 
ATOM     18  H   NAG d 404      11.547  35.573 -16.827  0.00  0.00     0.209 HD
ATOM     19  H   NAG d 404      10.282  27.805 -15.775  0.00  0.00     0.163 HD
ATOM     20  H   NAG d 404       9.655  30.580 -14.258  0.00  0.00     0.091 H 
ATOM     21  H   NAG d 404      11.385  32.213 -12.371  0.00  0.00     0.210 HD
ATOM     22  H   NAG d 404       9.576  32.692 -15.334  0.00  0.00     0.090 H 
ATOM     23  H   NAG d 404      10.239  34.691 -15.167  0.00  0.00     0.078 H 
ATOM     24  H   NAG d 404      11.967  34.174 -15.071  0.00  0.00     0.078 H 
ATOM     25  H   NAG d 404      12.346  31.825 -14.417  0.00  0.00     0.091 H 
ATOM     26  H   NAG d 404      11.954  29.082 -15.343  0.00  0.00     0.085 H 
ATOM     27  O4  NAG d 402       9.582  29.479  -3.182  0.00  0.00    -0.390 OA
ATOM     28  O5  NAG d 402      10.280  28.809  -6.681  0.00  0.00    -0.349 OA
ATOM     29  C7  NAG d 402       6.027  26.920  -7.222  0.00  0.00     0.214 C 
ATOM     30  N2  NAG d 402       6.671  28.073  -6.879  0.00  0.00    -0.349 N 
ATOM     31  C8  NAG d 402       4.631  27.030  -7.811  0.00  0.00    -0.003 C 
ATOM     32  C2  NAG d 402       8.015  28.084  -6.281  0.00  0.00     0.087 C 
ATOM     33  O6  NAG d 402      12.561  28.228  -5.245  0.00  0.00    -0.398 OA
ATOM     34  C6  NAG d 402      11.884  29.470  -5.069  0.00  0.00     0.043 C 
ATOM     35  C3  NAG d 402       8.074  28.680  -4.885  0.00  0.00     0.093 C 
ATOM     36  O7  NAG d 402       6.509  25.816  -7.078  0.00  0.00    -0.274 OA
ATOM     37  C1  NAG d 402       8.967  28.836  -7.217  0.00  0.00     0.154 C 
ATOM     38  C4  NAG d 402       9.532  28.745  -4.408  0.00  0.00     0.089 C 
ATOM     39  C5  NAG d 402      10.415  29.458  -5.414  0.00  0.00     0.089 C 
ATOM     40  O3  NAG d 402       7.444  27.828  -3.958  0.00  0.00    -0.348 OA
ATOM     41  H   NAG d 402       9.024  29.042  -2.520  0.00  0.00     0.210 HD
ATOM     42  H   NAG d 402       6.218  28.932  -7.038  0.00  0.00     0.163 HD
ATOM     43  H   NAG d 402       4.350  28.060  -7.874  0.00  0.00     0.040 H 
ATOM     44  H   NAG d 402       3.938  26.508  -7.185  0.00  0.00     0.040 H 
ATOM     45  H   NAG d 402       4.623  26.598  -8.790  0.00  0.00     0.040 H 
ATOM     46  H   NAG d 402       8.312  27.063  -6.166  0.00  0.00     0.084 H 
ATOM     47  H   NAG d 402      13.494  28.331  -5.001  0.00  0.00     0.209 HD
ATOM     48  H   NAG d 402      12.363  30.198  -5.690  0.00  0.00     0.078 H 
ATOM     49  H   NAG d 402      11.942  29.694  -4.024  0.00  0.00     0.078 H 
ATOM     50  H   NAG d 402       7.607  29.641  -4.935  0.00  0.00     0.091 H 
ATOM     51  H   NAG d 402       8.696  29.866  -7.309  0.00  0.00     0.132 H 
ATOM     52  H   NAG d 402       9.886  27.743  -4.284  0.00  0.00     0.091 H 
ATOM     53  H   NAG d 402      10.086  30.476  -5.421  0.00  0.00     0.090 H 
ATOM     54  O4  GCU d 401       2.858  28.126  -1.196  0.00  0.00    -0.390 OA
ATOM     55  C4  GCU d 401       4.240  27.816  -1.401  0.00  0.00     0.097 C 
ATOM     56  C6  GCU d 401       4.994  30.198  -0.944  0.00  0.00     0.206 C 
ATOM     57  C2  GCU d 401       5.676  26.629  -3.053  0.00  0.00     0.110 C 
ATOM     58  O3  GCU d 401       3.920  25.491  -1.813  0.00  0.00    -0.390 OA
ATOM     59  C1  GCU d 401       6.222  27.983  -3.502  0.00  0.00     0.160 C 
ATOM     60  O2  GCU d 401       5.647  25.724  -4.145  0.00  0.00    -0.388 OA
ATOM     61  O6B GCU d 401       3.937  30.237  -0.279  0.00  0.00    -0.646 OA
ATOM     62  C3  GCU d 401       4.293  26.721  -2.455  0.00  0.00     0.092 C 
ATOM     63  O5  GCU d 401       6.261  28.797  -2.328  0.00  0.00    -0.340 OA
ATOM     64  C5  GCU d 401       4.936  29.085  -1.919  0.00  0.00     0.152 C 
ATOM     65  O6A GCU d 401       6.041  30.879  -0.982  0.00  0.00    -0.646 OA
ATOM     66  H   GCU d 401       2.396  27.338  -0.868  0.00  0.00     0.210 HD
ATOM     67  H   GCU d 401       4.724  27.491  -0.505  0.00  0.00     0.091 H 
ATOM     68  H   GCU d 401       6.338  26.275  -2.290  0.00  0.00     0.094 H 
ATOM     69  H   GCU d 401       3.029  25.579  -1.439  0.00  0.00     0.210 HD
ATOM     70  H   GCU d 401       5.620  28.420  -4.272  0.00  0.00     0.133 H 
ATOM     71  H   GCU d 401       5.043  26.059  -4.827  0.00  0.00     0.210 HD
ATOM     72  H   GCU d 401       3.620  26.934  -3.259  0.00  0.00     0.091 H 
ATOM     73  H   GCU d 401       4.330  29.407  -2.740  0.00  0.00     0.104 H 
ATOM     74  O4  GCU d 405      12.041  30.297 -17.767  0.00  0.00    -0.189 OA
ATOM     75  O2  GCU d 403      11.796  27.481 -12.160  0.00  0.00    -0.388 OA
ATOM     76  C5  GCU d 403       8.679  29.640 -10.433  0.00  0.00     0.152 C 
ATOM     77  O5  GCU d 403       9.434  30.107 -11.518  0.00  0.00    -0.340 OA
ATOM     78  C6  GCU d 403       7.943  30.782  -9.828  0.00  0.00     0.206 C 
ATOM     79  C3  GCU d 403      10.376  27.816 -10.261  0.00  0.00     0.092 C 
ATOM     80  O3  GCU d 403      11.187  27.044  -9.362  0.00  0.00    -0.390 OA
ATOM     81  C1  GCU d 403      10.299  29.299 -12.265  0.00  0.00     0.160 C 
ATOM     82  O4  GCU d 403       8.886  28.279  -8.424  0.00  0.00    -0.348 OA
ATOM     83  O6A GCU d 403       8.563  31.855  -9.637  0.00  0.00    -0.646 OA
ATOM     84  C2  GCU d 403      11.195  28.481 -11.336  0.00  0.00     0.110 C 
ATOM     85  C4  GCU d 403       9.595  28.861  -9.484  0.00  0.00     0.103 C 
ATOM     86  O6B GCU d 403       6.745  30.586  -9.543  0.00  0.00    -0.646 OA
ATOM     87  H   GCU d 403      12.380  26.927 -11.620  0.00  0.00     0.210 HD
ATOM     88  H   GCU d 403       7.924  28.944 -10.730  0.00  0.00     0.104 H 
ATOM     89  H   GCU d 403       9.701  27.141 -10.745  0.00  0.00     0.091 H 
ATOM     90  H   GCU d 403      11.812  27.629  -8.906  0.00  0.00     0.210 HD
ATOM     91  H   GCU d 403       9.562  28.772 -12.836  0.00  0.00     0.133 H 
ATOM     92  H   GCU d 403      11.920  29.103 -10.854  0.00  0.00     0.094 H 
ATOM     93  H   GCU d 403      10.282  29.555  -9.046  0.00  0.00     0.092 H 
ENDROOT
TORSDOF 23
ENDMDL
MODEL 42
REMARK VINA RESULT:      -4.1      5.174      7.260
REMARK  0 active torsions:
REMARK  status: ('A' for Active; 'I' for Inactive)
REMARK       I    between atoms: C8_1  and  C7_27 
REMARK       I    between atoms: O6_2  and  C6_34 
REMARK       I    between atoms: O4_3  and  C4_39 
REMARK       I    between atoms: O4_4  and  C4_6 
REMARK       I    between atoms: O2_7  and  C2_37 
REMARK       I    between atoms: C7_9  and  C8_15 
REMARK       I    between atoms: C7_9  and  N2_13 
REMARK       I    between atoms: N2_10  and  C2_53 
REMARK       I    between atoms: N2_10  and  C7_27 
REMARK       I    between atoms: C6_11  and  C5_48 
REMARK       I    between atoms: C5_12  and  C6_17 
REMARK       I    between atoms: N2_13  and  C2_19 
REMARK       I    between atoms: C2_16  and  O2_42 
REMARK       I    between atoms: C3_18  and  O3_23 
REMARK       I    between atoms: O3_20  and  C1_24 
REMARK       I    between atoms: O3_20  and  C3_22 
REMARK       I    between atoms: O6_21  and  C6_28 
REMARK       I    between atoms: O4_25  and  C4_50 
REMARK       I    between atoms: O4_26  and  C1_33 
REMARK       I    between atoms: O4_26  and  C4_41 
REMARK       I    between atoms: C6_28  and  C5_43 
REMARK       I    between atoms: C5_29  and  C6_34 
REMARK       I    between atoms: O3_30  and  C3_46 
REMARK       I    between atoms: C3_31  and  O3_49 
REMARK       I    between atoms: C1_38  and  O3_49 
ROOT
ATOM      1  C8  NAG d 404      -1.528  25.519   0.869  0.00  0.00    -0.003 C 
ATOM      2  O6  NAG d 404      -5.677  26.657  -5.322  0.00  0.00    -0.398 OA
ATOM      3  N2  NAG d 404      -1.529  24.612  -1.379  0.00  0.00    -0.349 N 
ATOM      4  O3  NAG d 404       0.129  25.194  -4.016  0.00  0.00    -0.348 OA
ATOM      5  C3  NAG d 404      -1.162  25.560  -3.661  0.00  0.00     0.093 C 
ATOM      6  O4  NAG d 404      -1.440  26.870  -5.735  0.00  0.00    -0.390 OA
ATOM      7  C7  NAG d 404      -2.111  25.502  -0.514  0.00  0.00     0.214 C 
ATOM      8  C5  NAG d 404      -3.356  26.487  -4.367  0.00  0.00     0.089 C 
ATOM      9  C6  NAG d 404      -4.279  26.948  -5.469  0.00  0.00     0.043 C 
ATOM     10  O5  NAG d 404      -3.972  25.517  -3.525  0.00  0.00    -0.337 OA
ATOM     11  C1  NAG d 404      -3.248  24.369  -3.209  0.00  0.00     0.283 C 
ATOM     12  O7  NAG d 404      -3.043  26.237  -0.831  0.00  0.00    -0.274 OA
ATOM     13  C4  NAG d 404      -2.033  25.893  -4.872  0.00  0.00     0.089 C 
ATOM     14  C2  NAG d 404      -1.810  24.469  -2.819  0.00  0.00     0.102 C 
ATOM     15  H   NAG d 404      -0.732  24.807   0.930  0.00  0.00     0.040 H 
ATOM     16  H   NAG d 404      -2.288  25.266   1.580  0.00  0.00     0.040 H 
ATOM     17  H   NAG d 404      -1.150  26.496   1.085  0.00  0.00     0.040 H 
ATOM     18  H   NAG d 404      -6.161  27.002  -6.088  0.00  0.00     0.209 HD
ATOM     19  H   NAG d 404      -0.855  24.004  -0.999  0.00  0.00     0.163 HD
ATOM     20  H   NAG d 404      -1.086  26.456  -3.080  0.00  0.00     0.091 H 
ATOM     21  H   NAG d 404      -0.598  26.532  -6.076  0.00  0.00     0.210 HD
ATOM     22  H   NAG d 404      -3.142  27.380  -3.819  0.00  0.00     0.090 H 
ATOM     23  H   NAG d 404      -4.178  28.010  -5.549  0.00  0.00     0.078 H 
ATOM     24  H   NAG d 404      -3.973  26.396  -6.333  0.00  0.00     0.078 H 
ATOM     25  H   NAG d 404      -2.163  24.986  -5.424  0.00  0.00     0.091 H 
ATOM     26  H   NAG d 404      -1.366  23.519  -3.027  0.00  0.00     0.085 H 
ATOM     27  O4  NAG d 402       8.681  29.030  -7.759  0.00  0.00    -0.390 OA
ATOM     28  O5  NAG d 402       6.098  27.125  -6.061  0.00  0.00    -0.349 OA
ATOM     29  C7  NAG d 402       7.101  29.268  -2.018  0.00  0.00     0.214 C 
ATOM     30  N2  NAG d 402       6.683  29.496  -3.296  0.00  0.00    -0.349 N 
ATOM     31  C8  NAG d 402       6.685  30.258  -0.943  0.00  0.00    -0.003 C 
ATOM     32  C2  NAG d 402       7.044  28.615  -4.419  0.00  0.00     0.087 C 
ATOM     33  O6  NAG d 402       7.392  25.420  -7.798  0.00  0.00    -0.398 OA
ATOM     34  C6  NAG d 402       6.910  26.686  -8.242  0.00  0.00     0.043 C 
ATOM     35  C3  NAG d 402       7.860  29.292  -5.506  0.00  0.00     0.093 C 
ATOM     36  O7  NAG d 402       7.789  28.321  -1.697  0.00  0.00    -0.274 OA
ATOM     37  C1  NAG d 402       5.764  28.019  -5.012  0.00  0.00     0.154 C 
ATOM     38  C4  NAG d 402       8.081  28.318  -6.673  0.00  0.00     0.089 C 
ATOM     39  C5  NAG d 402       6.770  27.735  -7.166  0.00  0.00     0.089 C 
ATOM     40  O3  NAG d 402       9.159  29.578  -5.044  0.00  0.00    -0.348 OA
ATOM     41  H   NAG d 402       9.522  29.413  -7.468  0.00  0.00     0.210 HD
ATOM     42  H   NAG d 402       6.116  30.280  -3.475  0.00  0.00     0.163 HD
ATOM     43  H   NAG d 402       6.087  31.029  -1.381  0.00  0.00     0.040 H 
ATOM     44  H   NAG d 402       7.557  30.691  -0.500  0.00  0.00     0.040 H 
ATOM     45  H   NAG d 402       6.117  29.750  -0.192  0.00  0.00     0.040 H 
ATOM     46  H   NAG d 402       7.678  27.852  -4.021  0.00  0.00     0.084 H 
ATOM     47  H   NAG d 402       7.448  24.813  -8.553  0.00  0.00     0.209 HD
ATOM     48  H   NAG d 402       5.948  26.537  -8.685  0.00  0.00     0.078 H 
ATOM     49  H   NAG d 402       7.643  27.059  -8.927  0.00  0.00     0.078 H 
ATOM     50  H   NAG d 402       7.328  30.175  -5.793  0.00  0.00     0.091 H 
ATOM     51  H   NAG d 402       5.140  28.775  -5.441  0.00  0.00     0.132 H 
ATOM     52  H   NAG d 402       8.707  27.522  -6.328  0.00  0.00     0.091 H 
ATOM     53  H   NAG d 402       6.230  28.553  -7.594  0.00  0.00     0.090 H 
ATOM     54  O4  GCU d 401      11.706  34.120  -3.768  0.00  0.00    -0.390 OA
ATOM     55  C4  GCU d 401      11.578  32.807  -4.322  0.00  0.00     0.097 C 
ATOM     56  C6  GCU d 401      10.561  33.658  -6.487  0.00  0.00     0.206 C 
ATOM     57  C2  GCU d 401      10.739  30.559  -3.657  0.00  0.00     0.110 C 
ATOM     58  O3  GCU d 401      12.561  31.658  -2.479  0.00  0.00    -0.390 OA
ATOM     59  C1  GCU d 401       9.564  30.751  -4.614  0.00  0.00     0.160 C 
ATOM     60  O2  GCU d 401      10.343  29.774  -2.543  0.00  0.00    -0.388 OA
ATOM     61  O6B GCU d 401      11.188  34.697  -6.189  0.00  0.00    -0.646 OA
ATOM     62  C3  GCU d 401      11.311  31.863  -3.159  0.00  0.00     0.092 C 
ATOM     63  O5  GCU d 401      10.077  31.501  -5.717  0.00  0.00    -0.340 OA
ATOM     64  C5  GCU d 401      10.380  32.815  -5.284  0.00  0.00     0.152 C 
ATOM     65  O6A GCU d 401      10.052  33.202  -7.533  0.00  0.00    -0.646 OA
ATOM     66  H   GCU d 401      12.458  34.141  -3.155  0.00  0.00     0.210 HD
ATOM     67  H   GCU d 401      12.454  32.500  -4.854  0.00  0.00     0.091 H 
ATOM     68  H   GCU d 401      11.503  30.059  -4.215  0.00  0.00     0.094 H 
ATOM     69  H   GCU d 401      12.905  32.511  -2.171  0.00  0.00     0.210 HD
ATOM     70  H   GCU d 401       8.742  31.247  -4.141  0.00  0.00     0.133 H 
ATOM     71  H   GCU d 401       9.650  30.240  -2.049  0.00  0.00     0.210 HD
ATOM     72  H   GCU d 401      10.592  32.282  -2.487  0.00  0.00     0.091 H 
ATOM     73  H   GCU d 401       9.580  33.237  -4.713  0.00  0.00     0.104 H 
ATOM     74  O4  GCU d 405      -4.051  23.438  -2.653  0.00  0.00    -0.189 OA
ATOM     75  O2  GCU d 403       2.168  23.658  -3.489  0.00  0.00    -0.388 OA
ATOM     76  C5  GCU d 403       2.688  27.783  -3.765  0.00  0.00     0.152 C 
ATOM     77  O5  GCU d 403       1.461  27.141  -3.988  0.00  0.00    -0.340 OA
ATOM     78  C6  GCU d 403       2.622  29.160  -4.319  0.00  0.00     0.206 C 
ATOM     79  C3  GCU d 403       3.684  25.492  -3.755  0.00  0.00     0.092 C 
ATOM     80  O3  GCU d 403       4.780  24.684  -4.211  0.00  0.00    -0.390 OA
ATOM     81  C1  GCU d 403       1.211  25.806  -3.651  0.00  0.00     0.160 C 
ATOM     82  O4  GCU d 403       5.084  27.435  -4.027  0.00  0.00    -0.348 OA
ATOM     83  O6A GCU d 403       2.124  29.320  -5.459  0.00  0.00    -0.646 OA
ATOM     84  C2  GCU d 403       2.349  24.914  -4.145  0.00  0.00     0.110 C 
ATOM     85  C4  GCU d 403       3.818  26.901  -4.306  0.00  0.00     0.103 C 
ATOM     86  O6B GCU d 403       3.079  30.073  -3.603  0.00  0.00    -0.646 OA
ATOM     87  H   GCU d 403       2.867  23.045  -3.766  0.00  0.00     0.210 HD
ATOM     88  H   GCU d 403       2.900  27.907  -2.724  0.00  0.00     0.104 H 
ATOM     89  H   GCU d 403       3.723  25.513  -2.686  0.00  0.00     0.091 H 
ATOM     90  H   GCU d 403       4.771  24.644  -5.180  0.00  0.00     0.210 HD
ATOM     91  H   GCU d 403       1.102  25.933  -2.594  0.00  0.00     0.133 H 
ATOM     92  H   GCU d 403       2.334  24.823  -5.211  0.00  0.00     0.094 H 
ATOM     93  H   GCU d 403       3.730  26.868  -5.371  0.00  0.00     0.092 H 
ENDROOT
TORSDOF 23
ENDMDL
MODEL 43
REMARK VINA RESULT:      -4.1      3.526     12.081
REMARK  0 active torsions:
REMARK  status: ('A' for Active; 'I' for Inactive)
REMARK       I    between atoms: C8_1  and  C7_27 
REMARK       I    between atoms: O6_2  and  C6_34 
REMARK       I    between atoms: O4_3  and  C4_39 
REMARK       I    between atoms: O4_4  and  C4_6 
REMARK       I    between atoms: O2_7  and  C2_37 
REMARK       I    between atoms: C7_9  and  C8_15 
REMARK       I    between atoms: C7_9  and  N2_13 
REMARK       I    between atoms: N2_10  and  C2_53 
REMARK       I    between atoms: N2_10  and  C7_27 
REMARK       I    between atoms: C6_11  and  C5_48 
REMARK       I    between atoms: C5_12  and  C6_17 
REMARK       I    between atoms: N2_13  and  C2_19 
REMARK       I    between atoms: C2_16  and  O2_42 
REMARK       I    between atoms: C3_18  and  O3_23 
REMARK       I    between atoms: O3_20  and  C1_24 
REMARK       I    between atoms: O3_20  and  C3_22 
REMARK       I    between atoms: O6_21  and  C6_28 
REMARK       I    between atoms: O4_25  and  C4_50 
REMARK       I    between atoms: O4_26  and  C1_33 
REMARK       I    between atoms: O4_26  and  C4_41 
REMARK       I    between atoms: C6_28  and  C5_43 
REMARK       I    between atoms: C5_29  and  C6_34 
REMARK       I    between atoms: O3_30  and  C3_46 
REMARK       I    between atoms: C3_31  and  O3_49 
REMARK       I    between atoms: C1_38  and  O3_49 
ROOT
ATOM      1  C8  NAG d 404      11.191  35.222 -11.260  0.00  0.00    -0.003 C 
ATOM      2  O6  NAG d 404      12.389  29.651 -16.197  0.00  0.00    -0.398 OA
ATOM      3  N2  NAG d 404       9.776  33.879 -12.699  0.00  0.00    -0.349 N 
ATOM      4  O3  NAG d 404       7.976  31.305 -12.280  0.00  0.00    -0.348 OA
ATOM      5  C3  NAG d 404       9.229  31.446 -12.860  0.00  0.00     0.093 C 
ATOM      6  O4  NAG d 404       9.430  29.009 -13.197  0.00  0.00    -0.390 OA
ATOM      7  C7  NAG d 404      11.054  34.115 -12.265  0.00  0.00     0.214 C 
ATOM      8  C5  NAG d 404      11.044  30.435 -14.221  0.00  0.00     0.089 C 
ATOM      9  C6  NAG d 404      11.543  29.306 -15.089  0.00  0.00     0.043 C 
ATOM     10  O5  NAG d 404      11.199  31.703 -14.852  0.00  0.00    -0.337 OA
ATOM     11  C1  NAG d 404      10.116  32.580 -14.835  0.00  0.00     0.283 C 
ATOM     12  O7  NAG d 404      12.027  33.479 -12.662  0.00  0.00    -0.274 OA
ATOM     13  C4  NAG d 404       9.572  30.297 -13.807  0.00  0.00     0.089 C 
ATOM     14  C2  NAG d 404       9.331  32.783 -13.580  0.00  0.00     0.102 C 
ATOM     15  H   NAG d 404      10.227  35.639 -11.055  0.00  0.00     0.040 H 
ATOM     16  H   NAG d 404      11.833  35.983 -11.652  0.00  0.00     0.040 H 
ATOM     17  H   NAG d 404      11.610  34.832 -10.356  0.00  0.00     0.040 H 
ATOM     18  H   NAG d 404      12.642  28.845 -16.674  0.00  0.00     0.209 HD
ATOM     19  H   NAG d 404       9.083  34.506 -12.392  0.00  0.00     0.163 HD
ATOM     20  H   NAG d 404       9.947  31.417 -12.066  0.00  0.00     0.091 H 
ATOM     21  H   NAG d 404       8.509  28.883 -12.920  0.00  0.00     0.210 HD
ATOM     22  H   NAG d 404      11.652  30.375 -13.343  0.00  0.00     0.090 H 
ATOM     23  H   NAG d 404      12.092  28.637 -14.461  0.00  0.00     0.078 H 
ATOM     24  H   NAG d 404      10.663  28.892 -15.534  0.00  0.00     0.078 H 
ATOM     25  H   NAG d 404       8.895  30.358 -14.633  0.00  0.00     0.091 H 
ATOM     26  H   NAG d 404       8.363  33.129 -13.874  0.00  0.00     0.085 H 
ATOM     27  O4  NAG d 402       2.974  25.689  -5.549  0.00  0.00    -0.390 OA
ATOM     28  O5  NAG d 402       4.245  28.274  -7.759  0.00  0.00    -0.349 OA
ATOM     29  C7  NAG d 402       6.410  30.357  -4.165  0.00  0.00     0.214 C 
ATOM     30  N2  NAG d 402       6.350  29.193  -4.872  0.00  0.00    -0.349 N 
ATOM     31  C8  NAG d 402       7.716  30.703  -3.469  0.00  0.00    -0.003 C 
ATOM     32  C2  NAG d 402       5.131  28.748  -5.567  0.00  0.00     0.087 C 
ATOM     33  O6  NAG d 402       1.641  27.748  -8.495  0.00  0.00    -0.398 OA
ATOM     34  C6  NAG d 402       2.580  26.689  -8.325  0.00  0.00     0.043 C 
ATOM     35  C3  NAG d 402       4.564  27.434  -5.057  0.00  0.00     0.093 C 
ATOM     36  O7  NAG d 402       5.478  31.127  -4.060  0.00  0.00    -0.274 OA
ATOM     37  C1  NAG d 402       5.425  28.650  -7.067  0.00  0.00     0.154 C 
ATOM     38  C4  NAG d 402       3.369  27.012  -5.923  0.00  0.00     0.089 C 
ATOM     39  C5  NAG d 402       3.730  26.991  -7.396  0.00  0.00     0.089 C 
ATOM     40  O3  NAG d 402       4.018  27.599  -3.770  0.00  0.00    -0.348 OA
ATOM     41  H   NAG d 402       2.738  25.677  -4.608  0.00  0.00     0.210 HD
ATOM     42  H   NAG d 402       7.154  28.627  -4.920  0.00  0.00     0.163 HD
ATOM     43  H   NAG d 402       8.434  29.933  -3.654  0.00  0.00     0.040 H 
ATOM     44  H   NAG d 402       7.547  30.787  -2.415  0.00  0.00     0.040 H 
ATOM     45  H   NAG d 402       8.085  31.634  -3.847  0.00  0.00     0.040 H 
ATOM     46  H   NAG d 402       4.377  29.479  -5.368  0.00  0.00     0.084 H 
ATOM     47  H   NAG d 402       0.941  27.465  -9.105  0.00  0.00     0.209 HD
ATOM     48  H   NAG d 402       2.985  26.449  -9.286  0.00  0.00     0.078 H 
ATOM     49  H   NAG d 402       2.039  25.882  -7.875  0.00  0.00     0.078 H 
ATOM     50  H   NAG d 402       5.363  26.723  -5.070  0.00  0.00     0.091 H 
ATOM     51  H   NAG d 402       6.155  27.896  -7.277  0.00  0.00     0.132 H 
ATOM     52  H   NAG d 402       2.581  27.719  -5.770  0.00  0.00     0.091 H 
ATOM     53  H   NAG d 402       4.441  26.199  -7.510  0.00  0.00     0.090 H 
ATOM     54  O4  GCU d 401       5.525  25.981   1.115  0.00  0.00    -0.390 OA
ATOM     55  C4  GCU d 401       4.597  26.270   0.064  0.00  0.00     0.097 C 
ATOM     56  C6  GCU d 401       4.993  24.048  -1.099  0.00  0.00     0.206 C 
ATOM     57  C2  GCU d 401       4.055  28.122  -1.510  0.00  0.00     0.110 C 
ATOM     58  O3  GCU d 401       3.919  28.396   0.903  0.00  0.00    -0.390 OA
ATOM     59  C1  GCU d 401       4.620  27.275  -2.649  0.00  0.00     0.160 C 
ATOM     60  O2  GCU d 401       4.276  29.500  -1.767  0.00  0.00    -0.388 OA
ATOM     61  O6B GCU d 401       5.309  23.681   0.053  0.00  0.00    -0.646 OA
ATOM     62  C3  GCU d 401       4.649  27.773  -0.167  0.00  0.00     0.092 C 
ATOM     63  O5  GCU d 401       4.302  25.920  -2.323  0.00  0.00    -0.340 OA
ATOM     64  C5  GCU d 401       5.062  25.523  -1.196  0.00  0.00     0.152 C 
ATOM     65  O6A GCU d 401       4.666  23.464  -2.154  0.00  0.00    -0.646 OA
ATOM     66  H   GCU d 401       5.251  26.443   1.924  0.00  0.00     0.210 HD
ATOM     67  H   GCU d 401       3.600  25.967   0.304  0.00  0.00     0.091 H 
ATOM     68  H   GCU d 401       3.008  27.912  -1.468  0.00  0.00     0.094 H 
ATOM     69  H   GCU d 401       4.321  28.154   1.752  0.00  0.00     0.210 HD
ATOM     70  H   GCU d 401       5.674  27.420  -2.769  0.00  0.00     0.133 H 
ATOM     71  H   GCU d 401       5.230  29.674  -1.801  0.00  0.00     0.210 HD
ATOM     72  H   GCU d 401       5.660  28.122  -0.173  0.00  0.00     0.091 H 
ATOM     73  H   GCU d 401       6.093  25.791  -1.301  0.00  0.00     0.104 H 
ATOM     74  O4  GCU d 405      10.315  33.599 -15.698  0.00  0.00    -0.189 OA
ATOM     75  O2  GCU d 403       5.826  32.519 -11.442  0.00  0.00    -0.388 OA
ATOM     76  C5  GCU d 403       7.886  29.943  -8.896  0.00  0.00     0.152 C 
ATOM     77  O5  GCU d 403       8.257  30.173 -10.229  0.00  0.00    -0.340 OA
ATOM     78  C6  GCU d 403       8.563  28.711  -8.411  0.00  0.00     0.206 C 
ATOM     79  C3  GCU d 403       5.798  31.200  -9.444  0.00  0.00     0.092 C 
ATOM     80  O3  GCU d 403       4.371  31.233  -9.292  0.00  0.00    -0.390 OA
ATOM     81  C1  GCU d 403       7.741  31.215 -11.009  0.00  0.00     0.160 C 
ATOM     82  O4  GCU d 403       5.915  29.821  -7.471  0.00  0.00    -0.348 OA
ATOM     83  O6A GCU d 403       8.568  27.703  -9.155  0.00  0.00    -0.646 OA
ATOM     84  C2  GCU d 403       6.219  31.262 -10.889  0.00  0.00     0.110 C 
ATOM     85  C4  GCU d 403       6.357  29.946  -8.795  0.00  0.00     0.103 C 
ATOM     86  O6B GCU d 403       9.080  28.768  -7.277  0.00  0.00    -0.646 OA
ATOM     87  H   GCU d 403       4.861  32.606 -11.393  0.00  0.00     0.210 HD
ATOM     88  H   GCU d 403       8.213  30.722  -8.241  0.00  0.00     0.104 H 
ATOM     89  H   GCU d 403       6.193  32.069  -8.959  0.00  0.00     0.091 H 
ATOM     90  H   GCU d 403       3.982  30.456  -9.723  0.00  0.00     0.210 HD
ATOM     91  H   GCU d 403       8.298  32.020 -10.577  0.00  0.00     0.133 H 
ATOM     92  H   GCU d 403       5.766  30.434 -11.394  0.00  0.00     0.094 H 
ATOM     93  H   GCU d 403       5.991  29.089  -9.321  0.00  0.00     0.092 H 
ENDROOT
TORSDOF 23
ENDMDL
MODEL 44
REMARK VINA RESULT:      -3.7      3.296      5.601
REMARK  0 active torsions:
REMARK  status: ('A' for Active; 'I' for Inactive)
REMARK       I    between atoms: C8_1  and  C7_27 
REMARK       I    between atoms: O6_2  and  C6_34 
REMARK       I    between atoms: O4_3  and  C4_39 
REMARK       I    between atoms: O4_4  and  C4_6 
REMARK       I    between atoms: O2_7  and  C2_37 
REMARK       I    between atoms: C7_9  and  C8_15 
REMARK       I    between atoms: C7_9  and  N2_13 
REMARK       I    between atoms: N2_10  and  C2_53 
REMARK       I    between atoms: N2_10  and  C7_27 
REMARK       I    between atoms: C6_11  and  C5_48 
REMARK       I    between atoms: C5_12  and  C6_17 
REMARK       I    between atoms: N2_13  and  C2_19 
REMARK       I    between atoms: C2_16  and  O2_42 
REMARK       I    between atoms: C3_18  and  O3_23 
REMARK       I    between atoms: O3_20  and  C1_24 
REMARK       I    between atoms: O3_20  and  C3_22 
REMARK       I    between atoms: O6_21  and  C6_28 
REMARK       I    between atoms: O4_25  and  C4_50 
REMARK       I    between atoms: O4_26  and  C1_33 
REMARK       I    between atoms: O4_26  and  C4_41 
REMARK       I    between atoms: C6_28  and  C5_43 
REMARK       I    between atoms: C5_29  and  C6_34 
REMARK       I    between atoms: O3_30  and  C3_46 
REMARK       I    between atoms: C3_31  and  O3_49 
REMARK       I    between atoms: C1_38  and  O3_49 
ROOT
ATOM      1  C8  NAG d 404       0.935  23.437  -3.387  0.00  0.00    -0.003 C 
ATOM      2  O6  NAG d 404      -4.385  28.473  -1.607  0.00  0.00    -0.398 OA
ATOM      3  N2  NAG d 404      -0.637  24.783  -4.650  0.00  0.00    -0.349 N 
ATOM      4  O3  NAG d 404      -0.459  27.533  -6.217  0.00  0.00    -0.348 OA
ATOM      5  C3  NAG d 404      -0.996  27.235  -4.972  0.00  0.00     0.093 C 
ATOM      6  O4  NAG d 404      -1.515  29.611  -4.545  0.00  0.00    -0.390 OA
ATOM      7  C7  NAG d 404      -0.155  24.469  -3.407  0.00  0.00     0.214 C 
ATOM      8  C5  NAG d 404      -2.387  27.970  -3.050  0.00  0.00     0.089 C 
ATOM      9  C6  NAG d 404      -3.328  28.979  -2.436  0.00  0.00     0.043 C 
ATOM     10  O5  NAG d 404      -2.915  26.648  -3.000  0.00  0.00    -0.337 OA
ATOM     11  C1  NAG d 404      -2.857  25.875  -4.158  0.00  0.00     0.283 C 
ATOM     12  O7  NAG d 404      -0.576  24.983  -2.373  0.00  0.00    -0.274 OA
ATOM     13  C4  NAG d 404      -2.020  28.271  -4.510  0.00  0.00     0.089 C 
ATOM     14  C2  NAG d 404      -1.609  25.842  -4.979  0.00  0.00     0.102 C 
ATOM     15  H   NAG d 404       1.148  23.125  -4.388  0.00  0.00     0.040 H 
ATOM     16  H   NAG d 404       0.617  22.594  -2.810  0.00  0.00     0.040 H 
ATOM     17  H   NAG d 404       1.816  23.858  -2.950  0.00  0.00     0.040 H 
ATOM     18  H   NAG d 404      -4.917  29.214  -1.274  0.00  0.00     0.209 HD
ATOM     19  H   NAG d 404      -0.298  24.247  -5.403  0.00  0.00     0.163 HD
ATOM     20  H   NAG d 404      -0.191  27.262  -4.267  0.00  0.00     0.091 H 
ATOM     21  H   NAG d 404      -1.270  29.840  -5.455  0.00  0.00     0.210 HD
ATOM     22  H   NAG d 404      -1.503  28.045  -2.454  0.00  0.00     0.090 H 
ATOM     23  H   NAG d 404      -2.740  29.644  -1.839  0.00  0.00     0.078 H 
ATOM     24  H   NAG d 404      -3.824  29.434  -3.267  0.00  0.00     0.078 H 
ATOM     25  H   NAG d 404      -2.855  28.206  -5.176  0.00  0.00     0.091 H 
ATOM     26  H   NAG d 404      -1.899  25.562  -5.970  0.00  0.00     0.085 H 
ATOM     27  O4  NAG d 402       5.701  34.084 -10.799  0.00  0.00    -0.390 OA
ATOM     28  O5  NAG d 402       3.727  31.231  -9.731  0.00  0.00    -0.349 OA
ATOM     29  C7  NAG d 402       7.520  29.252  -7.824  0.00  0.00     0.214 C 
ATOM     30  N2  NAG d 402       6.724  30.358  -7.767  0.00  0.00    -0.349 N 
ATOM     31  C8  NAG d 402       8.271  28.846  -6.568  0.00  0.00    -0.003 C 
ATOM     32  C2  NAG d 402       5.968  30.854  -8.928  0.00  0.00     0.087 C 
ATOM     33  O6  NAG d 402       2.891  31.928 -12.264  0.00  0.00    -0.398 OA
ATOM     34  C6  NAG d 402       3.001  32.909 -11.236  0.00  0.00     0.043 C 
ATOM     35  C3  NAG d 402       6.363  32.248  -9.382  0.00  0.00     0.093 C 
ATOM     36  O7  NAG d 402       7.661  28.579  -8.825  0.00  0.00    -0.274 OA
ATOM     37  C1  NAG d 402       4.473  30.807  -8.602  0.00  0.00     0.154 C 
ATOM     38  C4  NAG d 402       5.438  32.706 -10.519  0.00  0.00     0.089 C 
ATOM     39  C5  NAG d 402       3.977  32.579 -10.134  0.00  0.00     0.089 C 
ATOM     40  O3  NAG d 402       7.645  32.235  -9.963  0.00  0.00    -0.348 OA
ATOM     41  H   NAG d 402       6.632  34.191 -11.048  0.00  0.00     0.210 HD
ATOM     42  H   NAG d 402       6.652  30.844  -6.915  0.00  0.00     0.163 HD
ATOM     43  H   NAG d 402       8.044  29.533  -5.779  0.00  0.00     0.040 H 
ATOM     44  H   NAG d 402       9.324  28.861  -6.761  0.00  0.00     0.040 H 
ATOM     45  H   NAG d 402       7.975  27.860  -6.278  0.00  0.00     0.040 H 
ATOM     46  H   NAG d 402       6.205  30.210  -9.749  0.00  0.00     0.084 H 
ATOM     47  H   NAG d 402       2.244  32.223 -12.925  0.00  0.00     0.209 HD
ATOM     48  H   NAG d 402       2.034  33.036 -10.795  0.00  0.00     0.078 H 
ATOM     49  H   NAG d 402       3.375  33.793 -11.709  0.00  0.00     0.078 H 
ATOM     50  H   NAG d 402       6.314  32.882  -8.522  0.00  0.00     0.091 H 
ATOM     51  H   NAG d 402       4.223  31.474  -7.803  0.00  0.00     0.132 H 
ATOM     52  H   NAG d 402       5.627  32.087 -11.371  0.00  0.00     0.091 H 
ATOM     53  H   NAG d 402       3.820  33.293  -9.352  0.00  0.00     0.090 H 
ATOM     54  O4  GCU d 401      12.426  34.091  -8.397  0.00  0.00    -0.390 OA
ATOM     55  C4  GCU d 401      11.379  33.804  -9.329  0.00  0.00     0.097 C 
ATOM     56  C6  GCU d 401      10.058  35.884  -8.713  0.00  0.00     0.206 C 
ATOM     57  C2  GCU d 401       9.939  31.889 -10.010  0.00  0.00     0.110 C 
ATOM     58  O3  GCU d 401      12.362  31.820 -10.211  0.00  0.00    -0.390 OA
ATOM     59  C1  GCU d 401       8.752  32.591  -9.352  0.00  0.00     0.160 C 
ATOM     60  O2  GCU d 401       9.794  30.481  -9.912  0.00  0.00    -0.388 OA
ATOM     61  O6B GCU d 401      11.186  36.310  -8.385  0.00  0.00    -0.646 OA
ATOM     62  C3  GCU d 401      11.265  32.289  -9.410  0.00  0.00     0.092 C 
ATOM     63  O5  GCU d 401       8.966  33.990  -9.551  0.00  0.00    -0.340 OA
ATOM     64  C5  GCU d 401      10.076  34.405  -8.777  0.00  0.00     0.152 C 
ATOM     65  O6A GCU d 401       8.954  36.410  -8.969  0.00  0.00    -0.646 OA
ATOM     66  H   GCU d 401      13.261  33.721  -8.724  0.00  0.00     0.210 HD
ATOM     67  H   GCU d 401      11.571  34.213 -10.299  0.00  0.00     0.091 H 
ATOM     68  H   GCU d 401       9.940  32.196 -11.035  0.00  0.00     0.094 H 
ATOM     69  H   GCU d 401      13.199  32.091  -9.803  0.00  0.00     0.210 HD
ATOM     70  H   GCU d 401       8.668  32.343  -8.314  0.00  0.00     0.133 H 
ATOM     71  H   GCU d 401       9.795  30.221  -8.977  0.00  0.00     0.210 HD
ATOM     72  H   GCU d 401      11.309  31.852  -8.435  0.00  0.00     0.091 H 
ATOM     73  H   GCU d 401      10.017  34.039  -7.773  0.00  0.00     0.104 H 
ATOM     74  O4  GCU d 405      -3.635  24.778  -4.039  0.00  0.00    -0.189 OA
ATOM     75  O2  GCU d 403       0.418  26.586  -8.481  0.00  0.00    -0.388 OA
ATOM     76  C5  GCU d 403       2.807  29.160  -6.239  0.00  0.00     0.152 C 
ATOM     77  O5  GCU d 403       1.505  28.793  -5.868  0.00  0.00    -0.340 OA
ATOM     78  C6  GCU d 403       3.213  30.360  -5.461  0.00  0.00     0.206 C 
ATOM     79  C3  GCU d 403       2.308  28.054  -8.423  0.00  0.00     0.092 C 
ATOM     80  O3  GCU d 403       2.429  28.161  -9.849  0.00  0.00    -0.390 OA
ATOM     81  C1  GCU d 403       0.796  27.743  -6.463  0.00  0.00     0.160 C 
ATOM     82  O4  GCU d 403       4.171  29.569  -8.214  0.00  0.00    -0.348 OA
ATOM     83  O6A GCU d 403       2.393  31.302  -5.351  0.00  0.00    -0.646 OA
ATOM     84  C2  GCU d 403       0.883  27.842  -7.985  0.00  0.00     0.110 C 
ATOM     85  C4  GCU d 403       2.872  29.301  -7.763  0.00  0.00     0.103 C 
ATOM     86  O6B GCU d 403       4.359  30.346  -4.970  0.00  0.00    -0.646 OA
ATOM     87  H   GCU d 403       0.451  26.589  -9.450  0.00  0.00     0.210 HD
ATOM     88  H   GCU d 403       3.528  28.408  -5.995  0.00  0.00     0.104 H 
ATOM     89  H   GCU d 403       2.868  27.195  -8.116  0.00  0.00     0.091 H 
ATOM     90  H   GCU d 403       1.930  28.933 -10.159  0.00  0.00     0.210 HD
ATOM     91  H   GCU d 403       1.302  26.928  -5.988  0.00  0.00     0.133 H 
ATOM     92  H   GCU d 403       0.305  28.664  -8.352  0.00  0.00     0.094 H 
ATOM     93  H   GCU d 403       2.273  30.143  -8.041  0.00  0.00     0.092 H 
ENDROOT
TORSDOF 23
ENDMDL
MODEL 45
REMARK VINA RESULT:      -3.6      4.479     12.659
REMARK  0 active torsions:
REMARK  status: ('A' for Active; 'I' for Inactive)
REMARK       I    between atoms: C8_1  and  C7_27 
REMARK       I    between atoms: O6_2  and  C6_34 
REMARK       I    between atoms: O4_3  and  C4_39 
REMARK       I    between atoms: O4_4  and  C4_6 
REMARK       I    between atoms: O2_7  and  C2_37 
REMARK       I    between atoms: C7_9  and  C8_15 
REMARK       I    between atoms: C7_9  and  N2_13 
REMARK       I    between atoms: N2_10  and  C2_53 
REMARK       I    between atoms: N2_10  and  C7_27 
REMARK       I    between atoms: C6_11  and  C5_48 
REMARK       I    between atoms: C5_12  and  C6_17 
REMARK       I    between atoms: N2_13  and  C2_19 
REMARK       I    between atoms: C2_16  and  O2_42 
REMARK       I    between atoms: C3_18  and  O3_23 
REMARK       I    between atoms: O3_20  and  C1_24 
REMARK       I    between atoms: O3_20  and  C3_22 
REMARK       I    between atoms: O6_21  and  C6_28 
REMARK       I    between atoms: O4_25  and  C4_50 
REMARK       I    between atoms: O4_26  and  C1_33 
REMARK       I    between atoms: O4_26  and  C4_41 
REMARK       I    between atoms: C6_28  and  C5_43 
REMARK       I    between atoms: C5_29  and  C6_34 
REMARK       I    between atoms: O3_30  and  C3_46 
REMARK       I    between atoms: C3_31  and  O3_49 
REMARK       I    between atoms: C1_38  and  O3_49 
ROOT
ATOM      1  C8  NAG d 404       7.207  27.091 -16.659  0.00  0.00    -0.003 C 
ATOM      2  O6  NAG d 404      12.558  32.395 -16.384  0.00  0.00    -0.398 OA
ATOM      3  N2  NAG d 404       9.496  27.170 -15.866  0.00  0.00    -0.349 N 
ATOM      4  O3  NAG d 404      10.858  27.556 -13.029  0.00  0.00    -0.348 OA
ATOM      5  C3  NAG d 404      10.700  28.444 -14.084  0.00  0.00     0.093 C 
ATOM      6  O4  NAG d 404      11.700  30.286 -12.780  0.00  0.00    -0.390 OA
ATOM      7  C7  NAG d 404       8.465  27.876 -16.427  0.00  0.00     0.214 C 
ATOM      8  C5  NAG d 404      11.306  30.625 -15.107  0.00  0.00     0.089 C 
ATOM      9  C6  NAG d 404      12.162  31.868 -15.108  0.00  0.00     0.043 C 
ATOM     10  O5  NAG d 404      11.324  29.963 -16.369  0.00  0.00    -0.337 OA
ATOM     11  C1  NAG d 404      11.521  28.584 -16.382  0.00  0.00     0.283 C 
ATOM     12  O7  NAG d 404       8.549  29.064 -16.728  0.00  0.00    -0.274 OA
ATOM     13  C4  NAG d 404      11.700  29.598 -14.036  0.00  0.00     0.089 C 
ATOM     14  C2  NAG d 404      10.793  27.710 -15.414  0.00  0.00     0.102 C 
ATOM     15  H   NAG d 404       7.350  26.083 -16.328  0.00  0.00     0.040 H 
ATOM     16  H   NAG d 404       6.973  27.092 -17.704  0.00  0.00     0.040 H 
ATOM     17  H   NAG d 404       6.403  27.536 -16.112  0.00  0.00     0.040 H 
ATOM     18  H   NAG d 404      13.101  33.188 -16.251  0.00  0.00     0.209 HD
ATOM     19  H   NAG d 404       9.358  26.203 -15.751  0.00  0.00     0.163 HD
ATOM     20  H   NAG d 404       9.725  28.877 -13.987  0.00  0.00     0.091 H 
ATOM     21  H   NAG d 404      11.946  29.669 -12.074  0.00  0.00     0.210 HD
ATOM     22  H   NAG d 404      10.324  30.988 -14.887  0.00  0.00     0.090 H 
ATOM     23  H   NAG d 404      11.617  32.634 -14.598  0.00  0.00     0.078 H 
ATOM     24  H   NAG d 404      13.077  31.572 -14.638  0.00  0.00     0.078 H 
ATOM     25  H   NAG d 404      12.672  29.178 -14.194  0.00  0.00     0.091 H 
ATOM     26  H   NAG d 404      11.369  26.815 -15.312  0.00  0.00     0.085 H 
ATOM     27  O4  NAG d 402       9.571  26.837  -3.045  0.00  0.00    -0.390 OA
ATOM     28  O5  NAG d 402       9.918  26.303  -6.619  0.00  0.00    -0.349 OA
ATOM     29  C7  NAG d 402       5.267  25.974  -7.076  0.00  0.00     0.214 C 
ATOM     30  N2  NAG d 402       6.266  26.814  -6.678  0.00  0.00    -0.349 N 
ATOM     31  C8  NAG d 402       3.973  26.590  -7.577  0.00  0.00    -0.003 C 
ATOM     32  C2  NAG d 402       7.553  26.328  -6.155  0.00  0.00     0.087 C 
ATOM     33  O6  NAG d 402      11.913  24.875  -5.361  0.00  0.00    -0.398 OA
ATOM     34  C6  NAG d 402      11.691  26.249  -5.051  0.00  0.00     0.043 C 
ATOM     35  C3  NAG d 402       7.840  26.739  -4.722  0.00  0.00     0.093 C 
ATOM     36  O7  NAG d 402       5.359  24.764  -7.046  0.00  0.00    -0.274 OA
ATOM     37  C1  NAG d 402       8.676  26.809  -7.079  0.00  0.00     0.154 C 
ATOM     38  C4  NAG d 402       9.249  26.278  -4.321  0.00  0.00     0.089 C 
ATOM     39  C5  NAG d 402      10.293  26.751  -5.315  0.00  0.00     0.089 C 
ATOM     40  O3  NAG d 402       6.988  26.059  -3.832  0.00  0.00    -0.348 OA
ATOM     41  H   NAG d 402       8.916  26.548  -2.391  0.00  0.00     0.210 HD
ATOM     42  H   NAG d 402       6.120  27.785  -6.744  0.00  0.00     0.163 HD
ATOM     43  H   NAG d 402       4.048  27.656  -7.543  0.00  0.00     0.040 H 
ATOM     44  H   NAG d 402       3.161  26.269  -6.958  0.00  0.00     0.040 H 
ATOM     45  H   NAG d 402       3.797  26.277  -8.586  0.00  0.00     0.040 H 
ATOM     46  H   NAG d 402       7.496  25.260  -6.138  0.00  0.00     0.084 H 
ATOM     47  H   NAG d 402      12.833  24.643  -5.161  0.00  0.00     0.209 HD
ATOM     48  H   NAG d 402      12.369  26.833  -5.637  0.00  0.00     0.078 H 
ATOM     49  H   NAG d 402      11.846  26.343  -3.996  0.00  0.00     0.078 H 
ATOM     50  H   NAG d 402       7.718  27.801  -4.671  0.00  0.00     0.091 H 
ATOM     51  H   NAG d 402       8.760  27.875  -7.075  0.00  0.00     0.132 H 
ATOM     52  H   NAG d 402       9.254  25.208  -4.297  0.00  0.00     0.091 H 
ATOM     53  H   NAG d 402      10.320  27.817  -5.222  0.00  0.00     0.090 H 
ATOM     54  O4  GCU d 401       2.831  27.588  -0.809  0.00  0.00    -0.390 OA
ATOM     55  C4  GCU d 401       4.027  26.862  -1.114  0.00  0.00     0.097 C 
ATOM     56  C6  GCU d 401       5.539  28.811  -0.511  0.00  0.00     0.206 C 
ATOM     57  C2  GCU d 401       4.945  25.428  -2.930  0.00  0.00     0.110 C 
ATOM     58  O3  GCU d 401       2.943  24.820  -1.691  0.00  0.00    -0.390 OA
ATOM     59  C1  GCU d 401       5.898  26.564  -3.299  0.00  0.00     0.160 C 
ATOM     60  O2  GCU d 401       4.590  24.688  -4.088  0.00  0.00    -0.388 OA
ATOM     61  O6B GCU d 401       4.573  29.133   0.212  0.00  0.00    -0.646 OA
ATOM     62  C3  GCU d 401       3.687  25.913  -2.252  0.00  0.00     0.092 C 
ATOM     63  O5  GCU d 401       6.234  27.207  -2.069  0.00  0.00    -0.340 OA
ATOM     64  C5  GCU d 401       5.091  27.874  -1.566  0.00  0.00     0.152 C 
ATOM     65  O6A GCU d 401       6.751  29.111  -0.552  0.00  0.00    -0.646 OA
ATOM     66  H   GCU d 401       2.142  26.969  -0.520  0.00  0.00     0.210 HD
ATOM     67  H   GCU d 401       4.398  26.314  -0.273  0.00  0.00     0.091 H 
ATOM     68  H   GCU d 401       5.471  24.807  -2.235  0.00  0.00     0.094 H 
ATOM     69  H   GCU d 401       2.142  25.160  -1.263  0.00  0.00     0.210 HD
ATOM     70  H   GCU d 401       5.456  27.243  -3.998  0.00  0.00     0.133 H 
ATOM     71  H   GCU d 401       4.115  25.265  -4.706  0.00  0.00     0.210 HD
ATOM     72  H   GCU d 401       3.103  26.409  -2.999  0.00  0.00     0.091 H 
ATOM     73  H   GCU d 401       4.606  28.453  -2.325  0.00  0.00     0.104 H 
ATOM     74  O4  GCU d 405      11.793  28.153 -17.632  0.00  0.00    -0.189 OA
ATOM     75  O2  GCU d 403      10.769  25.066 -12.261  0.00  0.00    -0.388 OA
ATOM     76  C5  GCU d 403       8.589  27.959 -10.201  0.00  0.00     0.152 C 
ATOM     77  O5  GCU d 403       9.429  28.250 -11.285  0.00  0.00    -0.340 OA
ATOM     78  C6  GCU d 403       8.289  29.217  -9.468  0.00  0.00     0.206 C 
ATOM     79  C3  GCU d 403       9.589  25.670 -10.267  0.00  0.00     0.092 C 
ATOM     80  O3  GCU d 403      10.120  24.596  -9.477  0.00  0.00    -0.390 OA
ATOM     81  C1  GCU d 403       9.958  27.276 -12.140  0.00  0.00     0.160 C 
ATOM     82  O4  GCU d 403       8.384  26.424  -8.321  0.00  0.00    -0.348 OA
ATOM     83  O6A GCU d 403       9.235  30.004  -9.227  0.00  0.00    -0.646 OA
ATOM     84  C2  GCU d 403      10.554  26.127 -11.329  0.00  0.00     0.110 C 
ATOM     85  C4  GCU d 403       9.219  26.837  -9.368  0.00  0.00     0.103 C 
ATOM     86  O6B GCU d 403       7.102  29.400  -9.135  0.00  0.00    -0.646 OA
ATOM     87  H   GCU d 403      11.149  24.303 -11.800  0.00  0.00     0.210 HD
ATOM     88  H   GCU d 403       7.638  27.579 -10.511  0.00  0.00     0.104 H 
ATOM     89  H   GCU d 403       8.716  25.302 -10.765  0.00  0.00     0.091 H 
ATOM     90  H   GCU d 403      10.916  24.898  -9.012  0.00  0.00     0.210 HD
ATOM     91  H   GCU d 403       9.074  27.076 -12.709  0.00  0.00     0.133 H 
ATOM     92  H   GCU d 403      11.457  26.428 -10.840  0.00  0.00     0.094 H 
ATOM     93  H   GCU d 403      10.108  27.223  -8.915  0.00  0.00     0.092 H 
ENDROOT
TORSDOF 23
ENDMDL
MODEL 46
REMARK VINA RESULT:      -3.4      4.838     12.179
REMARK  0 active torsions:
REMARK  status: ('A' for Active; 'I' for Inactive)
REMARK       I    between atoms: C8_1  and  C7_27 
REMARK       I    between atoms: O6_2  and  C6_34 
REMARK       I    between atoms: O4_3  and  C4_39 
REMARK       I    between atoms: O4_4  and  C4_6 
REMARK       I    between atoms: O2_7  and  C2_37 
REMARK       I    between atoms: C7_9  and  C8_15 
REMARK       I    between atoms: C7_9  and  N2_13 
REMARK       I    between atoms: N2_10  and  C2_53 
REMARK       I    between atoms: N2_10  and  C7_27 
REMARK       I    between atoms: C6_11  and  C5_48 
REMARK       I    between atoms: C5_12  and  C6_17 
REMARK       I    between atoms: N2_13  and  C2_19 
REMARK       I    between atoms: C2_16  and  O2_42 
REMARK       I    between atoms: C3_18  and  O3_23 
REMARK       I    between atoms: O3_20  and  C1_24 
REMARK       I    between atoms: O3_20  and  C3_22 
REMARK       I    between atoms: O6_21  and  C6_28 
REMARK       I    between atoms: O4_25  and  C4_50 
REMARK       I    between atoms: O4_26  and  C1_33 
REMARK       I    between atoms: O4_26  and  C4_41 
REMARK       I    between atoms: C6_28  and  C5_43 
REMARK       I    between atoms: C5_29  and  C6_34 
REMARK       I    between atoms: O3_30  and  C3_46 
REMARK       I    between atoms: C3_31  and  O3_49 
REMARK       I    between atoms: C1_38  and  O3_49 
ROOT
ATOM      1  C8  NAG d 404       9.353  32.534 -15.804  0.00  0.00    -0.003 C 
ATOM      2  O6  NAG d 404      12.559  26.274 -18.521  0.00  0.00    -0.398 OA
ATOM      3  N2  NAG d 404       8.564  30.308 -16.353  0.00  0.00    -0.349 N 
ATOM      4  O3  NAG d 404       7.989  27.675 -14.686  0.00  0.00    -0.348 OA
ATOM      5  C3  NAG d 404       9.055  28.007 -15.511  0.00  0.00     0.093 C 
ATOM      6  O4  NAG d 404      10.223  25.900 -14.975  0.00  0.00    -0.390 OA
ATOM      7  C7  NAG d 404       9.648  31.145 -16.293  0.00  0.00     0.214 C 
ATOM      8  C5  NAG d 404      11.078  27.257 -16.740  0.00  0.00     0.089 C 
ATOM      9  C6  NAG d 404      11.966  26.135 -17.220  0.00  0.00     0.043 C 
ATOM     10  O5  NAG d 404      10.680  28.116 -17.805  0.00  0.00    -0.337 OA
ATOM     11  C1  NAG d 404       9.334  28.467 -17.895  0.00  0.00     0.283 C 
ATOM     12  O7  NAG d 404      10.782  30.801 -16.614  0.00  0.00    -0.274 OA
ATOM     13  C4  NAG d 404       9.806  26.780 -16.025  0.00  0.00     0.089 C 
ATOM     14  C2  NAG d 404       8.577  28.869 -16.672  0.00  0.00     0.102 C 
ATOM     15  H   NAG d 404       8.310  32.620 -15.580  0.00  0.00     0.040 H 
ATOM     16  H   NAG d 404       9.615  33.242 -16.563  0.00  0.00     0.040 H 
ATOM     17  H   NAG d 404       9.925  32.729 -14.921  0.00  0.00     0.040 H 
ATOM     18  H   NAG d 404      13.103  25.495 -18.713  0.00  0.00     0.209 HD
ATOM     19  H   NAG d 404       7.686  30.710 -16.164  0.00  0.00     0.163 HD
ATOM     20  H   NAG d 404       9.748  28.568 -14.918  0.00  0.00     0.091 H 
ATOM     21  H   NAG d 404       9.445  25.576 -14.496  0.00  0.00     0.210 HD
ATOM     22  H   NAG d 404      11.687  27.785 -16.038  0.00  0.00     0.090 H 
ATOM     23  H   NAG d 404      12.762  26.030 -16.513  0.00  0.00     0.078 H 
ATOM     24  H   NAG d 404      11.318  25.287 -17.304  0.00  0.00     0.078 H 
ATOM     25  H   NAG d 404       9.136  26.248 -16.667  0.00  0.00     0.091 H 
ATOM     26  H   NAG d 404       7.543  28.688 -16.875  0.00  0.00     0.085 H 
ATOM     27  O4  NAG d 402       5.949  23.930  -5.539  0.00  0.00    -0.390 OA
ATOM     28  O5  NAG d 402       5.977  25.646  -8.738  0.00  0.00    -0.349 OA
ATOM     29  C7  NAG d 402       7.220  29.647  -6.641  0.00  0.00     0.214 C 
ATOM     30  N2  NAG d 402       7.617  28.359  -6.852  0.00  0.00    -0.349 N 
ATOM     31  C8  NAG d 402       8.292  30.693  -6.387  0.00  0.00    -0.003 C 
ATOM     32  C2  NAG d 402       6.665  27.262  -7.086  0.00  0.00     0.087 C 
ATOM     33  O6  NAG d 402       3.793  23.964  -8.708  0.00  0.00    -0.398 OA
ATOM     34  C6  NAG d 402       5.088  23.485  -8.354  0.00  0.00     0.043 C 
ATOM     35  C3  NAG d 402       6.702  26.167  -6.034  0.00  0.00     0.093 C 
ATOM     36  O7  NAG d 402       6.058  29.998  -6.642  0.00  0.00    -0.274 OA
ATOM     37  C1  NAG d 402       6.923  26.670  -8.475  0.00  0.00     0.154 C 
ATOM     38  C4  NAG d 402       5.756  25.026  -6.436  0.00  0.00     0.089 C 
ATOM     39  C5  NAG d 402       6.045  24.534  -7.842  0.00  0.00     0.089 C 
ATOM     40  O3  NAG d 402       6.179  26.635  -4.814  0.00  0.00    -0.348 OA
ATOM     41  H   NAG d 402       5.770  24.220  -4.631  0.00  0.00     0.210 HD
ATOM     42  H   NAG d 402       8.580  28.155  -6.848  0.00  0.00     0.163 HD
ATOM     43  H   NAG d 402       9.256  30.230  -6.418  0.00  0.00     0.040 H 
ATOM     44  H   NAG d 402       8.138  31.135  -5.425  0.00  0.00     0.040 H 
ATOM     45  H   NAG d 402       8.235  31.450  -7.141  0.00  0.00     0.040 H 
ATOM     46  H   NAG d 402       5.684  27.684  -7.021  0.00  0.00     0.084 H 
ATOM     47  H   NAG d 402       3.251  23.224  -9.025  0.00  0.00     0.209 HD
ATOM     48  H   NAG d 402       5.524  23.036  -9.222  0.00  0.00     0.078 H 
ATOM     49  H   NAG d 402       4.940  22.799  -7.546  0.00  0.00     0.078 H 
ATOM     50  H   NAG d 402       7.721  25.853  -5.945  0.00  0.00     0.091 H 
ATOM     51  H   NAG d 402       7.890  26.216  -8.536  0.00  0.00     0.132 H 
ATOM     52  H   NAG d 402       4.753  25.397  -6.398  0.00  0.00     0.091 H 
ATOM     53  H   NAG d 402       7.013  24.081  -7.798  0.00  0.00     0.090 H 
ATOM     54  O4  GCU d 401       8.378  27.828  -0.071  0.00  0.00    -0.390 OA
ATOM     55  C4  GCU d 401       7.379  27.305  -0.952  0.00  0.00     0.097 C 
ATOM     56  C6  GCU d 401       8.611  25.109  -1.284  0.00  0.00     0.206 C 
ATOM     57  C2  GCU d 401       6.075  28.015  -2.951  0.00  0.00     0.110 C 
ATOM     58  O3  GCU d 401       5.919  29.184  -0.824  0.00  0.00    -0.390 OA
ATOM     59  C1  GCU d 401       6.899  27.041  -3.792  0.00  0.00     0.160 C 
ATOM     60  O2  GCU d 401       5.704  29.143  -3.727  0.00  0.00    -0.388 OA
ATOM     61  O6B GCU d 401       9.087  25.388  -0.164  0.00  0.00    -0.646 OA
ATOM     62  C3  GCU d 401       6.804  28.487  -1.716  0.00  0.00     0.092 C 
ATOM     63  O5  GCU d 401       7.173  25.926  -2.942  0.00  0.00    -0.340 OA
ATOM     64  C5  GCU d 401       8.067  26.330  -1.921  0.00  0.00     0.152 C 
ATOM     65  O6A GCU d 401       8.515  24.069  -1.970  0.00  0.00    -0.646 OA
ATOM     66  H   GCU d 401       7.967  28.448   0.552  0.00  0.00     0.210 HD
ATOM     67  H   GCU d 401       6.601  26.789  -0.428  0.00  0.00     0.091 H 
ATOM     68  H   GCU d 401       5.207  27.477  -2.631  0.00  0.00     0.094 H 
ATOM     69  H   GCU d 401       6.413  29.475  -0.042  0.00  0.00     0.210 HD
ATOM     70  H   GCU d 401       7.796  27.494  -4.161  0.00  0.00     0.133 H 
ATOM     71  H   GCU d 401       6.501  29.618  -4.009  0.00  0.00     0.210 HD
ATOM     72  H   GCU d 401       7.583  29.141  -2.047  0.00  0.00     0.091 H 
ATOM     73  H   GCU d 401       8.894  26.883  -2.315  0.00  0.00     0.104 H 
ATOM     74  O4  GCU d 405       9.070  29.037 -19.090  0.00  0.00    -0.189 OA
ATOM     75  O2  GCU d 403       5.560  28.260 -13.941  0.00  0.00    -0.388 OA
ATOM     76  C5  GCU d 403       8.577  27.890 -11.092  0.00  0.00     0.152 C 
ATOM     77  O5  GCU d 403       8.777  27.670 -12.462  0.00  0.00    -0.340 OA
ATOM     78  C6  GCU d 403       9.714  27.302 -10.336  0.00  0.00     0.206 C 
ATOM     79  C3  GCU d 403       6.141  27.966 -11.637  0.00  0.00     0.092 C 
ATOM     80  O3  GCU d 403       4.831  27.541 -11.231  0.00  0.00    -0.390 OA
ATOM     81  C1  GCU d 403       7.854  28.036 -13.449  0.00  0.00     0.160 C 
ATOM     82  O4  GCU d 403       6.877  27.661  -9.363  0.00  0.00    -0.348 OA
ATOM     83  O6A GCU d 403      10.107  26.154 -10.650  0.00  0.00    -0.646 OA
ATOM     84  C2  GCU d 403       6.451  27.576 -13.059  0.00  0.00     0.110 C 
ATOM     85  C4  GCU d 403       7.185  27.383 -10.701  0.00  0.00     0.103 C 
ATOM     86  O6B GCU d 403      10.200  28.001  -9.424  0.00  0.00    -0.646 OA
ATOM     87  H   GCU d 403       4.646  28.005 -13.739  0.00  0.00     0.210 HD
ATOM     88  H   GCU d 403       8.579  28.930 -10.840  0.00  0.00     0.104 H 
ATOM     89  H   GCU d 403       6.162  29.035 -11.587  0.00  0.00     0.091 H 
ATOM     90  H   GCU d 403       4.779  26.573 -11.267  0.00  0.00     0.210 HD
ATOM     91  H   GCU d 403       8.048  29.089 -13.456  0.00  0.00     0.133 H 
ATOM     92  H   GCU d 403       6.360  26.512 -13.130  0.00  0.00     0.094 H 
ATOM     93  H   GCU d 403       7.184  26.317 -10.798  0.00  0.00     0.092 H 
ENDROOT
TORSDOF 23
ENDMDL
MODEL 47
REMARK VINA RESULT:      -3.2      4.260      5.181
REMARK  0 active torsions:
REMARK  status: ('A' for Active; 'I' for Inactive)
REMARK       I    between atoms: C8_1  and  C7_27 
REMARK       I    between atoms: O6_2  and  C6_34 
REMARK       I    between atoms: O4_3  and  C4_39 
REMARK       I    between atoms: O4_4  and  C4_6 
REMARK       I    between atoms: O2_7  and  C2_37 
REMARK       I    between atoms: C7_9  and  C8_15 
REMARK       I    between atoms: C7_9  and  N2_13 
REMARK       I    between atoms: N2_10  and  C2_53 
REMARK       I    between atoms: N2_10  and  C7_27 
REMARK       I    between atoms: C6_11  and  C5_48 
REMARK       I    between atoms: C5_12  and  C6_17 
REMARK       I    between atoms: N2_13  and  C2_19 
REMARK       I    between atoms: C2_16  and  O2_42 
REMARK       I    between atoms: C3_18  and  O3_23 
REMARK       I    between atoms: O3_20  and  C1_24 
REMARK       I    between atoms: O3_20  and  C3_22 
REMARK       I    between atoms: O6_21  and  C6_28 
REMARK       I    between atoms: O4_25  and  C4_50 
REMARK       I    between atoms: O4_26  and  C1_33 
REMARK       I    between atoms: O4_26  and  C4_41 
REMARK       I    between atoms: C6_28  and  C5_43 
REMARK       I    between atoms: C5_29  and  C6_34 
REMARK       I    between atoms: O3_30  and  C3_46 
REMARK       I    between atoms: C3_31  and  O3_49 
REMARK       I    between atoms: C1_38  and  O3_49 
ROOT
ATOM      1  C8  NAG d 404       5.727  28.874   0.274  0.00  0.00    -0.003 C 
ATOM      2  O6  NAG d 404       0.644  23.589  -1.479  0.00  0.00    -0.398 OA
ATOM      3  N2  NAG d 404       5.843  26.563  -0.449  0.00  0.00    -0.349 N 
ATOM      4  O3  NAG d 404       6.312  25.122  -3.232  0.00  0.00    -0.348 OA
ATOM      5  C3  NAG d 404       5.148  25.324  -2.505  0.00  0.00     0.093 C 
ATOM      6  O4  NAG d 404       3.771  24.309  -4.284  0.00  0.00    -0.390 OA
ATOM      7  C7  NAG d 404       5.022  27.620  -0.156  0.00  0.00     0.214 C 
ATOM      8  C5  NAG d 404       2.747  24.778  -2.183  0.00  0.00     0.089 C 
ATOM      9  C6  NAG d 404       1.544  23.939  -2.542  0.00  0.00     0.043 C 
ATOM     10  O5  NAG d 404       2.990  24.790  -0.780  0.00  0.00    -0.337 OA
ATOM     11  C1  NAG d 404       4.295  24.575  -0.340  0.00  0.00     0.283 C 
ATOM     12  O7  NAG d 404       3.797  27.562  -0.231  0.00  0.00    -0.274 OA
ATOM     13  C4  NAG d 404       4.042  24.338  -2.878  0.00  0.00     0.089 C 
ATOM     14  C2  NAG d 404       5.439  25.262  -1.012  0.00  0.00     0.102 C 
ATOM     15  H   NAG d 404       6.784  28.709   0.270  0.00  0.00     0.040 H 
ATOM     16  H   NAG d 404       5.411  29.140   1.262  0.00  0.00     0.040 H 
ATOM     17  H   NAG d 404       5.488  29.668  -0.403  0.00  0.00     0.040 H 
ATOM     18  H   NAG d 404      -0.082  23.053  -1.834  0.00  0.00     0.209 HD
ATOM     19  H   NAG d 404       6.802  26.686  -0.265  0.00  0.00     0.163 HD
ATOM     20  H   NAG d 404       4.788  26.300  -2.753  0.00  0.00     0.091 H 
ATOM     21  H   NAG d 404       4.569  24.034  -4.762  0.00  0.00     0.210 HD
ATOM     22  H   NAG d 404       2.490  25.757  -2.528  0.00  0.00     0.090 H 
ATOM     23  H   NAG d 404       0.982  24.479  -3.274  0.00  0.00     0.078 H 
ATOM     24  H   NAG d 404       1.950  23.007  -2.876  0.00  0.00     0.078 H 
ATOM     25  H   NAG d 404       4.372  23.366  -2.576  0.00  0.00     0.091 H 
ATOM     26  H   NAG d 404       6.310  24.670  -0.821  0.00  0.00     0.085 H 
ATOM     27  O4  NAG d 402      10.075  26.096 -12.546  0.00  0.00    -0.390 OA
ATOM     28  O5  NAG d 402       9.484  25.850  -8.973  0.00  0.00    -0.349 OA
ATOM     29  C7  NAG d 402       9.760  30.508  -8.553  0.00  0.00     0.214 C 
ATOM     30  N2  NAG d 402       9.059  29.509  -9.164  0.00  0.00    -0.349 N 
ATOM     31  C8  NAG d 402       9.049  31.826  -8.296  0.00  0.00    -0.003 C 
ATOM     32  C2  NAG d 402       9.654  28.201  -9.481  0.00  0.00     0.087 C 
ATOM     33  O6  NAG d 402      11.184  23.800  -9.684  0.00  0.00    -0.398 OA
ATOM     34  C6  NAG d 402       9.976  24.030 -10.405  0.00  0.00     0.043 C 
ATOM     35  C3  NAG d 402       9.694  27.875 -10.964  0.00  0.00     0.093 C 
ATOM     36  O7  NAG d 402      10.919  30.399  -8.208  0.00  0.00    -0.274 OA
ATOM     37  C1  NAG d 402       8.889  27.113  -8.721  0.00  0.00     0.154 C 
ATOM     38  C4  NAG d 402      10.225  26.449 -11.169  0.00  0.00     0.089 C 
ATOM     39  C5  NAG d 402       9.448  25.442 -10.342  0.00  0.00     0.089 C 
ATOM     40  O3  NAG d 402      10.632  28.692 -11.624  0.00  0.00    -0.348 OA
ATOM     41  H   NAG d 402      10.564  26.727 -13.097  0.00  0.00     0.210 HD
ATOM     42  H   NAG d 402       8.118  29.671  -9.402  0.00  0.00     0.163 HD
ATOM     43  H   NAG d 402       8.042  31.763  -8.653  0.00  0.00     0.040 H 
ATOM     44  H   NAG d 402       9.561  32.613  -8.808  0.00  0.00     0.040 H 
ATOM     45  H   NAG d 402       9.042  32.027  -7.245  0.00  0.00     0.040 H 
ATOM     46  H   NAG d 402      10.677  28.243  -9.171  0.00  0.00     0.084 H 
ATOM     47  H   NAG d 402      11.446  22.871  -9.781  0.00  0.00     0.209 HD
ATOM     48  H   NAG d 402       9.225  23.378 -10.010  0.00  0.00     0.078 H 
ATOM     49  H   NAG d 402      10.205  23.844 -11.434  0.00  0.00     0.078 H 
ATOM     50  H   NAG d 402       8.702  28.011 -11.340  0.00  0.00     0.091 H 
ATOM     51  H   NAG d 402       7.874  27.043  -9.049  0.00  0.00     0.132 H 
ATOM     52  H   NAG d 402      11.250  26.429 -10.865  0.00  0.00     0.091 H 
ATOM     53  H   NAG d 402       8.461  25.427 -10.756  0.00  0.00     0.090 H 
ATOM     54  O4  GCU d 401      10.192  32.775 -15.071  0.00  0.00    -0.390 OA
ATOM     55  C4  GCU d 401      10.763  31.580 -14.529  0.00  0.00     0.097 C 
ATOM     56  C6  GCU d 401       9.059  30.075 -15.662  0.00  0.00     0.206 C 
ATOM     57  C2  GCU d 401      11.553  30.698 -12.339  0.00  0.00     0.110 C 
ATOM     58  O3  GCU d 401      12.555  32.653 -13.382  0.00  0.00    -0.390 OA
ATOM     59  C1  GCU d 401      10.338  29.771 -12.312  0.00  0.00     0.160 C 
ATOM     60  O2  GCU d 401      11.912  31.078 -11.020  0.00  0.00    -0.388 OA
ATOM     61  O6B GCU d 401       8.994  31.024 -16.473  0.00  0.00    -0.646 OA
ATOM     62  C3  GCU d 401      11.326  31.941 -13.164  0.00  0.00     0.092 C 
ATOM     63  O5  GCU d 401      10.094  29.407 -13.671  0.00  0.00    -0.340 OA
ATOM     64  C5  GCU d 401       9.638  30.543 -14.382  0.00  0.00     0.152 C 
ATOM     65  O6A GCU d 401       8.734  28.869 -15.685  0.00  0.00    -0.646 OA
ATOM     66  H   GCU d 401      10.884  33.447 -15.174  0.00  0.00     0.210 HD
ATOM     67  H   GCU d 401      11.533  31.176 -15.152  0.00  0.00     0.091 H 
ATOM     68  H   GCU d 401      12.345  30.143 -12.798  0.00  0.00     0.094 H 
ATOM     69  H   GCU d 401      12.379  33.445 -13.914  0.00  0.00     0.210 HD
ATOM     70  H   GCU d 401       9.488  30.244 -11.865  0.00  0.00     0.133 H 
ATOM     71  H   GCU d 401      11.184  31.579 -10.619  0.00  0.00     0.210 HD
ATOM     72  H   GCU d 401      10.639  32.554 -12.619  0.00  0.00     0.091 H 
ATOM     73  H   GCU d 401       8.866  31.059 -13.849  0.00  0.00     0.104 H 
ATOM     74  O4  GCU d 405       4.317  24.335   0.988  0.00  0.00    -0.189 OA
ATOM     75  O2  GCU d 403       8.919  25.155  -3.204  0.00  0.00    -0.388 OA
ATOM     76  C5  GCU d 403       6.843  27.309  -6.104  0.00  0.00     0.152 C 
ATOM     77  O5  GCU d 403       6.216  26.507  -5.140  0.00  0.00    -0.340 OA
ATOM     78  C6  GCU d 403       5.876  27.603  -7.194  0.00  0.00     0.206 C 
ATOM     79  C3  GCU d 403       8.979  26.281  -5.316  0.00  0.00     0.092 C 
ATOM     80  O3  GCU d 403      10.232  25.712  -5.726  0.00  0.00    -0.390 OA
ATOM     81  C1  GCU d 403       6.870  25.991  -4.015  0.00  0.00     0.160 C 
ATOM     82  O4  GCU d 403       8.883  27.437  -7.429  0.00  0.00    -0.348 OA
ATOM     83  O6A GCU d 403       5.179  26.662  -7.640  0.00  0.00    -0.646 OA
ATOM     84  C2  GCU d 403       8.199  25.355  -4.421  0.00  0.00     0.110 C 
ATOM     85  C4  GCU d 403       8.151  26.640  -6.538  0.00  0.00     0.103 C 
ATOM     86  O6B GCU d 403       5.830  28.783  -7.596  0.00  0.00    -0.646 OA
ATOM     87  H   GCU d 403       9.778  24.750  -3.400  0.00  0.00     0.210 HD
ATOM     88  H   GCU d 403       7.131  28.264  -5.716  0.00  0.00     0.104 H 
ATOM     89  H   GCU d 403       9.196  27.164  -4.751  0.00  0.00     0.091 H 
ATOM     90  H   GCU d 403      10.069  24.907  -6.241  0.00  0.00     0.210 HD
ATOM     91  H   GCU d 403       6.906  26.889  -3.434  0.00  0.00     0.133 H 
ATOM     92  H   GCU d 403       8.042  24.442  -4.957  0.00  0.00     0.094 H 
ATOM     93  H   GCU d 403       7.903  25.743  -7.065  0.00  0.00     0.092 H 
ENDROOT
TORSDOF 23
ENDMDL
MODEL 48
REMARK VINA RESULT:      -3.0      4.647     12.626
REMARK  0 active torsions:
REMARK  status: ('A' for Active; 'I' for Inactive)
REMARK       I    between atoms: C8_1  and  C7_27 
REMARK       I    between atoms: O6_2  and  C6_34 
REMARK       I    between atoms: O4_3  and  C4_39 
REMARK       I    between atoms: O4_4  and  C4_6 
REMARK       I    between atoms: O2_7  and  C2_37 
REMARK       I    between atoms: C7_9  and  C8_15 
REMARK       I    between atoms: C7_9  and  N2_13 
REMARK       I    between atoms: N2_10  and  C2_53 
REMARK       I    between atoms: N2_10  and  C7_27 
REMARK       I    between atoms: C6_11  and  C5_48 
REMARK       I    between atoms: C5_12  and  C6_17 
REMARK       I    between atoms: N2_13  and  C2_19 
REMARK       I    between atoms: C2_16  and  O2_42 
REMARK       I    between atoms: C3_18  and  O3_23 
REMARK       I    between atoms: O3_20  and  C1_24 
REMARK       I    between atoms: O3_20  and  C3_22 
REMARK       I    between atoms: O6_21  and  C6_28 
REMARK       I    between atoms: O4_25  and  C4_50 
REMARK       I    between atoms: O4_26  and  C1_33 
REMARK       I    between atoms: O4_26  and  C4_41 
REMARK       I    between atoms: C6_28  and  C5_43 
REMARK       I    between atoms: C5_29  and  C6_34 
REMARK       I    between atoms: O3_30  and  C3_46 
REMARK       I    between atoms: C3_31  and  O3_49 
REMARK       I    between atoms: C1_38  and  O3_49 
ROOT
ATOM      1  C8  NAG d 404       6.810  24.442 -17.658  0.00  0.00    -0.003 C 
ATOM      2  O6  NAG d 404      12.445  29.241 -19.091  0.00  0.00    -0.398 OA
ATOM      3  N2  NAG d 404       9.144  24.578 -17.019  0.00  0.00    -0.349 N 
ATOM      4  O3  NAG d 404      10.696  25.626 -14.462  0.00  0.00    -0.348 OA
ATOM      5  C3  NAG d 404      10.522  26.203 -15.712  0.00  0.00     0.093 C 
ATOM      6  O4  NAG d 404      11.698  28.256 -15.012  0.00  0.00    -0.390 OA
ATOM      7  C7  NAG d 404       8.120  25.173 -17.707  0.00  0.00     0.214 C 
ATOM      8  C5  NAG d 404      11.180  27.975 -17.322  0.00  0.00     0.089 C 
ATOM      9  C6  NAG d 404      12.101  29.109 -17.703  0.00  0.00     0.043 C 
ATOM     10  O5  NAG d 404      11.085  26.996 -18.352  0.00  0.00    -0.337 OA
ATOM     11  C1  NAG d 404      11.206  25.655 -17.994  0.00  0.00     0.283 C 
ATOM     12  O7  NAG d 404       8.249  26.226 -18.327  0.00  0.00    -0.274 OA
ATOM     13  C4  NAG d 404      11.584  27.254 -16.028  0.00  0.00     0.089 C 
ATOM     14  C2  NAG d 404      10.493  25.129 -16.791  0.00  0.00     0.102 C 
ATOM     15  H   NAG d 404       6.917  23.556 -17.068  0.00  0.00     0.040 H 
ATOM     16  H   NAG d 404       6.512  24.176 -18.651  0.00  0.00     0.040 H 
ATOM     17  H   NAG d 404       6.065  25.074 -17.219  0.00  0.00     0.040 H 
ATOM     18  H   NAG d 404      13.037  30.001 -19.206  0.00  0.00     0.209 HD
ATOM     19  H   NAG d 404       8.960  23.690 -16.636  0.00  0.00     0.163 HD
ATOM     20  H   NAG d 404       9.580  26.711 -15.695  0.00  0.00     0.091 H 
ATOM     21  H   NAG d 404      11.953  27.839 -14.174  0.00  0.00     0.210 HD
ATOM     22  H   NAG d 404      10.235  28.451 -17.167  0.00  0.00     0.090 H 
ATOM     23  H   NAG d 404      11.630  30.021 -17.401  0.00  0.00     0.078 H 
ATOM     24  H   NAG d 404      13.025  28.890 -17.210  0.00  0.00     0.078 H 
ATOM     25  H   NAG d 404      12.520  26.742 -16.107  0.00  0.00     0.091 H 
ATOM     26  H   NAG d 404      11.025  24.258 -16.472  0.00  0.00     0.085 H 
ATOM     27  O4  NAG d 402       9.988  27.741  -4.619  0.00  0.00    -0.390 OA
ATOM     28  O5  NAG d 402      10.086  26.232  -7.920  0.00  0.00    -0.349 OA
ATOM     29  C7  NAG d 402       5.405  26.111  -8.061  0.00  0.00     0.214 C 
ATOM     30  N2  NAG d 402       6.470  26.958  -7.955  0.00  0.00    -0.349 N 
ATOM     31  C8  NAG d 402       4.117  26.655  -8.655  0.00  0.00    -0.003 C 
ATOM     32  C2  NAG d 402       7.758  26.545  -7.376  0.00  0.00     0.087 C 
ATOM     33  O6  NAG d 402      12.074  25.067  -6.406  0.00  0.00    -0.398 OA
ATOM     34  C6  NAG d 402      11.947  26.485  -6.477  0.00  0.00     0.043 C 
ATOM     35  C3  NAG d 402       8.155  27.309  -6.125  0.00  0.00     0.093 C 
ATOM     36  O7  NAG d 402       5.433  24.952  -7.704  0.00  0.00    -0.274 OA
ATOM     37  C1  NAG d 402       8.846  26.678  -8.446  0.00  0.00     0.154 C 
ATOM     38  C4  NAG d 402       9.559  26.879  -5.676  0.00  0.00     0.089 C 
ATOM     39  C5  NAG d 402      10.564  26.991  -6.807  0.00  0.00     0.089 C 
ATOM     40  O3  NAG d 402       7.323  26.958  -5.046  0.00  0.00    -0.348 OA
ATOM     41  H   NAG d 402       9.360  27.687  -3.883  0.00  0.00     0.210 HD
ATOM     42  H   NAG d 402       6.372  27.882  -8.279  0.00  0.00     0.163 HD
ATOM     43  H   NAG d 402       4.252  27.683  -8.919  0.00  0.00     0.040 H 
ATOM     44  H   NAG d 402       3.329  26.571  -7.935  0.00  0.00     0.040 H 
ATOM     45  H   NAG d 402       3.863  26.093  -9.529  0.00  0.00     0.040 H 
ATOM     46  H   NAG d 402       7.645  25.528  -7.063  0.00  0.00     0.084 H 
ATOM     47  H   NAG d 402      12.991  24.835  -6.191  0.00  0.00     0.209 HD
ATOM     48  H   NAG d 402      12.617  26.840  -7.231  0.00  0.00     0.078 H 
ATOM     49  H   NAG d 402      12.171  26.852  -5.497  0.00  0.00     0.078 H 
ATOM     50  H   NAG d 402       8.093  28.351  -6.363  0.00  0.00     0.091 H 
ATOM     51  H   NAG d 402       8.988  27.697  -8.738  0.00  0.00     0.132 H 
ATOM     52  H   NAG d 402       9.508  25.859  -5.358  0.00  0.00     0.091 H 
ATOM     53  H   NAG d 402      10.654  28.037  -7.013  0.00  0.00     0.090 H 
ATOM     54  O4  GCU d 401       3.449  29.533  -2.379  0.00  0.00    -0.390 OA
ATOM     55  C4  GCU d 401       4.583  28.671  -2.525  0.00  0.00     0.097 C 
ATOM     56  C6  GCU d 401       6.232  30.602  -2.550  0.00  0.00     0.206 C 
ATOM     57  C2  GCU d 401       5.309  26.737  -3.915  0.00  0.00     0.110 C 
ATOM     58  O3  GCU d 401       3.357  26.628  -2.469  0.00  0.00    -0.390 OA
ATOM     59  C1  GCU d 401       6.297  27.662  -4.625  0.00  0.00     0.160 C 
ATOM     60  O2  GCU d 401       4.844  25.737  -4.807  0.00  0.00    -0.388 OA
ATOM     61  O6B GCU d 401       5.331  31.174  -1.902  0.00  0.00    -0.646 OA
ATOM     62  C3  GCU d 401       4.123  27.474  -3.342  0.00  0.00     0.092 C 
ATOM     63  O5  GCU d 401       6.743  28.591  -3.635  0.00  0.00    -0.340 OA
ATOM     64  C5  GCU d 401       5.670  29.447  -3.286  0.00  0.00     0.152 C 
ATOM     65  O6A GCU d 401       7.454  30.796  -2.726  0.00  0.00    -0.646 OA
ATOM     66  H   GCU d 401       2.747  29.064  -1.901  0.00  0.00     0.210 HD
ATOM     67  H   GCU d 401       4.975  28.348  -1.584  0.00  0.00     0.091 H 
ATOM     68  H   GCU d 401       5.842  26.294  -3.100  0.00  0.00     0.094 H 
ATOM     69  H   GCU d 401       2.603  27.126  -2.116  0.00  0.00     0.210 HD
ATOM     70  H   GCU d 401       5.850  28.154  -5.464  0.00  0.00     0.133 H 
ATOM     71  H   GCU d 401       4.363  26.155  -5.539  0.00  0.00     0.210 HD
ATOM     72  H   GCU d 401       3.522  27.787  -4.170  0.00  0.00     0.091 H 
ATOM     73  H   GCU d 401       5.171  29.829  -4.152  0.00  0.00     0.104 H 
ATOM     74  O4  GCU d 405      11.377  24.883 -19.088  0.00  0.00    -0.189 OA
ATOM     75  O2  GCU d 403      10.520  23.451 -13.034  0.00  0.00    -0.388 OA
ATOM     76  C5  GCU d 403       8.631  26.938 -11.756  0.00  0.00     0.152 C 
ATOM     77  O5  GCU d 403       9.416  26.865 -12.915  0.00  0.00    -0.340 OA
ATOM     78  C6  GCU d 403       8.445  28.365 -11.385  0.00  0.00     0.206 C 
ATOM     79  C3  GCU d 403       9.500  24.655 -11.234  0.00  0.00     0.092 C 
ATOM     80  O3  GCU d 403      10.019  23.802 -10.203  0.00  0.00    -0.390 OA
ATOM     81  C1  GCU d 403       9.838  25.661 -13.491  0.00  0.00     0.160 C 
ATOM     82  O4  GCU d 403       8.459  25.990  -9.519  0.00  0.00    -0.348 OA
ATOM     83  O6A GCU d 403       9.444  29.122 -11.413  0.00  0.00    -0.646 OA
ATOM     84  C2  GCU d 403      10.421  24.738 -12.422  0.00  0.00     0.110 C 
ATOM     85  C4  GCU d 403       9.249  26.045 -10.675  0.00  0.00     0.103 C 
ATOM     86  O6B GCU d 403       7.291  28.713 -11.063  0.00  0.00    -0.646 OA
ATOM     87  H   GCU d 403      10.887  22.818 -12.398  0.00  0.00     0.210 HD
ATOM     88  H   GCU d 403       7.643  26.554 -11.907  0.00  0.00     0.104 H 
ATOM     89  H   GCU d 403       8.579  24.226 -11.572  0.00  0.00     0.091 H 
ATOM     90  H   GCU d 403      10.857  24.164  -9.874  0.00  0.00     0.210 HD
ATOM     91  H   GCU d 403       8.912  25.375 -13.943  0.00  0.00     0.133 H 
ATOM     92  H   GCU d 403      11.367  25.098 -12.075  0.00  0.00     0.094 H 
ATOM     93  H   GCU d 403      10.183  26.478 -10.386  0.00  0.00     0.092 H 
ENDROOT
TORSDOF 23
ENDMDL
MODEL 49
REMARK VINA RESULT:      -2.9      4.524      5.611
REMARK  0 active torsions:
REMARK  status: ('A' for Active; 'I' for Inactive)
REMARK       I    between atoms: C8_1  and  C7_27 
REMARK       I    between atoms: O6_2  and  C6_34 
REMARK       I    between atoms: O4_3  and  C4_39 
REMARK       I    between atoms: O4_4  and  C4_6 
REMARK       I    between atoms: O2_7  and  C2_37 
REMARK       I    between atoms: C7_9  and  C8_15 
REMARK       I    between atoms: C7_9  and  N2_13 
REMARK       I    between atoms: N2_10  and  C2_53 
REMARK       I    between atoms: N2_10  and  C7_27 
REMARK       I    between atoms: C6_11  and  C5_48 
REMARK       I    between atoms: C5_12  and  C6_17 
REMARK       I    between atoms: N2_13  and  C2_19 
REMARK       I    between atoms: C2_16  and  O2_42 
REMARK       I    between atoms: C3_18  and  O3_23 
REMARK       I    between atoms: O3_20  and  C1_24 
REMARK       I    between atoms: O3_20  and  C3_22 
REMARK       I    between atoms: O6_21  and  C6_28 
REMARK       I    between atoms: O4_25  and  C4_50 
REMARK       I    between atoms: O4_26  and  C1_33 
REMARK       I    between atoms: O4_26  and  C4_41 
REMARK       I    between atoms: C6_28  and  C5_43 
REMARK       I    between atoms: C5_29  and  C6_34 
REMARK       I    between atoms: O3_30  and  C3_46 
REMARK       I    between atoms: C3_31  and  O3_49 
REMARK       I    between atoms: C1_38  and  O3_49 
ROOT
ATOM      1  C8  NAG d 404       7.094  29.439  -2.271  0.00  0.00    -0.003 C 
ATOM      2  O6  NAG d 404       2.649  23.562  -3.864  0.00  0.00    -0.398 OA
ATOM      3  N2  NAG d 404       7.467  27.177  -3.058  0.00  0.00    -0.349 N 
ATOM      4  O3  NAG d 404       7.953  25.858  -5.899  0.00  0.00    -0.348 OA
ATOM      5  C3  NAG d 404       6.818  25.892  -5.101  0.00  0.00     0.093 C 
ATOM      6  O4  NAG d 404       5.481  24.736  -6.824  0.00  0.00    -0.390 OA
ATOM      7  C7  NAG d 404       6.534  28.111  -2.692  0.00  0.00     0.214 C 
ATOM      8  C5  NAG d 404       4.532  25.030  -4.657  0.00  0.00     0.089 C 
ATOM      9  C6  NAG d 404       3.430  24.046  -4.967  0.00  0.00     0.043 C 
ATOM     10  O5  NAG d 404       4.856  25.049  -3.270  0.00  0.00    -0.337 OA
ATOM     11  C1  NAG d 404       6.202  25.000  -2.911  0.00  0.00     0.283 C 
ATOM     12  O7  NAG d 404       5.325  27.893  -2.699  0.00  0.00    -0.274 OA
ATOM     13  C4  NAG d 404       5.830  24.776  -5.436  0.00  0.00     0.089 C 
ATOM     14  C2  NAG d 404       7.204  25.843  -3.629  0.00  0.00     0.102 C 
ATOM     15  H   NAG d 404       8.161  29.414  -2.340  0.00  0.00     0.040 H 
ATOM     16  H   NAG d 404       6.806  29.644  -1.261  0.00  0.00     0.040 H 
ATOM     17  H   NAG d 404       6.713  30.206  -2.914  0.00  0.00     0.040 H 
ATOM     18  H   NAG d 404       1.979  22.941  -4.190  0.00  0.00     0.209 HD
ATOM     19  H   NAG d 404       8.411  27.421  -2.927  0.00  0.00     0.163 HD
ATOM     20  H   NAG d 404       6.319  26.817  -5.304  0.00  0.00     0.091 H 
ATOM     21  H   NAG d 404       6.278  24.577  -7.353  0.00  0.00     0.210 HD
ATOM     22  H   NAG d 404       4.129  25.972  -4.962  0.00  0.00     0.090 H 
ATOM     23  H   NAG d 404       2.760  24.520  -5.653  0.00  0.00     0.078 H 
ATOM     24  H   NAG d 404       3.933  23.181  -5.347  0.00  0.00     0.078 H 
ATOM     25  H   NAG d 404       6.302  23.851  -5.178  0.00  0.00     0.091 H 
ATOM     26  H   NAG d 404       8.154  25.369  -3.504  0.00  0.00     0.085 H 
ATOM     27  O4  NAG d 402      10.991  27.483 -15.386  0.00  0.00    -0.390 OA
ATOM     28  O5  NAG d 402      10.653  27.099 -11.791  0.00  0.00    -0.349 OA
ATOM     29  C7  NAG d 402      10.343  31.744 -11.271  0.00  0.00     0.214 C 
ATOM     30  N2  NAG d 402       9.744  30.672 -11.865  0.00  0.00    -0.349 N 
ATOM     31  C8  NAG d 402       9.483  32.952 -10.940  0.00  0.00    -0.003 C 
ATOM     32  C2  NAG d 402      10.483  29.460 -12.249  0.00  0.00     0.087 C 
ATOM     33  O6  NAG d 402      12.560  25.303 -12.650  0.00  0.00    -0.398 OA
ATOM     34  C6  NAG d 402      11.291  25.384 -13.295  0.00  0.00     0.043 C 
ATOM     35  C3  NAG d 402      10.477  29.168 -13.739  0.00  0.00     0.093 C 
ATOM     36  O7  NAG d 402      11.525  31.783 -10.996  0.00  0.00    -0.274 OA
ATOM     37  C1  NAG d 402       9.914  28.267 -11.474  0.00  0.00     0.154 C 
ATOM     38  C4  NAG d 402      11.176  27.828 -14.010  0.00  0.00     0.089 C 
ATOM     39  C5  NAG d 402      10.588  26.713 -13.166  0.00  0.00     0.089 C 
ATOM     40  O3  NAG d 402      11.259  30.112 -14.431  0.00  0.00    -0.348 OA
ATOM     41  H   NAG d 402      11.360  28.182 -15.947  0.00  0.00     0.210 HD
ATOM     42  H   NAG d 402       8.777  30.712 -12.046  0.00  0.00     0.163 HD
ATOM     43  H   NAG d 402       8.474  32.764 -11.241  0.00  0.00     0.040 H 
ATOM     44  H   NAG d 402       9.857  33.809 -11.461  0.00  0.00     0.040 H 
ATOM     45  H   NAG d 402       9.513  33.132  -9.886  0.00  0.00     0.040 H 
ATOM     46  H   NAG d 402      11.509  29.631 -11.997  0.00  0.00     0.084 H 
ATOM     47  H   NAG d 402      12.935  24.418 -12.785  0.00  0.00     0.209 HD
ATOM     48  H   NAG d 402      10.657  24.633 -12.874  0.00  0.00     0.078 H 
ATOM     49  H   NAG d 402      11.480  25.248 -14.340  0.00  0.00     0.078 H 
ATOM     50  H   NAG d 402       9.455  29.178 -14.055  0.00  0.00     0.091 H 
ATOM     51  H   NAG d 402       8.899  28.070 -11.746  0.00  0.00     0.132 H 
ATOM     52  H   NAG d 402      12.212  27.938 -13.766  0.00  0.00     0.091 H 
ATOM     53  H   NAG d 402       9.589  26.575 -13.523  0.00  0.00     0.090 H 
ATOM     54  O4  GCU d 401      10.084  34.162 -17.744  0.00  0.00    -0.390 OA
ATOM     55  C4  GCU d 401      10.838  33.043 -17.266  0.00  0.00     0.097 C 
ATOM     56  C6  GCU d 401       9.279  31.347 -18.337  0.00  0.00     0.206 C 
ATOM     57  C2  GCU d 401      11.866  32.234 -15.147  0.00  0.00     0.110 C 
ATOM     58  O3  GCU d 401      12.540  34.322 -16.196  0.00  0.00    -0.390 OA
ATOM     59  C1  GCU d 401      10.786  31.156 -15.074  0.00  0.00     0.160 C 
ATOM     60  O2  GCU d 401      12.250  32.635 -13.842  0.00  0.00    -0.388 OA
ATOM     61  O6B GCU d 401       9.044  32.293 -19.118  0.00  0.00    -0.646 OA
ATOM     62  C3  GCU d 401      11.430  33.451 -15.926  0.00  0.00     0.092 C 
ATOM     63  O5  GCU d 401      10.511  30.786 -16.426  0.00  0.00    -0.340 OA
ATOM     64  C5  GCU d 401       9.868  31.864 -17.081  0.00  0.00     0.152 C 
ATOM     65  O6A GCU d 401       9.114  30.109 -18.372  0.00  0.00    -0.646 OA
ATOM     66  H   GCU d 401      10.676  34.920 -17.869  0.00  0.00     0.210 HD
ATOM     67  H   GCU d 401      11.615  32.755 -17.942  0.00  0.00     0.091 H 
ATOM     68  H   GCU d 401      12.694  31.797 -15.664  0.00  0.00     0.094 H 
ATOM     69  H   GCU d 401      12.231  35.094 -16.697  0.00  0.00     0.210 HD
ATOM     70  H   GCU d 401       9.910  31.504 -14.568  0.00  0.00     0.133 H 
ATOM     71  H   GCU d 401      11.489  33.029 -13.387  0.00  0.00     0.210 HD
ATOM     72  H   GCU d 401      10.702  33.958 -15.328  0.00  0.00     0.091 H 
ATOM     73  H   GCU d 401       9.069  32.264 -16.492  0.00  0.00     0.104 H 
ATOM     74  O4  GCU d 405       6.334  24.742  -1.592  0.00  0.00    -0.189 OA
ATOM     75  O2  GCU d 403      10.530  26.234  -6.019  0.00  0.00    -0.388 OA
ATOM     76  C5  GCU d 403       8.021  28.146  -8.740  0.00  0.00     0.152 C 
ATOM     77  O5  GCU d 403       7.562  27.252  -7.763  0.00  0.00    -0.340 OA
ATOM     78  C6  GCU d 403       6.960  28.330  -9.765  0.00  0.00     0.206 C 
ATOM     79  C3  GCU d 403      10.316  27.395  -8.102  0.00  0.00     0.092 C 
ATOM     80  O3  GCU d 403      11.605  27.004  -8.597  0.00  0.00    -0.390 OA
ATOM     81  C1  GCU d 403       8.345  26.807  -6.691  0.00  0.00     0.160 C 
ATOM     82  O4  GCU d 403       9.943  28.565 -10.176  0.00  0.00    -0.348 OA
ATOM     83  O6A GCU d 403       6.366  27.312 -10.195  0.00  0.00    -0.646 OA
ATOM     84  C2  GCU d 403       9.718  26.359  -7.187  0.00  0.00     0.110 C 
ATOM     85  C4  GCU d 403       9.377  27.663  -9.265  0.00  0.00     0.103 C 
ATOM     86  O6B GCU d 403       6.736  29.500 -10.135  0.00  0.00    -0.646 OA
ATOM     87  H   GCU d 403      11.421  25.949  -6.274  0.00  0.00     0.210 HD
ATOM     88  H   GCU d 403       8.204  29.124  -8.346  0.00  0.00     0.104 H 
ATOM     89  H   GCU d 403      10.450  28.289  -7.528  0.00  0.00     0.091 H 
ATOM     90  H   GCU d 403      11.518  26.193  -9.122  0.00  0.00     0.210 HD
ATOM     91  H   GCU d 403       8.298  27.692  -6.090  0.00  0.00     0.133 H 
ATOM     92  H   GCU d 403       9.650  25.443  -7.736  0.00  0.00     0.094 H 
ATOM     93  H   GCU d 403       9.216  26.750  -9.800  0.00  0.00     0.092 H 
ENDROOT
TORSDOF 23
ENDMDL
MODEL 50
REMARK VINA RESULT:      -2.9      4.699     12.404
REMARK  0 active torsions:
REMARK  status: ('A' for Active; 'I' for Inactive)
REMARK       I    between atoms: C8_1  and  C7_27 
REMARK       I    between atoms: O6_2  and  C6_34 
REMARK       I    between atoms: O4_3  and  C4_39 
REMARK       I    between atoms: O4_4  and  C4_6 
REMARK       I    between atoms: O2_7  and  C2_37 
REMARK       I    between atoms: C7_9  and  C8_15 
REMARK       I    between atoms: C7_9  and  N2_13 
REMARK       I    between atoms: N2_10  and  C2_53 
REMARK       I    between atoms: N2_10  and  C7_27 
REMARK       I    between atoms: C6_11  and  C5_48 
REMARK       I    between atoms: C5_12  and  C6_17 
REMARK       I    between atoms: N2_13  and  C2_19 
REMARK       I    between atoms: C2_16  and  O2_42 
REMARK       I    between atoms: C3_18  and  O3_23 
REMARK       I    between atoms: O3_20  and  C1_24 
REMARK       I    between atoms: O3_20  and  C3_22 
REMARK       I    between atoms: O6_21  and  C6_28 
REMARK       I    between atoms: O4_25  and  C4_50 
REMARK       I    between atoms: O4_26  and  C1_33 
REMARK       I    between atoms: O4_26  and  C4_41 
REMARK       I    between atoms: C6_28  and  C5_43 
REMARK       I    between atoms: C5_29  and  C6_34 
REMARK       I    between atoms: O3_30  and  C3_46 
REMARK       I    between atoms: C3_31  and  O3_49 
REMARK       I    between atoms: C1_38  and  O3_49 
ROOT
ATOM      1  C8  NAG d 404       6.962  35.566  -8.008  0.00  0.00    -0.003 C 
ATOM      2  O6  NAG d 404      12.550  34.409  -3.082  0.00  0.00    -0.398 OA
ATOM      3  N2  NAG d 404       8.589  33.805  -7.651  0.00  0.00    -0.349 N 
ATOM      4  O3  NAG d 404       8.538  30.986  -6.203  0.00  0.00    -0.348 OA
ATOM      5  C3  NAG d 404       9.071  32.201  -5.796  0.00  0.00     0.093 C 
ATOM      6  O4  NAG d 404       9.715  31.269  -3.603  0.00  0.00    -0.390 OA
ATOM      7  C7  NAG d 404       8.103  35.007  -7.209  0.00  0.00     0.214 C 
ATOM      8  C5  NAG d 404      10.516  33.435  -4.197  0.00  0.00     0.089 C 
ATOM      9  C6  NAG d 404      11.513  33.417  -3.063  0.00  0.00     0.043 C 
ATOM     10  O5  NAG d 404      10.975  34.212  -5.299  0.00  0.00    -0.337 OA
ATOM     11  C1  NAG d 404      10.866  33.664  -6.576  0.00  0.00     0.283 C 
ATOM     12  O7  NAG d 404       8.560  35.600  -6.234  0.00  0.00    -0.274 OA
ATOM     13  C4  NAG d 404      10.151  32.042  -4.727  0.00  0.00     0.089 C 
ATOM     14  C2  NAG d 404       9.611  32.970  -6.993  0.00  0.00     0.102 C 
ATOM     15  H   NAG d 404       6.723  34.895  -8.807  0.00  0.00     0.040 H 
ATOM     16  H   NAG d 404       7.241  36.517  -8.412  0.00  0.00     0.040 H 
ATOM     17  H   NAG d 404       6.107  35.683  -7.375  0.00  0.00     0.040 H 
ATOM     18  H   NAG d 404      13.122  34.293  -2.307  0.00  0.00     0.209 HD
ATOM     19  H   NAG d 404       8.216  33.462  -8.495  0.00  0.00     0.163 HD
ATOM     20  H   NAG d 404       8.274  32.759  -5.349  0.00  0.00     0.091 H 
ATOM     21  H   NAG d 404       9.474  30.378  -3.897  0.00  0.00     0.210 HD
ATOM     22  H   NAG d 404       9.642  33.876  -3.765  0.00  0.00     0.090 H 
ATOM     23  H   NAG d 404      10.966  33.541  -2.153  0.00  0.00     0.078 H 
ATOM     24  H   NAG d 404      12.024  32.482  -3.163  0.00  0.00     0.078 H 
ATOM     25  H   NAG d 404      10.975  31.538  -5.186  0.00  0.00     0.091 H 
ATOM     26  H   NAG d 404       9.877  32.300  -7.784  0.00  0.00     0.085 H 
ATOM     27  O4  NAG d 402       2.682  23.441  -2.943  0.00  0.00    -0.390 OA
ATOM     28  O5  NAG d 402       4.516  25.936  -4.837  0.00  0.00    -0.349 OA
ATOM     29  C7  NAG d 402       0.643  28.537  -5.264  0.00  0.00     0.214 C 
ATOM     30  N2  NAG d 402       1.496  27.996  -4.346  0.00  0.00    -0.349 N 
ATOM     31  C8  NAG d 402      -0.116  29.795  -4.878  0.00  0.00    -0.003 C 
ATOM     32  C2  NAG d 402       2.266  26.768  -4.605  0.00  0.00     0.087 C 
ATOM     33  O6  NAG d 402       5.364  23.452  -5.682  0.00  0.00    -0.398 OA
ATOM     34  C6  NAG d 402       5.314  23.773  -4.294  0.00  0.00     0.043 C 
ATOM     35  C3  NAG d 402       1.939  25.617  -3.669  0.00  0.00     0.093 C 
ATOM     36  O7  NAG d 402       0.459  28.065  -6.367  0.00  0.00    -0.274 OA
ATOM     37  C1  NAG d 402       3.760  27.098  -4.537  0.00  0.00     0.154 C 
ATOM     38  C4  NAG d 402       2.876  24.434  -3.953  0.00  0.00     0.089 C 
ATOM     39  C5  NAG d 402       4.332  24.856  -3.919  0.00  0.00     0.089 C 
ATOM     40  O3  NAG d 402       0.653  25.112  -3.936  0.00  0.00    -0.348 OA
ATOM     41  H   NAG d 402       1.756  23.154  -2.945  0.00  0.00     0.210 HD
ATOM     42  H   NAG d 402       1.601  28.444  -3.477  0.00  0.00     0.163 HD
ATOM     43  H   NAG d 402       0.154  30.083  -3.884  0.00  0.00     0.040 H 
ATOM     44  H   NAG d 402      -1.168  29.603  -4.921  0.00  0.00     0.040 H 
ATOM     45  H   NAG d 402       0.132  30.583  -5.558  0.00  0.00     0.040 H 
ATOM     46  H   NAG d 402       1.988  26.428  -5.580  0.00  0.00     0.084 H 
ATOM     47  H   NAG d 402       6.018  22.751  -5.828  0.00  0.00     0.209 HD
ATOM     48  H   NAG d 402       6.289  24.093  -3.993  0.00  0.00     0.078 H 
ATOM     49  H   NAG d 402       4.982  22.886  -3.796  0.00  0.00     0.078 H 
ATOM     50  H   NAG d 402       2.029  25.991  -2.671  0.00  0.00     0.091 H 
ATOM     51  H   NAG d 402       4.051  27.406  -3.555  0.00  0.00     0.132 H 
ATOM     52  H   NAG d 402       2.647  24.056  -4.928  0.00  0.00     0.091 H 
ATOM     53  H   NAG d 402       4.533  25.123  -2.902  0.00  0.00     0.090 H 
ATOM     54  O4  GCU d 401      -4.011  25.309  -1.298  0.00  0.00    -0.390 OA
ATOM     55  C4  GCU d 401      -2.989  24.707  -2.099  0.00  0.00     0.097 C 
ATOM     56  C6  GCU d 401      -1.558  24.111  -0.088  0.00  0.00     0.206 C 
ATOM     57  C2  GCU d 401      -1.656  25.214  -4.141  0.00  0.00     0.110 C 
ATOM     58  O3  GCU d 401      -4.081  25.035  -4.192  0.00  0.00    -0.390 OA
ATOM     59  C1  GCU d 401      -0.429  25.405  -3.251  0.00  0.00     0.160 C 
ATOM     60  O2  GCU d 401      -1.583  26.070  -5.270  0.00  0.00    -0.388 OA
ATOM     61  O6B GCU d 401      -2.658  24.130   0.502  0.00  0.00    -0.646 OA
ATOM     62  C3  GCU d 401      -2.954  25.471  -3.414  0.00  0.00     0.092 C 
ATOM     63  O5  GCU d 401      -0.572  24.469  -2.181  0.00  0.00    -0.340 OA
ATOM     64  C5  GCU d 401      -1.652  24.867  -1.357  0.00  0.00     0.152 C 
ATOM     65  O6A GCU d 401      -0.430  23.632   0.158  0.00  0.00    -0.646 OA
ATOM     66  H   GCU d 401      -4.867  25.220  -1.747  0.00  0.00     0.210 HD
ATOM     67  H   GCU d 401      -3.169  23.668  -2.279  0.00  0.00     0.091 H 
ATOM     68  H   GCU d 401      -1.651  24.189  -4.446  0.00  0.00     0.094 H 
ATOM     69  H   GCU d 401      -4.899  25.211  -3.702  0.00  0.00     0.210 HD
ATOM     70  H   GCU d 401      -0.348  26.411  -2.894  0.00  0.00     0.133 H 
ATOM     71  H   GCU d 401      -1.589  26.995  -4.976  0.00  0.00     0.210 HD
ATOM     72  H   GCU d 401      -3.012  26.525  -3.243  0.00  0.00     0.091 H 
ATOM     73  H   GCU d 401      -1.603  25.908  -1.116  0.00  0.00     0.104 H 
ATOM     74  O4  GCU d 405      11.588  34.381  -7.465  0.00  0.00    -0.189 OA
ATOM     75  O2  GCU d 403       7.592  29.591  -8.192  0.00  0.00    -0.388 OA
ATOM     76  C5  GCU d 403       5.360  30.010  -4.699  0.00  0.00     0.152 C 
ATOM     77  O5  GCU d 403       6.645  30.548  -4.865  0.00  0.00    -0.340 OA
ATOM     78  C6  GCU d 403       5.024  29.996  -3.251  0.00  0.00     0.206 C 
ATOM     79  C3  GCU d 403       5.781  28.798  -6.842  0.00  0.00     0.092 C 
ATOM     80  O3  GCU d 403       5.653  27.544  -7.529  0.00  0.00    -0.390 OA
ATOM     81  C1  GCU d 403       7.294  30.639  -6.102  0.00  0.00     0.160 C 
ATOM     82  O4  GCU d 403       4.001  28.106  -5.373  0.00  0.00    -0.348 OA
ATOM     83  O6A GCU d 403       5.892  29.589  -2.443  0.00  0.00    -0.646 OA
ATOM     84  C2  GCU d 403       7.198  29.309  -6.849  0.00  0.00     0.110 C 
ATOM     85  C4  GCU d 403       5.289  28.656  -5.412  0.00  0.00     0.103 C 
ATOM     86  O6B GCU d 403       3.883  30.391  -2.938  0.00  0.00    -0.646 OA
ATOM     87  H   GCU d 403       7.551  28.778  -8.719  0.00  0.00     0.210 HD
ATOM     88  H   GCU d 403       4.604  30.611  -5.158  0.00  0.00     0.104 H 
ATOM     89  H   GCU d 403       5.181  29.513  -7.366  0.00  0.00     0.091 H 
ATOM     90  H   GCU d 403       6.189  26.872  -7.077  0.00  0.00     0.210 HD
ATOM     91  H   GCU d 403       6.751  31.472  -6.498  0.00  0.00     0.133 H 
ATOM     92  H   GCU d 403       7.814  28.564  -6.391  0.00  0.00     0.094 H 
ATOM     93  H   GCU d 403       5.927  27.975  -4.890  0.00  0.00     0.092 H 
ENDROOT
TORSDOF 23
ENDMDL
MODEL 51
REMARK VINA RESULT:      -2.8      3.436      4.373
REMARK  0 active torsions:
REMARK  status: ('A' for Active; 'I' for Inactive)
REMARK       I    between atoms: C8_1  and  C7_27 
REMARK       I    between atoms: O6_2  and  C6_34 
REMARK       I    between atoms: O4_3  and  C4_39 
REMARK       I    between atoms: O4_4  and  C4_6 
REMARK       I    between atoms: O2_7  and  C2_37 
REMARK       I    between atoms: C7_9  and  C8_15 
REMARK       I    between atoms: C7_9  and  N2_13 
REMARK       I    between atoms: N2_10  and  C2_53 
REMARK       I    between atoms: N2_10  and  C7_27 
REMARK       I    between atoms: C6_11  and  C5_48 
REMARK       I    between atoms: C5_12  and  C6_17 
REMARK       I    between atoms: N2_13  and  C2_19 
REMARK       I    between atoms: C2_16  and  O2_42 
REMARK       I    between atoms: C3_18  and  O3_23 
REMARK       I    between atoms: O3_20  and  C1_24 
REMARK       I    between atoms: O3_20  and  C3_22 
REMARK       I    between atoms: O6_21  and  C6_28 
REMARK       I    between atoms: O4_25  and  C4_50 
REMARK       I    between atoms: O4_26  and  C1_33 
REMARK       I    between atoms: O4_26  and  C4_41 
REMARK       I    between atoms: C6_28  and  C5_43 
REMARK       I    between atoms: C5_29  and  C6_34 
REMARK       I    between atoms: O3_30  and  C3_46 
REMARK       I    between atoms: C3_31  and  O3_49 
REMARK       I    between atoms: C1_38  and  O3_49 
ROOT
ATOM      1  C8  NAG d 404       3.324  27.299   0.516  0.00  0.00    -0.003 C 
ATOM      2  O6  NAG d 404      -2.860  24.715  -2.936  0.00  0.00    -0.398 OA
ATOM      3  N2  NAG d 404       2.831  25.409  -0.920  0.00  0.00    -0.349 N 
ATOM      4  O3  NAG d 404       3.171  24.814  -4.014  0.00  0.00    -0.348 OA
ATOM      5  C3  NAG d 404       2.043  25.145  -3.277  0.00  0.00     0.093 C 
ATOM      6  O4  NAG d 404       0.645  25.217  -5.309  0.00  0.00    -0.390 OA
ATOM      7  C7  NAG d 404       2.333  26.530  -0.309  0.00  0.00     0.214 C 
ATOM      8  C5  NAG d 404      -0.432  25.325  -3.184  0.00  0.00     0.089 C 
ATOM      9  C6  NAG d 404      -1.779  25.065  -3.814  0.00  0.00     0.043 C 
ATOM     10  O5  NAG d 404      -0.362  24.829  -1.851  0.00  0.00    -0.337 OA
ATOM     11  C1  NAG d 404       0.760  24.086  -1.487  0.00  0.00     0.283 C 
ATOM     12  O7  NAG d 404       1.164  26.892  -0.417  0.00  0.00    -0.274 OA
ATOM     13  C4  NAG d 404       0.746  24.728  -3.967  0.00  0.00     0.089 C 
ATOM     14  C2  NAG d 404       2.126  24.541  -1.882  0.00  0.00     0.102 C 
ATOM     15  H   NAG d 404       4.276  26.814   0.473  0.00  0.00     0.040 H 
ATOM     16  H   NAG d 404       2.988  27.338   1.532  0.00  0.00     0.040 H 
ATOM     17  H   NAG d 404       3.413  28.294   0.131  0.00  0.00     0.040 H 
ATOM     18  H   NAG d 404      -3.666  24.574  -3.457  0.00  0.00     0.209 HD
ATOM     19  H   NAG d 404       3.754  25.157  -0.693  0.00  0.00     0.163 HD
ATOM     20  H   NAG d 404       2.022  26.212  -3.198  0.00  0.00     0.091 H 
ATOM     21  H   NAG d 404       1.375  24.861  -5.839  0.00  0.00     0.210 HD
ATOM     22  H   NAG d 404      -0.344  26.390  -3.195  0.00  0.00     0.090 H 
ATOM     23  H   NAG d 404      -2.065  25.952  -4.339  0.00  0.00     0.078 H 
ATOM     24  H   NAG d 404      -1.633  24.201  -4.428  0.00  0.00     0.078 H 
ATOM     25  H   NAG d 404       0.734  23.658  -3.994  0.00  0.00     0.091 H 
ATOM     26  H   NAG d 404       2.753  23.675  -1.882  0.00  0.00     0.085 H 
ATOM     27  O4  NAG d 402       8.115  27.325 -12.447  0.00  0.00    -0.390 OA
ATOM     28  O5  NAG d 402       7.064  26.204  -9.158  0.00  0.00    -0.349 OA
ATOM     29  C7  NAG d 402       8.663  30.167  -7.238  0.00  0.00     0.214 C 
ATOM     30  N2  NAG d 402       7.773  29.681  -8.151  0.00  0.00    -0.349 N 
ATOM     31  C8  NAG d 402       8.351  31.498  -6.575  0.00  0.00    -0.003 C 
ATOM     32  C2  NAG d 402       7.984  28.414  -8.869  0.00  0.00     0.087 C 
ATOM     33  O6  NAG d 402       8.148  24.038 -10.475  0.00  0.00    -0.398 OA
ATOM     34  C6  NAG d 402       7.156  24.850 -11.098  0.00  0.00     0.043 C 
ATOM     35  C3  NAG d 402       8.099  28.561 -10.376  0.00  0.00     0.093 C 
ATOM     36  O7  NAG d 402       9.688  29.595  -6.931  0.00  0.00    -0.274 OA
ATOM     37  C1  NAG d 402       6.847  27.450  -8.516  0.00  0.00     0.154 C 
ATOM     38  C4  NAG d 402       8.201  27.174 -11.028  0.00  0.00     0.089 C 
ATOM     39  C5  NAG d 402       7.068  26.267 -10.586  0.00  0.00     0.089 C 
ATOM     40  O3  NAG d 402       9.307  29.195 -10.720  0.00  0.00    -0.348 OA
ATOM     41  H   NAG d 402       8.830  27.903 -12.754  0.00  0.00     0.210 HD
ATOM     42  H   NAG d 402       6.957  30.199  -8.337  0.00  0.00     0.163 HD
ATOM     43  H   NAG d 402       7.421  31.873  -6.948  0.00  0.00     0.040 H 
ATOM     44  H   NAG d 402       9.131  32.197  -6.795  0.00  0.00     0.040 H 
ATOM     45  H   NAG d 402       8.282  31.361  -5.517  0.00  0.00     0.040 H 
ATOM     46  H   NAG d 402       8.930  28.030  -8.548  0.00  0.00     0.084 H 
ATOM     47  H   NAG d 402       8.131  23.150 -10.866  0.00  0.00     0.209 HD
ATOM     48  H   NAG d 402       6.205  24.385 -10.948  0.00  0.00     0.078 H 
ATOM     49  H   NAG d 402       7.438  24.924 -12.128  0.00  0.00     0.078 H 
ATOM     50  H   NAG d 402       7.243  29.114 -10.702  0.00  0.00     0.091 H 
ATOM     51  H   NAG d 402       5.902  27.812  -8.864  0.00  0.00     0.132 H 
ATOM     52  H   NAG d 402       9.131  26.736 -10.732  0.00  0.00     0.091 H 
ATOM     53  H   NAG d 402       6.177  26.694 -10.995  0.00  0.00     0.090 H 
ATOM     54  O4  GCU d 401      10.508  34.050 -12.654  0.00  0.00    -0.390 OA
ATOM     55  C4  GCU d 401      10.630  32.630 -12.524  0.00  0.00     0.097 C 
ATOM     56  C6  GCU d 401       8.700  32.170 -14.109  0.00  0.00     0.206 C 
ATOM     57  C2  GCU d 401      10.861  30.918 -10.730  0.00  0.00     0.110 C 
ATOM     58  O3  GCU d 401      12.514  32.671 -11.064  0.00  0.00    -0.390 OA
ATOM     59  C1  GCU d 401       9.430  30.467 -11.023  0.00  0.00     0.160 C 
ATOM     60  O2  GCU d 401      11.159  30.743  -9.354  0.00  0.00    -0.388 OA
ATOM     61  O6B GCU d 401       9.016  33.288 -14.566  0.00  0.00    -0.646 OA
ATOM     62  C3  GCU d 401      11.112  32.358 -11.107  0.00  0.00     0.092 C 
ATOM     63  O5  GCU d 401       9.250  30.632 -12.431  0.00  0.00    -0.340 OA
ATOM     64  C5  GCU d 401       9.238  32.014 -12.738  0.00  0.00     0.152 C 
ATOM     65  O6A GCU d 401       8.036  31.198 -14.529  0.00  0.00    -0.646 OA
ATOM     66  H   GCU d 401      11.376  34.463 -12.522  0.00  0.00     0.210 HD
ATOM     67  H   GCU d 401      11.313  32.211 -13.233  0.00  0.00     0.091 H 
ATOM     68  H   GCU d 401      11.499  30.307 -11.333  0.00  0.00     0.094 H 
ATOM     69  H   GCU d 401      12.645  33.600 -11.310  0.00  0.00     0.210 HD
ATOM     70  H   GCU d 401       8.713  31.026 -10.459  0.00  0.00     0.133 H 
ATOM     71  H   GCU d 401      10.572  31.303  -8.822  0.00  0.00     0.210 HD
ATOM     72  H   GCU d 401      10.579  32.962 -10.402  0.00  0.00     0.091 H 
ATOM     73  H   GCU d 401       8.599  32.561 -12.078  0.00  0.00     0.104 H 
ATOM     74  O4  GCU d 405       0.554  23.459  -0.309  0.00  0.00    -0.189 OA
ATOM     75  O2  GCU d 403       5.648  24.002  -3.940  0.00  0.00    -0.388 OA
ATOM     76  C5  GCU d 403       4.661  27.482  -6.008  0.00  0.00     0.152 C 
ATOM     77  O5  GCU d 403       3.715  26.669  -5.367  0.00  0.00    -0.340 OA
ATOM     78  C6  GCU d 403       3.959  28.387  -6.955  0.00  0.00     0.206 C 
ATOM     79  C3  GCU d 403       6.287  25.637  -5.568  0.00  0.00     0.092 C 
ATOM     80  O3  GCU d 403       7.352  24.852  -6.123  0.00  0.00    -0.390 OA
ATOM     81  C1  GCU d 403       4.050  25.654  -4.463  0.00  0.00     0.160 C 
ATOM     82  O4  GCU d 403       6.786  27.349  -7.189  0.00  0.00    -0.348 OA
ATOM     83  O6A GCU d 403       3.071  27.901  -7.694  0.00  0.00    -0.646 OA
ATOM     84  C2  GCU d 403       5.167  24.783  -5.035  0.00  0.00     0.110 C 
ATOM     85  C4  GCU d 403       5.752  26.596  -6.618  0.00  0.00     0.103 C 
ATOM     86  O6B GCU d 403       4.314  29.583  -6.952  0.00  0.00    -0.646 OA
ATOM     87  H   GCU d 403       6.364  23.424  -4.245  0.00  0.00     0.210 HD
ATOM     88  H   GCU d 403       5.172  28.129  -5.326  0.00  0.00     0.104 H 
ATOM     89  H   GCU d 403       6.689  26.188  -4.743  0.00  0.00     0.091 H 
ATOM     90  H   GCU d 403       7.018  24.339  -6.875  0.00  0.00     0.210 HD
ATOM     91  H   GCU d 403       4.284  26.271  -3.620  0.00  0.00     0.133 H 
ATOM     92  H   GCU d 403       4.809  24.177  -5.841  0.00  0.00     0.094 H 
ATOM     93  H   GCU d 403       5.311  26.031  -7.412  0.00  0.00     0.092 H 
ENDROOT
TORSDOF 23
ENDMDL
MODEL 52
REMARK VINA RESULT:      -2.5      4.289      6.515
REMARK  0 active torsions:
REMARK  status: ('A' for Active; 'I' for Inactive)
REMARK       I    between atoms: C8_1  and  C7_27 
REMARK       I    between atoms: O6_2  and  C6_34 
REMARK       I    between atoms: O4_3  and  C4_39 
REMARK       I    between atoms: O4_4  and  C4_6 
REMARK       I    between atoms: O2_7  and  C2_37 
REMARK       I    between atoms: C7_9  and  C8_15 
REMARK       I    between atoms: C7_9  and  N2_13 
REMARK       I    between atoms: N2_10  and  C2_53 
REMARK       I    between atoms: N2_10  and  C7_27 
REMARK       I    between atoms: C6_11  and  C5_48 
REMARK       I    between atoms: C5_12  and  C6_17 
REMARK       I    between atoms: N2_13  and  C2_19 
REMARK       I    between atoms: C2_16  and  O2_42 
REMARK       I    between atoms: C3_18  and  O3_23 
REMARK       I    between atoms: O3_20  and  C1_24 
REMARK       I    between atoms: O3_20  and  C3_22 
REMARK       I    between atoms: O6_21  and  C6_28 
REMARK       I    between atoms: O4_25  and  C4_50 
REMARK       I    between atoms: O4_26  and  C1_33 
REMARK       I    between atoms: O4_26  and  C4_41 
REMARK       I    between atoms: C6_28  and  C5_43 
REMARK       I    between atoms: C5_29  and  C6_34 
REMARK       I    between atoms: O3_30  and  C3_46 
REMARK       I    between atoms: C3_31  and  O3_49 
REMARK       I    between atoms: C1_38  and  O3_49 
ROOT
ATOM      1  C8  NAG d 404      -0.666  24.747  -0.114  0.00  0.00    -0.003 C 
ATOM      2  O6  NAG d 404      -5.878  27.114  -5.020  0.00  0.00    -0.398 OA
ATOM      3  N2  NAG d 404      -1.069  24.403  -2.479  0.00  0.00    -0.349 N 
ATOM      4  O3  NAG d 404       0.079  25.680  -5.143  0.00  0.00    -0.348 OA
ATOM      5  C3  NAG d 404      -1.129  25.885  -4.490  0.00  0.00     0.093 C 
ATOM      6  O4  NAG d 404      -1.788  27.635  -6.100  0.00  0.00    -0.390 OA
ATOM      7  C7  NAG d 404      -1.490  25.030  -1.336  0.00  0.00     0.214 C 
ATOM      8  C5  NAG d 404      -3.420  26.840  -4.555  0.00  0.00     0.089 C 
ATOM      9  C6  NAG d 404      -4.531  27.503  -5.333  0.00  0.00     0.043 C 
ATOM     10  O5  NAG d 404      -3.867  25.668  -3.880  0.00  0.00    -0.337 OA
ATOM     11  C1  NAG d 404      -3.089  24.516  -3.985  0.00  0.00     0.283 C 
ATOM     12  O7  NAG d 404      -2.469  25.771  -1.297  0.00  0.00    -0.274 OA
ATOM     13  C4  NAG d 404      -2.207  26.452  -5.412  0.00  0.00     0.089 C 
ATOM     14  C2  NAG d 404      -1.605  24.593  -3.839  0.00  0.00     0.102 C 
ATOM     15  H   NAG d 404       0.133  24.082  -0.368  0.00  0.00     0.040 H 
ATOM     16  H   NAG d 404      -1.282  24.293   0.635  0.00  0.00     0.040 H 
ATOM     17  H   NAG d 404      -0.261  25.663   0.264  0.00  0.00     0.040 H 
ATOM     18  H   NAG d 404      -6.495  27.607  -5.583  0.00  0.00     0.209 HD
ATOM     19  H   NAG d 404      -0.332  23.757  -2.382  0.00  0.00     0.163 HD
ATOM     20  H   NAG d 404      -0.955  26.619  -3.731  0.00  0.00     0.091 H 
ATOM     21  H   NAG d 404      -1.019  27.431  -6.655  0.00  0.00     0.210 HD
ATOM     22  H   NAG d 404      -3.117  27.586  -3.852  0.00  0.00     0.090 H 
ATOM     23  H   NAG d 404      -4.454  28.557  -5.169  0.00  0.00     0.078 H 
ATOM     24  H   NAG d 404      -4.383  27.189  -6.345  0.00  0.00     0.078 H 
ATOM     25  H   NAG d 404      -2.429  25.698  -6.137  0.00  0.00     0.091 H 
ATOM     26  H   NAG d 404      -1.200  23.744  -4.347  0.00  0.00     0.085 H 
ATOM     27  O4  NAG d 402       7.782  30.728  -9.270  0.00  0.00    -0.390 OA
ATOM     28  O5  NAG d 402       5.564  28.345  -7.664  0.00  0.00    -0.349 OA
ATOM     29  C7  NAG d 402       7.269  29.511  -3.460  0.00  0.00     0.214 C 
ATOM     30  N2  NAG d 402       6.624  30.015  -4.551  0.00  0.00    -0.349 N 
ATOM     31  C8  NAG d 402       7.048  30.194  -2.121  0.00  0.00    -0.003 C 
ATOM     32  C2  NAG d 402       6.781  29.447  -5.899  0.00  0.00     0.087 C 
ATOM     33  O6  NAG d 402       6.533  27.171  -9.963  0.00  0.00    -0.398 OA
ATOM     34  C6  NAG d 402       5.969  28.480  -9.993  0.00  0.00     0.043 C 
ATOM     35  C3  NAG d 402       7.382  30.404  -6.914  0.00  0.00     0.093 C 
ATOM     36  O7  NAG d 402       8.010  28.551  -3.504  0.00  0.00    -0.274 OA
ATOM     37  C1  NAG d 402       5.419  28.945  -6.387  0.00  0.00     0.154 C 
ATOM     38  C4  NAG d 402       7.394  29.749  -8.303  0.00  0.00     0.089 C 
ATOM     39  C5  NAG d 402       6.020  29.233  -8.687  0.00  0.00     0.089 C 
ATOM     40  O3  NAG d 402       8.741  30.637  -6.630  0.00  0.00    -0.348 OA
ATOM     41  H   NAG d 402       8.659  31.074  -9.046  0.00  0.00     0.210 HD
ATOM     42  H   NAG d 402       6.029  30.790  -4.432  0.00  0.00     0.163 HD
ATOM     43  H   NAG d 402       6.375  31.016  -2.246  0.00  0.00     0.040 H 
ATOM     44  H   NAG d 402       7.983  30.552  -1.744  0.00  0.00     0.040 H 
ATOM     45  H   NAG d 402       6.629  29.493  -1.429  0.00  0.00     0.040 H 
ATOM     46  H   NAG d 402       7.483  28.644  -5.817  0.00  0.00     0.084 H 
ATOM     47  H   NAG d 402       6.456  26.765 -10.841  0.00  0.00     0.209 HD
ATOM     48  H   NAG d 402       4.944  28.392 -10.285  0.00  0.00     0.078 H 
ATOM     49  H   NAG d 402       6.564  29.042 -10.684  0.00  0.00     0.078 H 
ATOM     50  H   NAG d 402       6.801  31.301  -6.880  0.00  0.00     0.091 H 
ATOM     51  H   NAG d 402       4.723  29.748  -6.504  0.00  0.00     0.132 H 
ATOM     52  H   NAG d 402       8.078  28.927  -8.277  0.00  0.00     0.091 H 
ATOM     53  H   NAG d 402       5.406  30.102  -8.802  0.00  0.00     0.090 H 
ATOM     54  O4  GCU d 401      11.445  34.869  -4.750  0.00  0.00    -0.390 OA
ATOM     55  C4  GCU d 401      11.228  33.720  -5.576  0.00  0.00     0.097 C 
ATOM     56  C6  GCU d 401       9.829  35.010  -7.258  0.00  0.00     0.206 C 
ATOM     57  C2  GCU d 401      10.540  31.339  -5.343  0.00  0.00     0.110 C 
ATOM     58  O3  GCU d 401      12.537  32.218  -4.270  0.00  0.00    -0.390 OA
ATOM     59  C1  GCU d 401       9.209  31.693  -6.005  0.00  0.00     0.160 C 
ATOM     60  O2  GCU d 401      10.358  30.292  -4.403  0.00  0.00    -0.388 OA
ATOM     61  O6B GCU d 401      10.492  35.978  -6.830  0.00  0.00    -0.646 OA
ATOM     62  C3  GCU d 401      11.184  32.515  -4.650  0.00  0.00     0.092 C 
ATOM     63  O5  GCU d 401       9.508  32.709  -6.964  0.00  0.00    -0.340 OA
ATOM     64  C5  GCU d 401       9.875  33.896  -6.284  0.00  0.00     0.152 C 
ATOM     65  O6A GCU d 401       9.142  34.791  -8.278  0.00  0.00    -0.646 OA
ATOM     66  H   GCU d 401      12.296  34.781  -4.292  0.00  0.00     0.210 HD
ATOM     67  H   GCU d 401      11.995  33.594  -6.311  0.00  0.00     0.091 H 
ATOM     68  H   GCU d 401      11.194  31.026  -6.130  0.00  0.00     0.094 H 
ATOM     69  H   GCU d 401      12.925  32.989  -3.828  0.00  0.00     0.210 HD
ATOM     70  H   GCU d 401       8.483  32.020  -5.289  0.00  0.00     0.133 H 
ATOM     71  H   GCU d 401       9.763  30.591  -3.697  0.00  0.00     0.210 HD
ATOM     72  H   GCU d 401      10.596  32.724  -3.782  0.00  0.00     0.091 H 
ATOM     73  H   GCU d 401       9.189  34.128  -5.496  0.00  0.00     0.104 H 
ATOM     74  O4  GCU d 405      -3.771  23.439  -3.541  0.00  0.00    -0.189 OA
ATOM     75  O2  GCU d 403       2.191  24.169  -5.370  0.00  0.00    -0.388 OA
ATOM     76  C5  GCU d 403       2.622  28.262  -4.719  0.00  0.00     0.152 C 
ATOM     77  O5  GCU d 403       1.380  27.630  -4.874  0.00  0.00    -0.340 OA
ATOM     78  C6  GCU d 403       2.447  29.726  -4.901  0.00  0.00     0.206 C 
ATOM     79  C3  GCU d 403       3.620  26.088  -5.441  0.00  0.00     0.092 C 
ATOM     80  O3  GCU d 403       4.621  25.469  -6.264  0.00  0.00    -0.390 OA
ATOM     81  C1  GCU d 403       1.205  26.242  -4.834  0.00  0.00     0.160 C 
ATOM     82  O4  GCU d 403       4.934  28.109  -5.471  0.00  0.00    -0.348 OA
ATOM     83  O6A GCU d 403       1.750  30.127  -5.862  0.00  0.00    -0.646 OA
ATOM     84  C2  GCU d 403       2.241  25.552  -5.721  0.00  0.00     0.110 C 
ATOM     85  C4  GCU d 403       3.643  27.593  -5.646  0.00  0.00     0.103 C 
ATOM     86  O6B GCU d 403       3.020  30.464  -4.074  0.00  0.00    -0.646 OA
ATOM     87  H   GCU d 403       2.832  23.676  -5.905  0.00  0.00     0.210 HD
ATOM     88  H   GCU d 403       3.020  28.145  -3.733  0.00  0.00     0.104 H 
ATOM     89  H   GCU d 403       3.853  25.856  -4.422  0.00  0.00     0.091 H 
ATOM     90  H   GCU d 403       4.437  25.661  -7.196  0.00  0.00     0.210 HD
ATOM     91  H   GCU d 403       1.289  26.107  -3.776  0.00  0.00     0.133 H 
ATOM     92  H   GCU d 403       2.033  25.718  -6.757  0.00  0.00     0.094 H 
ATOM     93  H   GCU d 403       3.362  27.811  -6.656  0.00  0.00     0.092 H 
ENDROOT
TORSDOF 23
ENDMDL
MODEL 53
REMARK VINA RESULT:      -2.3      4.182     12.438
REMARK  0 active torsions:
REMARK  status: ('A' for Active; 'I' for Inactive)
REMARK       I    between atoms: C8_1  and  C7_27 
REMARK       I    between atoms: O6_2  and  C6_34 
REMARK       I    between atoms: O4_3  and  C4_39 
REMARK       I    between atoms: O4_4  and  C4_6 
REMARK       I    between atoms: O2_7  and  C2_37 
REMARK       I    between atoms: C7_9  and  C8_15 
REMARK       I    between atoms: C7_9  and  N2_13 
REMARK       I    between atoms: N2_10  and  C2_53 
REMARK       I    between atoms: N2_10  and  C7_27 
REMARK       I    between atoms: C6_11  and  C5_48 
REMARK       I    between atoms: C5_12  and  C6_17 
REMARK       I    between atoms: N2_13  and  C2_19 
REMARK       I    between atoms: C2_16  and  O2_42 
REMARK       I    between atoms: C3_18  and  O3_23 
REMARK       I    between atoms: O3_20  and  C1_24 
REMARK       I    between atoms: O3_20  and  C3_22 
REMARK       I    between atoms: O6_21  and  C6_28 
REMARK       I    between atoms: O4_25  and  C4_50 
REMARK       I    between atoms: O4_26  and  C1_33 
REMARK       I    between atoms: O4_26  and  C4_41 
REMARK       I    between atoms: C6_28  and  C5_43 
REMARK       I    between atoms: C5_29  and  C6_34 
REMARK       I    between atoms: O3_30  and  C3_46 
REMARK       I    between atoms: C3_31  and  O3_49 
REMARK       I    between atoms: C1_38  and  O3_49 
ROOT
ATOM      1  C8  NAG d 404       7.811  30.810 -15.479  0.00  0.00    -0.003 C 
ATOM      2  O6  NAG d 404      11.989  36.517 -12.870  0.00  0.00    -0.398 OA
ATOM      3  N2  NAG d 404       9.946  30.986 -14.344  0.00  0.00    -0.349 N 
ATOM      4  O3  NAG d 404      10.902  30.684 -11.338  0.00  0.00    -0.348 OA
ATOM      5  C3  NAG d 404      10.689  31.818 -12.108  0.00  0.00     0.093 C 
ATOM      6  O4  NAG d 404      11.176  33.300 -10.195  0.00  0.00    -0.390 OA
ATOM      7  C7  NAG d 404       8.864  31.667 -14.838  0.00  0.00     0.214 C 
ATOM      8  C5  NAG d 404      10.972  34.273 -12.362  0.00  0.00     0.089 C 
ATOM      9  C6  NAG d 404      11.570  35.570 -11.875  0.00  0.00     0.043 C 
ATOM     10  O5  NAG d 404      11.248  34.041 -13.740  0.00  0.00    -0.337 OA
ATOM     11  C1  NAG d 404      11.706  32.779 -14.113  0.00  0.00     0.283 C 
ATOM     12  O7  NAG d 404       8.750  32.888 -14.773  0.00  0.00    -0.274 OA
ATOM     13  C4  NAG d 404      11.440  33.039 -11.578  0.00  0.00     0.089 C 
ATOM     14  C2  NAG d 404      11.060  31.550 -13.560  0.00  0.00     0.102 C 
ATOM     15  H   NAG d 404       8.108  29.783 -15.429  0.00  0.00     0.040 H 
ATOM     16  H   NAG d 404       7.692  31.097 -16.503  0.00  0.00     0.040 H 
ATOM     17  H   NAG d 404       6.883  30.938 -14.962  0.00  0.00     0.040 H 
ATOM     18  H   NAG d 404      12.354  37.303 -12.434  0.00  0.00     0.209 HD
ATOM     19  H   NAG d 404       9.983  30.021 -14.532  0.00  0.00     0.163 HD
ATOM     20  H   NAG d 404       9.645  32.048 -12.048  0.00  0.00     0.091 H 
ATOM     21  H   NAG d 404      11.459  32.540  -9.663  0.00  0.00     0.210 HD
ATOM     22  H   NAG d 404       9.921  34.398 -12.205  0.00  0.00     0.090 H 
ATOM     23  H   NAG d 404      10.837  36.051 -11.262  0.00  0.00     0.078 H 
ATOM     24  H   NAG d 404      12.469  35.286 -11.370  0.00  0.00     0.078 H 
ATOM     25  H   NAG d 404      12.485  32.839 -11.693  0.00  0.00     0.091 H 
ATOM     26  H   NAG d 404      11.783  30.765 -13.626  0.00  0.00     0.085 H 
ATOM     27  O4  NAG d 402       8.731  26.750  -2.301  0.00  0.00    -0.390 OA
ATOM     28  O5  NAG d 402       9.549  27.397  -5.778  0.00  0.00    -0.349 OA
ATOM     29  C7  NAG d 402       5.121  26.526  -7.037  0.00  0.00     0.214 C 
ATOM     30  N2  NAG d 402       5.893  27.344  -6.265  0.00  0.00    -0.349 N 
ATOM     31  C8  NAG d 402       3.793  27.063  -7.541  0.00  0.00    -0.003 C 
ATOM     32  C2  NAG d 402       7.187  26.921  -5.705  0.00  0.00     0.087 C 
ATOM     33  O6  NAG d 402      11.636  25.970  -4.678  0.00  0.00    -0.398 OA
ATOM     34  C6  NAG d 402      11.124  27.132  -4.030  0.00  0.00     0.043 C 
ATOM     35  C3  NAG d 402       7.238  26.911  -4.187  0.00  0.00     0.093 C 
ATOM     36  O7  NAG d 402       5.439  25.394  -7.338  0.00  0.00    -0.274 OA
ATOM     37  C1  NAG d 402       8.288  27.826  -6.266  0.00  0.00     0.154 C 
ATOM     38  C4  NAG d 402       8.659  26.567  -3.717  0.00  0.00     0.089 C 
ATOM     39  C5  NAG d 402       9.692  27.474  -4.358  0.00  0.00     0.089 C 
ATOM     40  O3  NAG d 402       6.442  25.870  -3.673  0.00  0.00    -0.348 OA
ATOM     41  H   NAG d 402       8.078  26.179  -1.867  0.00  0.00     0.210 HD
ATOM     42  H   NAG d 402       5.572  28.255  -6.075  0.00  0.00     0.163 HD
ATOM     43  H   NAG d 402       3.659  28.066  -7.194  0.00  0.00     0.040 H 
ATOM     44  H   NAG d 402       2.997  26.449  -7.174  0.00  0.00     0.040 H 
ATOM     45  H   NAG d 402       3.787  27.053  -8.611  0.00  0.00     0.040 H 
ATOM     46  H   NAG d 402       7.334  25.904  -6.001  0.00  0.00     0.084 H 
ATOM     47  H   NAG d 402      12.557  25.829  -4.409  0.00  0.00     0.209 HD
ATOM     48  H   NAG d 402      11.735  27.964  -4.312  0.00  0.00     0.078 H 
ATOM     49  H   NAG d 402      11.146  26.921  -2.981  0.00  0.00     0.078 H 
ATOM     50  H   NAG d 402       6.910  27.874  -3.857  0.00  0.00     0.091 H 
ATOM     51  H   NAG d 402       8.165  28.839  -5.946  0.00  0.00     0.132 H 
ATOM     52  H   NAG d 402       8.865  25.555  -3.996  0.00  0.00     0.091 H 
ATOM     53  H   NAG d 402       9.504  28.451  -3.964  0.00  0.00     0.090 H 
ATOM     54  O4  GCU d 401       1.774  25.751  -1.036  0.00  0.00    -0.390 OA
ATOM     55  C4  GCU d 401       3.112  25.343  -1.341  0.00  0.00     0.097 C 
ATOM     56  C6  GCU d 401       4.152  27.218   0.020  0.00  0.00     0.206 C 
ATOM     57  C2  GCU d 401       4.474  24.692  -3.321  0.00  0.00     0.110 C 
ATOM     58  O3  GCU d 401       2.506  23.438  -2.637  0.00  0.00    -0.390 OA
ATOM     59  C1  GCU d 401       5.226  26.016  -3.198  0.00  0.00     0.160 C 
ATOM     60  O2  GCU d 401       4.391  24.298  -4.682  0.00  0.00    -0.388 OA
ATOM     61  O6B GCU d 401       3.071  27.153   0.643  0.00  0.00    -0.646 OA
ATOM     62  C3  GCU d 401       3.082  24.750  -2.741  0.00  0.00     0.092 C 
ATOM     63  O5  GCU d 401       5.301  26.294  -1.799  0.00  0.00    -0.340 OA
ATOM     64  C5  GCU d 401       4.005  26.594  -1.314  0.00  0.00     0.152 C 
ATOM     65  O6A GCU d 401       5.282  27.696   0.258  0.00  0.00    -0.646 OA
ATOM     66  H   GCU d 401       1.190  24.977  -1.047  0.00  0.00     0.210 HD
ATOM     67  H   GCU d 401       3.491  24.627  -0.643  0.00  0.00     0.091 H 
ATOM     68  H   GCU d 401       5.033  23.975  -2.757  0.00  0.00     0.094 H 
ATOM     69  H   GCU d 401       1.614  23.505  -2.262  0.00  0.00     0.210 HD
ATOM     70  H   GCU d 401       4.738  26.802  -3.736  0.00  0.00     0.133 H 
ATOM     71  H   GCU d 401       3.882  24.958  -5.179  0.00  0.00     0.210 HD
ATOM     72  H   GCU d 401       2.496  25.357  -3.399  0.00  0.00     0.091 H 
ATOM     73  H   GCU d 401       3.501  27.297  -1.944  0.00  0.00     0.104 H 
ATOM     74  O4  GCU d 405      12.185  32.799 -15.375  0.00  0.00    -0.189 OA
ATOM     75  O2  GCU d 403      11.210  28.095 -11.331  0.00  0.00    -0.388 OA
ATOM     76  C5  GCU d 403       8.313  29.851  -8.906  0.00  0.00     0.152 C 
ATOM     77  O5  GCU d 403       9.191  30.585  -9.717  0.00  0.00    -0.340 OA
ATOM     78  C6  GCU d 403       7.703  30.763  -7.903  0.00  0.00     0.206 C 
ATOM     79  C3  GCU d 403       9.733  27.872  -9.460  0.00  0.00     0.092 C 
ATOM     80  O3  GCU d 403      10.373  26.700  -8.934  0.00  0.00    -0.390 OA
ATOM     81  C1  GCU d 403       9.983  30.012 -10.718  0.00  0.00     0.160 C 
ATOM     82  O4  GCU d 403       8.208  27.801  -7.595  0.00  0.00    -0.348 OA
ATOM     83  O6A GCU d 403       8.449  31.572  -7.303  0.00  0.00    -0.646 OA
ATOM     84  C2  GCU d 403      10.700  28.773 -10.183  0.00  0.00     0.110 C 
ATOM     85  C4  GCU d 403       9.054  28.637  -8.337  0.00  0.00     0.103 C 
ATOM     86  O6B GCU d 403       6.473  30.654  -7.724  0.00  0.00    -0.646 OA
ATOM     87  H   GCU d 403      11.679  27.294 -11.051  0.00  0.00     0.210 HD
ATOM     88  H   GCU d 403       7.490  29.446  -9.457  0.00  0.00     0.104 H 
ATOM     89  H   GCU d 403       9.004  27.548 -10.173  0.00  0.00     0.091 H 
ATOM     90  H   GCU d 403      11.043  26.962  -8.282  0.00  0.00     0.210 HD
ATOM     91  H   GCU d 403       9.219  29.865 -11.453  0.00  0.00     0.133 H 
ATOM     92  H   GCU d 403      11.471  29.042  -9.492  0.00  0.00     0.094 H 
ATOM     93  H   GCU d 403       9.800  28.995  -7.658  0.00  0.00     0.092 H 
ENDROOT
TORSDOF 23
ENDMDL
MODEL 54
REMARK VINA RESULT:      -2.1      3.954     12.715
REMARK  0 active torsions:
REMARK  status: ('A' for Active; 'I' for Inactive)
REMARK       I    between atoms: C8_1  and  C7_27 
REMARK       I    between atoms: O6_2  and  C6_34 
REMARK       I    between atoms: O4_3  and  C4_39 
REMARK       I    between atoms: O4_4  and  C4_6 
REMARK       I    between atoms: O2_7  and  C2_37 
REMARK       I    between atoms: C7_9  and  C8_15 
REMARK       I    between atoms: C7_9  and  N2_13 
REMARK       I    between atoms: N2_10  and  C2_53 
REMARK       I    between atoms: N2_10  and  C7_27 
REMARK       I    between atoms: C6_11  and  C5_48 
REMARK       I    between atoms: C5_12  and  C6_17 
REMARK       I    between atoms: N2_13  and  C2_19 
REMARK       I    between atoms: C2_16  and  O2_42 
REMARK       I    between atoms: C3_18  and  O3_23 
REMARK       I    between atoms: O3_20  and  C1_24 
REMARK       I    between atoms: O3_20  and  C3_22 
REMARK       I    between atoms: O6_21  and  C6_28 
REMARK       I    between atoms: O4_25  and  C4_50 
REMARK       I    between atoms: O4_26  and  C1_33 
REMARK       I    between atoms: O4_26  and  C4_41 
REMARK       I    between atoms: C6_28  and  C5_43 
REMARK       I    between atoms: C5_29  and  C6_34 
REMARK       I    between atoms: O3_30  and  C3_46 
REMARK       I    between atoms: C3_31  and  O3_49 
REMARK       I    between atoms: C1_38  and  O3_49 
ROOT
ATOM      1  C8  NAG d 404      12.559  24.705 -10.522  0.00  0.00    -0.003 C 
ATOM      2  O6  NAG d 404       8.518  25.293 -16.860  0.00  0.00    -0.398 OA
ATOM      3  N2  NAG d 404      11.291  26.478 -11.583  0.00  0.00    -0.349 N 
ATOM      4  O3  NAG d 404       8.374  27.661 -11.210  0.00  0.00    -0.348 OA
ATOM      5  C3  NAG d 404       8.887  26.811 -12.179  0.00  0.00     0.093 C 
ATOM      6  O4  NAG d 404       6.669  26.553 -13.232  0.00  0.00    -0.390 OA
ATOM      7  C7  NAG d 404      11.685  25.168 -11.652  0.00  0.00     0.214 C 
ATOM      8  C5  NAG d 404       8.577  25.697 -14.377  0.00  0.00     0.089 C 
ATOM      9  C6  NAG d 404       7.782  25.528 -15.649  0.00  0.00     0.043 C 
ATOM     10  O5  NAG d 404       9.954  25.954 -14.638  0.00  0.00    -0.337 OA
ATOM     11  C1  NAG d 404      10.568  26.995 -13.944  0.00  0.00     0.283 C 
ATOM     12  O7  NAG d 404      11.359  24.414 -12.566  0.00  0.00    -0.274 OA
ATOM     13  C4  NAG d 404       8.058  26.815 -13.463  0.00  0.00     0.089 C 
ATOM     14  C2  NAG d 404      10.338  27.161 -12.478  0.00  0.00     0.102 C 
ATOM     15  H   NAG d 404      12.719  25.514  -9.841  0.00  0.00     0.040 H 
ATOM     16  H   NAG d 404      13.500  24.375 -10.911  0.00  0.00     0.040 H 
ATOM     17  H   NAG d 404      12.081  23.897 -10.010  0.00  0.00     0.040 H 
ATOM     18  H   NAG d 404       7.900  25.203 -17.601  0.00  0.00     0.209 HD
ATOM     19  H   NAG d 404      11.684  27.020 -10.862  0.00  0.00     0.163 HD
ATOM     20  H   NAG d 404       8.839  25.818 -11.784  0.00  0.00     0.091 H 
ATOM     21  H   NAG d 404       6.302  27.241 -12.655  0.00  0.00     0.210 HD
ATOM     22  H   NAG d 404       8.458  24.761 -13.873  0.00  0.00     0.090 H 
ATOM     23  H   NAG d 404       7.122  24.699 -15.508  0.00  0.00     0.078 H 
ATOM     24  H   NAG d 404       7.301  26.472 -15.799  0.00  0.00     0.078 H 
ATOM     25  H   NAG d 404       8.153  27.789 -13.895  0.00  0.00     0.091 H 
ATOM     26  H   NAG d 404      10.533  28.188 -12.249  0.00  0.00     0.085 H 
ATOM     27  O4  NAG d 402       0.568  28.637  -4.888  0.00  0.00    -0.390 OA
ATOM     28  O5  NAG d 402       3.764  28.717  -6.608  0.00  0.00    -0.349 OA
ATOM     29  C7  NAG d 402       5.439  25.394  -3.763  0.00  0.00     0.214 C 
ATOM     30  N2  NAG d 402       4.462  25.651  -4.680  0.00  0.00    -0.349 N 
ATOM     31  C8  NAG d 402       5.889  23.954  -3.584  0.00  0.00    -0.003 C 
ATOM     32  C2  NAG d 402       3.935  27.004  -4.921  0.00  0.00     0.087 C 
ATOM     33  O6  NAG d 402       2.885  31.317  -6.351  0.00  0.00    -0.398 OA
ATOM     34  C6  NAG d 402       2.028  30.306  -6.874  0.00  0.00     0.043 C 
ATOM     35  C3  NAG d 402       2.456  27.163  -4.612  0.00  0.00     0.093 C 
ATOM     36  O7  NAG d 402       5.963  26.252  -3.083  0.00  0.00    -0.274 OA
ATOM     37  C1  NAG d 402       4.218  27.394  -6.375  0.00  0.00     0.154 C 
ATOM     38  C4  NAG d 402       1.992  28.572  -5.006  0.00  0.00     0.089 C 
ATOM     39  C5  NAG d 402       2.355  28.898  -6.442  0.00  0.00     0.089 C 
ATOM     40  O3  NAG d 402       2.231  27.099  -3.224  0.00  0.00    -0.348 OA
ATOM     41  H   NAG d 402       0.310  28.432  -3.976  0.00  0.00     0.210 HD
ATOM     42  H   NAG d 402       4.095  24.902  -5.202  0.00  0.00     0.163 HD
ATOM     43  H   NAG d 402       5.338  23.322  -4.249  0.00  0.00     0.040 H 
ATOM     44  H   NAG d 402       5.713  23.648  -2.574  0.00  0.00     0.040 H 
ATOM     45  H   NAG d 402       6.933  23.877  -3.804  0.00  0.00     0.040 H 
ATOM     46  H   NAG d 402       4.439  27.658  -4.240  0.00  0.00     0.084 H 
ATOM     47  H   NAG d 402       2.601  32.185  -6.680  0.00  0.00     0.209 HD
ATOM     48  H   NAG d 402       2.084  30.346  -7.942  0.00  0.00     0.078 H 
ATOM     49  H   NAG d 402       1.052  30.515  -6.488  0.00  0.00     0.078 H 
ATOM     50  H   NAG d 402       1.942  26.389  -5.143  0.00  0.00     0.091 H 
ATOM     51  H   NAG d 402       3.690  26.764  -7.060  0.00  0.00     0.132 H 
ATOM     52  H   NAG d 402       2.474  29.274  -4.359  0.00  0.00     0.091 H 
ATOM     53  H   NAG d 402       1.768  28.239  -7.047  0.00  0.00     0.090 H 
ATOM     54  O4  GCU d 401      -0.039  23.450  -0.017  0.00  0.00    -0.390 OA
ATOM     55  C4  GCU d 401       0.271  24.768  -0.481  0.00  0.00     0.097 C 
ATOM     56  C6  GCU d 401      -1.529  24.720  -2.273  0.00  0.00     0.206 C 
ATOM     57  C2  GCU d 401       2.263  26.118  -1.122  0.00  0.00     0.110 C 
ATOM     58  O3  GCU d 401       1.988  25.202   1.114  0.00  0.00    -0.390 OA
ATOM     59  C1  GCU d 401       1.807  26.037  -2.579  0.00  0.00     0.160 C 
ATOM     60  O2  GCU d 401       3.679  26.163  -1.052  0.00  0.00    -0.388 OA
ATOM     61  O6B GCU d 401      -2.057  23.896  -1.497  0.00  0.00    -0.646 OA
ATOM     62  C3  GCU d 401       1.766  24.964  -0.286  0.00  0.00     0.092 C 
ATOM     63  O5  GCU d 401       0.379  26.051  -2.542  0.00  0.00    -0.340 OA
ATOM     64  C5  GCU d 401      -0.083  24.839  -1.975  0.00  0.00     0.152 C 
ATOM     65  O6A GCU d 401      -1.931  25.423  -3.224  0.00  0.00    -0.646 OA
ATOM     66  H   GCU d 401       0.176  23.381   0.926  0.00  0.00     0.210 HD
ATOM     67  H   GCU d 401      -0.273  25.525   0.044  0.00  0.00     0.091 H 
ATOM     68  H   GCU d 401       1.839  27.015  -0.723  0.00  0.00     0.094 H 
ATOM     69  H   GCU d 401       1.659  24.446   1.626  0.00  0.00     0.210 HD
ATOM     70  H   GCU d 401       2.187  25.163  -3.066  0.00  0.00     0.133 H 
ATOM     71  H   GCU d 401       4.047  25.343  -1.417  0.00  0.00     0.210 HD
ATOM     72  H   GCU d 401       2.307  24.096  -0.601  0.00  0.00     0.091 H 
ATOM     73  H   GCU d 401       0.405  23.990  -2.406  0.00  0.00     0.104 H 
ATOM     74  O4  GCU d 405      11.765  27.293 -14.494  0.00  0.00    -0.189 OA
ATOM     75  O2  GCU d 403       8.920  29.324  -9.277  0.00  0.00    -0.388 OA
ATOM     76  C5  GCU d 403       6.340  26.123  -8.600  0.00  0.00     0.152 C 
ATOM     77  O5  GCU d 403       6.917  26.401  -9.848  0.00  0.00    -0.340 OA
ATOM     78  C6  GCU d 403       5.199  25.190  -8.790  0.00  0.00     0.206 C 
ATOM     79  C3  GCU d 403       7.233  28.346  -7.889  0.00  0.00     0.092 C 
ATOM     80  O3  GCU d 403       6.942  29.556  -7.174  0.00  0.00    -0.390 OA
ATOM     81  C1  GCU d 403       7.973  27.302 -10.031  0.00  0.00     0.160 C 
ATOM     82  O4  GCU d 403       5.522  27.244  -6.598  0.00  0.00    -0.348 OA
ATOM     83  O6A GCU d 403       4.393  25.420  -9.723  0.00  0.00    -0.646 OA
ATOM     84  C2  GCU d 403       7.682  28.613  -9.302  0.00  0.00     0.110 C 
ATOM     85  C4  GCU d 403       6.011  27.444  -7.896  0.00  0.00     0.103 C 
ATOM     86  O6B GCU d 403       5.120  24.234  -7.993  0.00  0.00    -0.646 OA
ATOM     87  H   GCU d 403       8.797  30.172  -8.823  0.00  0.00     0.210 HD
ATOM     88  H   GCU d 403       7.014  25.615  -7.943  0.00  0.00     0.104 H 
ATOM     89  H   GCU d 403       8.042  27.860  -7.383  0.00  0.00     0.091 H 
ATOM     90  H   GCU d 403       6.211  30.021  -7.610  0.00  0.00     0.210 HD
ATOM     91  H   GCU d 403       8.765  26.689  -9.654  0.00  0.00     0.133 H 
ATOM     92  H   GCU d 403       6.905  29.162  -9.790  0.00  0.00     0.094 H 
ATOM     93  H   GCU d 403       5.228  27.923  -8.446  0.00  0.00     0.092 H 
ENDROOT
TORSDOF 23
ENDMDL
MODEL 55
REMARK VINA RESULT:      -2.0      5.502      8.350
REMARK  0 active torsions:
REMARK  status: ('A' for Active; 'I' for Inactive)
REMARK       I    between atoms: C8_1  and  C7_27 
REMARK       I    between atoms: O6_2  and  C6_34 
REMARK       I    between atoms: O4_3  and  C4_39 
REMARK       I    between atoms: O4_4  and  C4_6 
REMARK       I    between atoms: O2_7  and  C2_37 
REMARK       I    between atoms: C7_9  and  C8_15 
REMARK       I    between atoms: C7_9  and  N2_13 
REMARK       I    between atoms: N2_10  and  C2_53 
REMARK       I    between atoms: N2_10  and  C7_27 
REMARK       I    between atoms: C6_11  and  C5_48 
REMARK       I    between atoms: C5_12  and  C6_17 
REMARK       I    between atoms: N2_13  and  C2_19 
REMARK       I    between atoms: C2_16  and  O2_42 
REMARK       I    between atoms: C3_18  and  O3_23 
REMARK       I    between atoms: O3_20  and  C1_24 
REMARK       I    between atoms: O3_20  and  C3_22 
REMARK       I    between atoms: O6_21  and  C6_28 
REMARK       I    between atoms: O4_25  and  C4_50 
REMARK       I    between atoms: O4_26  and  C1_33 
REMARK       I    between atoms: O4_26  and  C4_41 
REMARK       I    between atoms: C6_28  and  C5_43 
REMARK       I    between atoms: C5_29  and  C6_34 
REMARK       I    between atoms: O3_30  and  C3_46 
REMARK       I    between atoms: C3_31  and  O3_49 
REMARK       I    between atoms: C1_38  and  O3_49 
ROOT
ATOM      1  C8  NAG d 404      11.364  23.469  -5.069  0.00  0.00    -0.003 C 
ATOM      2  O6  NAG d 404      12.562  29.172  -0.287  0.00  0.00    -0.398 OA
ATOM      3  N2  NAG d 404       9.998  25.253  -4.159  0.00  0.00    -0.349 N 
ATOM      4  O3  NAG d 404       9.065  28.097  -5.202  0.00  0.00    -0.348 OA
ATOM      5  C3  NAG d 404      10.047  27.748  -4.285  0.00  0.00     0.093 C 
ATOM      6  O4  NAG d 404      10.748  30.101  -4.030  0.00  0.00    -0.390 OA
ATOM      7  C7  NAG d 404      11.246  24.688  -4.202  0.00  0.00     0.214 C 
ATOM      8  C5  NAG d 404      11.632  28.481  -2.520  0.00  0.00     0.089 C 
ATOM      9  C6  NAG d 404      12.149  29.565  -1.605  0.00  0.00     0.043 C 
ATOM     10  O5  NAG d 404      11.298  27.294  -1.807  0.00  0.00    -0.337 OA
ATOM     11  C1  NAG d 404      10.076  26.685  -2.084  0.00  0.00     0.283 C 
ATOM     12  O7  NAG d 404      12.207  25.133  -3.579  0.00  0.00    -0.274 OA
ATOM     13  C4  NAG d 404      10.402  28.895  -3.340  0.00  0.00     0.089 C 
ATOM     14  C2  NAG d 404       9.623  26.516  -3.498  0.00  0.00     0.102 C 
ATOM     15  H   NAG d 404      10.415  23.256  -5.516  0.00  0.00     0.040 H 
ATOM     16  H   NAG d 404      11.672  22.635  -4.472  0.00  0.00     0.040 H 
ATOM     17  H   NAG d 404      12.088  23.646  -5.836  0.00  0.00     0.040 H 
ATOM     18  H   NAG d 404      12.872  29.952   0.201  0.00  0.00     0.209 HD
ATOM     19  H   NAG d 404       9.277  24.765  -4.618  0.00  0.00     0.163 HD
ATOM     20  H   NAG d 404      10.932  27.523  -4.843  0.00  0.00     0.091 H 
ATOM     21  H   NAG d 404       9.993  30.397  -4.562  0.00  0.00     0.210 HD
ATOM     22  H   NAG d 404      12.445  28.301  -3.191  0.00  0.00     0.090 H 
ATOM     23  H   NAG d 404      12.992  30.016  -2.085  0.00  0.00     0.078 H 
ATOM     24  H   NAG d 404      11.314  30.215  -1.448  0.00  0.00     0.078 H 
ATOM     25  H   NAG d 404       9.539  29.084  -2.737  0.00  0.00     0.091 H 
ATOM     26  H   NAG d 404       8.557  26.433  -3.473  0.00  0.00     0.085 H 
ATOM     27  O4  NAG d 402       7.554  33.855 -13.352  0.00  0.00    -0.390 OA
ATOM     28  O5  NAG d 402       7.520  31.330 -10.743  0.00  0.00    -0.349 OA
ATOM     29  C7  NAG d 402       9.968  28.408 -13.466  0.00  0.00     0.214 C 
ATOM     30  N2  NAG d 402      10.014  29.632 -12.865  0.00  0.00    -0.349 N 
ATOM     31  C8  NAG d 402      11.283  27.700 -13.746  0.00  0.00    -0.003 C 
ATOM     32  C2  NAG d 402       8.805  30.416 -12.567  0.00  0.00     0.087 C 
ATOM     33  O6  NAG d 402       5.028  32.508 -10.802  0.00  0.00    -0.398 OA
ATOM     34  C6  NAG d 402       6.210  33.303 -10.753  0.00  0.00     0.043 C 
ATOM     35  C3  NAG d 402       8.735  31.754 -13.284  0.00  0.00     0.093 C 
ATOM     36  O7  NAG d 402       8.935  27.859 -13.790  0.00  0.00    -0.274 OA
ATOM     37  C1  NAG d 402       8.710  30.622 -11.052  0.00  0.00     0.154 C 
ATOM     38  C4  NAG d 402       7.497  32.531 -12.813  0.00  0.00     0.089 C 
ATOM     39  C5  NAG d 402       7.452  32.645 -11.301  0.00  0.00     0.089 C 
ATOM     40  O3  NAG d 402       8.522  31.565 -14.662  0.00  0.00    -0.348 OA
ATOM     41  H   NAG d 402       7.583  33.809 -14.320  0.00  0.00     0.210 HD
ATOM     42  H   NAG d 402      10.891  30.006 -12.621  0.00  0.00     0.163 HD
ATOM     43  H   NAG d 402      12.095  28.307 -13.404  0.00  0.00     0.040 H 
ATOM     44  H   NAG d 402      11.381  27.533 -14.798  0.00  0.00     0.040 H 
ATOM     45  H   NAG d 402      11.298  26.762 -13.232  0.00  0.00     0.040 H 
ATOM     46  H   NAG d 402       7.973  29.854 -12.934  0.00  0.00     0.084 H 
ATOM     47  H   NAG d 402       4.286  33.009 -10.430  0.00  0.00     0.209 HD
ATOM     48  H   NAG d 402       6.395  33.558  -9.731  0.00  0.00     0.078 H 
ATOM     49  H   NAG d 402       6.023  34.151 -11.378  0.00  0.00     0.078 H 
ATOM     50  H   NAG d 402       9.652  32.265 -13.081  0.00  0.00     0.091 H 
ATOM     51  H   NAG d 402       9.522  31.213 -10.683  0.00  0.00     0.132 H 
ATOM     52  H   NAG d 402       6.627  32.005 -13.147  0.00  0.00     0.091 H 
ATOM     53  H   NAG d 402       8.281  33.265 -11.032  0.00  0.00     0.090 H 
ATOM     54  O4  GCU d 401      11.609  32.219 -18.997  0.00  0.00    -0.390 OA
ATOM     55  C4  GCU d 401      10.396  32.270 -18.238  0.00  0.00     0.097 C 
ATOM     56  C6  GCU d 401      11.011  34.469 -17.126  0.00  0.00     0.206 C 
ATOM     57  C2  GCU d 401       9.021  30.784 -16.790  0.00  0.00     0.110 C 
ATOM     58  O3  GCU d 401       9.459  30.267 -19.125  0.00  0.00    -0.390 OA
ATOM     59  C1  GCU d 401       9.458  31.613 -15.582  0.00  0.00     0.160 C 
ATOM     60  O2  GCU d 401       8.818  29.432 -16.411  0.00  0.00    -0.388 OA
ATOM     61  O6B GCU d 401      11.698  34.618 -18.159  0.00  0.00    -0.646 OA
ATOM     62  C3  GCU d 401      10.013  30.832 -17.926  0.00  0.00     0.092 C 
ATOM     63  O5  GCU d 401       9.582  32.956 -16.054  0.00  0.00    -0.340 OA
ATOM     64  C5  GCU d 401      10.685  33.037 -16.938  0.00  0.00     0.152 C 
ATOM     65  O6A GCU d 401      10.572  35.231 -16.239  0.00  0.00    -0.646 OA
ATOM     66  H   GCU d 401      11.452  31.739 -19.825  0.00  0.00     0.210 HD
ATOM     67  H   GCU d 401       9.604  32.758 -18.766  0.00  0.00     0.091 H 
ATOM     68  H   GCU d 401       8.106  31.217 -17.137  0.00  0.00     0.094 H 
ATOM     69  H   GCU d 401      10.117  30.311 -19.837  0.00  0.00     0.210 HD
ATOM     70  H   GCU d 401      10.373  31.250 -15.161  0.00  0.00     0.133 H 
ATOM     71  H   GCU d 401       9.656  29.055 -16.098  0.00  0.00     0.210 HD
ATOM     72  H   GCU d 401      10.869  30.270 -17.616  0.00  0.00     0.091 H 
ATOM     73  H   GCU d 401      11.552  32.561 -16.532  0.00  0.00     0.104 H 
ATOM     74  O4  GCU d 405       9.783  25.757  -1.149  0.00  0.00    -0.189 OA
ATOM     75  O2  GCU d 403       6.979  27.304  -6.551  0.00  0.00    -0.388 OA
ATOM     76  C5  GCU d 403      10.206  29.037  -8.538  0.00  0.00     0.152 C 
ATOM     77  O5  GCU d 403      10.145  28.888  -7.145  0.00  0.00    -0.340 OA
ATOM     78  C6  GCU d 403      11.268  30.020  -8.874  0.00  0.00     0.206 C 
ATOM     79  C3  GCU d 403       7.804  28.350  -8.540  0.00  0.00     0.092 C 
ATOM     80  O3  GCU d 403       6.504  28.619  -9.088  0.00  0.00    -0.390 OA
ATOM     81  C1  GCU d 403       9.202  28.087  -6.491  0.00  0.00     0.160 C 
ATOM     82  O4  GCU d 403       8.771  29.427 -10.467  0.00  0.00    -0.348 OA
ATOM     83  O6A GCU d 403      11.328  31.082  -8.211  0.00  0.00    -0.646 OA
ATOM     84  C2  GCU d 403       7.801  28.367  -7.034  0.00  0.00     0.110 C 
ATOM     85  C4  GCU d 403       8.805  29.363  -9.068  0.00  0.00     0.103 C 
ATOM     86  O6B GCU d 403      12.034  29.716  -9.811  0.00  0.00    -0.646 OA
ATOM     87  H   GCU d 403       6.071  27.429  -6.866  0.00  0.00     0.210 HD
ATOM     88  H   GCU d 403      10.490  28.133  -9.033  0.00  0.00     0.104 H 
ATOM     89  H   GCU d 403       8.085  27.365  -8.848  0.00  0.00     0.091 H 
ATOM     90  H   GCU d 403       6.220  29.509  -8.824  0.00  0.00     0.210 HD
ATOM     91  H   GCU d 403       9.636  27.132  -6.706  0.00  0.00     0.133 H 
ATOM     92  H   GCU d 403       7.451  29.328  -6.721  0.00  0.00     0.094 H 
ATOM     93  H   GCU d 403       8.537  30.336  -8.711  0.00  0.00     0.092 H 
ENDROOT
TORSDOF 23
ENDMDL
MODEL 56
REMARK VINA RESULT:      -1.8      3.666      5.229
REMARK  0 active torsions:
REMARK  status: ('A' for Active; 'I' for Inactive)
REMARK       I    between atoms: C8_1  and  C7_27 
REMARK       I    between atoms: O6_2  and  C6_34 
REMARK       I    between atoms: O4_3  and  C4_39 
REMARK       I    between atoms: O4_4  and  C4_6 
REMARK       I    between atoms: O2_7  and  C2_37 
REMARK       I    between atoms: C7_9  and  C8_15 
REMARK       I    between atoms: C7_9  and  N2_13 
REMARK       I    between atoms: N2_10  and  C2_53 
REMARK       I    between atoms: N2_10  and  C7_27 
REMARK       I    between atoms: C6_11  and  C5_48 
REMARK       I    between atoms: C5_12  and  C6_17 
REMARK       I    between atoms: N2_13  and  C2_19 
REMARK       I    between atoms: C2_16  and  O2_42 
REMARK       I    between atoms: C3_18  and  O3_23 
REMARK       I    between atoms: O3_20  and  C1_24 
REMARK       I    between atoms: O3_20  and  C3_22 
REMARK       I    between atoms: O6_21  and  C6_28 
REMARK       I    between atoms: O4_25  and  C4_50 
REMARK       I    between atoms: O4_26  and  C1_33 
REMARK       I    between atoms: O4_26  and  C4_41 
REMARK       I    between atoms: C6_28  and  C5_43 
REMARK       I    between atoms: C5_29  and  C6_34 
REMARK       I    between atoms: O3_30  and  C3_46 
REMARK       I    between atoms: C3_31  and  O3_49 
REMARK       I    between atoms: C1_38  and  O3_49 
ROOT
ATOM      1  C8  NAG d 404      -2.589  29.938  -4.546  0.00  0.00    -0.003 C 
ATOM      2  O6  NAG d 404      -3.252  23.438  -0.785  0.00  0.00    -0.398 OA
ATOM      3  N2  NAG d 404      -1.462  28.939  -2.646  0.00  0.00    -0.349 N 
ATOM      4  O3  NAG d 404       1.243  27.336  -2.251  0.00  0.00    -0.348 OA
ATOM      5  C3  NAG d 404      -0.071  26.893  -2.299  0.00  0.00     0.093 C 
ATOM      6  O4  NAG d 404       0.640  24.535  -2.132  0.00  0.00    -0.390 OA
ATOM      7  C7  NAG d 404      -2.425  28.778  -3.608  0.00  0.00     0.214 C 
ATOM      8  C5  NAG d 404      -1.681  25.039  -1.924  0.00  0.00     0.089 C 
ATOM      9  C6  NAG d 404      -1.971  23.655  -1.396  0.00  0.00     0.043 C 
ATOM     10  O5  NAG d 404      -2.590  26.008  -1.409  0.00  0.00    -0.337 OA
ATOM     11  C1  NAG d 404      -2.065  27.202  -0.919  0.00  0.00     0.283 C 
ATOM     12  O7  NAG d 404      -3.114  27.766  -3.705  0.00  0.00    -0.274 OA
ATOM     13  C4  NAG d 404      -0.257  25.531  -1.630  0.00  0.00     0.089 C 
ATOM     14  C2  NAG d 404      -1.002  27.926  -1.679  0.00  0.00     0.102 C 
ATOM     15  H   NAG d 404      -1.895  30.709  -4.285  0.00  0.00     0.040 H 
ATOM     16  H   NAG d 404      -3.587  30.317  -4.473  0.00  0.00     0.040 H 
ATOM     17  H   NAG d 404      -2.402  29.614  -5.549  0.00  0.00     0.040 H 
ATOM     18  H   NAG d 404      -3.316  22.517  -0.488  0.00  0.00     0.209 HD
ATOM     19  H   NAG d 404      -1.033  29.824  -2.596  0.00  0.00     0.163 HD
ATOM     20  H   NAG d 404      -0.323  26.766  -3.331  0.00  0.00     0.091 H 
ATOM     21  H   NAG d 404       1.555  24.810  -1.965  0.00  0.00     0.210 HD
ATOM     22  H   NAG d 404      -1.796  24.940  -2.983  0.00  0.00     0.090 H 
ATOM     23  H   NAG d 404      -1.886  22.974  -2.216  0.00  0.00     0.078 H 
ATOM     24  H   NAG d 404      -1.262  23.508  -0.608  0.00  0.00     0.078 H 
ATOM     25  H   NAG d 404      -0.066  25.666  -0.586  0.00  0.00     0.091 H 
ATOM     26  H   NAG d 404      -0.476  28.532  -0.973  0.00  0.00     0.085 H 
ATOM     27  O4  NAG d 402      10.375  25.406  -6.089  0.00  0.00    -0.390 OA
ATOM     28  O5  NAG d 402       7.372  26.848  -4.648  0.00  0.00    -0.349 OA
ATOM     29  C7  NAG d 402       6.199  28.684  -8.795  0.00  0.00     0.214 C 
ATOM     30  N2  NAG d 402       6.445  27.503  -8.157  0.00  0.00    -0.349 N 
ATOM     31  C8  NAG d 402       5.274  28.665 -10.000  0.00  0.00    -0.003 C 
ATOM     32  C2  NAG d 402       7.341  27.400  -6.994  0.00  0.00     0.087 C 
ATOM     33  O6  NAG d 402       9.413  27.166  -2.823  0.00  0.00    -0.398 OA
ATOM     34  C6  NAG d 402       9.157  25.896  -3.417  0.00  0.00     0.043 C 
ATOM     35  C3  NAG d 402       8.555  26.515  -7.217  0.00  0.00     0.093 C 
ATOM     36  O7  NAG d 402       6.681  29.744  -8.453  0.00  0.00    -0.274 OA
ATOM     37  C1  NAG d 402       6.535  26.901  -5.792  0.00  0.00     0.154 C 
ATOM     38  C4  NAG d 402       9.353  26.389  -5.911  0.00  0.00     0.089 C 
ATOM     39  C5  NAG d 402       8.471  25.941  -4.761  0.00  0.00     0.089 C 
ATOM     40  O3  NAG d 402       9.453  27.123  -8.114  0.00  0.00    -0.348 OA
ATOM     41  H   NAG d 402      10.954  25.670  -6.821  0.00  0.00     0.210 HD
ATOM     42  H   NAG d 402       6.006  26.687  -8.489  0.00  0.00     0.163 HD
ATOM     43  H   NAG d 402       4.934  27.666 -10.173  0.00  0.00     0.040 H 
ATOM     44  H   NAG d 402       5.804  29.016 -10.862  0.00  0.00     0.040 H 
ATOM     45  H   NAG d 402       4.434  29.301  -9.814  0.00  0.00     0.040 H 
ATOM     46  H   NAG d 402       7.733  28.380  -6.818  0.00  0.00     0.084 H 
ATOM     47  H   NAG d 402       9.853  27.039  -1.967  0.00  0.00     0.209 HD
ATOM     48  H   NAG d 402       8.538  25.337  -2.748  0.00  0.00     0.078 H 
ATOM     49  H   NAG d 402      10.115  25.450  -3.588  0.00  0.00     0.078 H 
ATOM     50  H   NAG d 402       8.194  25.575  -7.578  0.00  0.00     0.091 H 
ATOM     51  H   NAG d 402       6.168  25.908  -5.948  0.00  0.00     0.132 H 
ATOM     52  H   NAG d 402       9.764  27.349  -5.678  0.00  0.00     0.091 H 
ATOM     53  H   NAG d 402       8.174  24.940  -4.995  0.00  0.00     0.090 H 
ATOM     54  O4  GCU d 401      10.876  26.093 -13.179  0.00  0.00    -0.390 OA
ATOM     55  C4  GCU d 401      11.086  26.480 -11.818  0.00  0.00     0.097 C 
ATOM     56  C6  GCU d 401      11.215  24.079 -10.999  0.00  0.00     0.206 C 
ATOM     57  C2  GCU d 401      10.121  28.043 -10.137  0.00  0.00     0.110 C 
ATOM     58  O3  GCU d 401      11.096  28.829 -12.221  0.00  0.00    -0.390 OA
ATOM     59  C1  GCU d 401       9.551  26.836  -9.391  0.00  0.00     0.160 C 
ATOM     60  O2  GCU d 401       9.265  29.164  -9.983  0.00  0.00    -0.388 OA
ATOM     61  O6B GCU d 401      11.576  23.864 -12.176  0.00  0.00    -0.646 OA
ATOM     62  C3  GCU d 401      10.326  27.781 -11.609  0.00  0.00     0.092 C 
ATOM     63  O5  GCU d 401      10.505  25.786  -9.562  0.00  0.00    -0.340 OA
ATOM     64  C5  GCU d 401      10.507  25.377 -10.918  0.00  0.00     0.152 C 
ATOM     65  O6A GCU d 401      11.297  23.454  -9.921  0.00  0.00    -0.646 OA
ATOM     66  H   GCU d 401      11.235  26.775 -13.769  0.00  0.00     0.210 HD
ATOM     67  H   GCU d 401      12.122  26.615 -11.586  0.00  0.00     0.091 H 
ATOM     68  H   GCU d 401      11.079  28.240  -9.704  0.00  0.00     0.094 H 
ATOM     69  H   GCU d 401      11.212  28.634 -13.165  0.00  0.00     0.210 HD
ATOM     70  H   GCU d 401       8.584  26.562  -9.758  0.00  0.00     0.133 H 
ATOM     71  H   GCU d 401       8.402  28.969 -10.380  0.00  0.00     0.210 HD
ATOM     72  H   GCU d 401       9.355  27.730 -12.054  0.00  0.00     0.091 H 
ATOM     73  H   GCU d 401       9.514  25.225 -11.286  0.00  0.00     0.104 H 
ATOM     74  O4  GCU d 405      -2.999  27.882  -0.221  0.00  0.00    -0.189 OA
ATOM     75  O2  GCU d 403       2.830  29.390  -2.004  0.00  0.00    -0.388 OA
ATOM     76  C5  GCU d 403       3.252  26.814  -5.251  0.00  0.00     0.152 C 
ATOM     77  O5  GCU d 403       2.315  26.619  -4.227  0.00  0.00    -0.340 OA
ATOM     78  C6  GCU d 403       3.409  25.547  -6.012  0.00  0.00     0.206 C 
ATOM     79  C3  GCU d 403       4.209  28.605  -3.796  0.00  0.00     0.092 C 
ATOM     80  O3  GCU d 403       5.420  29.184  -3.286  0.00  0.00    -0.390 OA
ATOM     81  C1  GCU d 403       1.987  27.597  -3.280  0.00  0.00     0.160 C 
ATOM     82  O4  GCU d 403       5.486  27.707  -5.632  0.00  0.00    -0.348 OA
ATOM     83  O6A GCU d 403       3.521  24.477  -5.369  0.00  0.00    -0.646 OA
ATOM     84  C2  GCU d 403       3.256  28.216  -2.697  0.00  0.00     0.110 C 
ATOM     85  C4  GCU d 403       4.538  27.392  -4.650  0.00  0.00     0.103 C 
ATOM     86  O6B GCU d 403       3.423  25.640  -7.256  0.00  0.00    -0.646 OA
ATOM     87  H   GCU d 403       3.599  29.830  -1.610  0.00  0.00     0.210 HD
ATOM     88  H   GCU d 403       2.928  27.537  -5.970  0.00  0.00     0.104 H 
ATOM     89  H   GCU d 403       3.723  29.350  -4.392  0.00  0.00     0.091 H 
ATOM     90  H   GCU d 403       5.884  28.532  -2.739  0.00  0.00     0.210 HD
ATOM     91  H   GCU d 403       1.373  28.214  -3.903  0.00  0.00     0.133 H 
ATOM     92  H   GCU d 403       3.763  27.526  -2.057  0.00  0.00     0.094 H 
ATOM     93  H   GCU d 403       4.979  26.640  -4.030  0.00  0.00     0.092 H 
ENDROOT
TORSDOF 23
ENDMDL
