REMARK  0 active torsions:
REMARK  status: ('A' for Active; 'I' for Inactive)
REMARK       I    between atoms: C2_3  and  N_22 
REMARK       I    between atoms: C5_4  and  C6_73 
REMARK       I    between atoms: O6_5  and  C6_35 
REMARK       I    between atoms: O6_5  and  S2_74 
REMARK       I    between atoms: O3_6  and  C3_55 
REMARK       I    between atoms: C4_7  and  O4_39 
REMARK       I    between atoms: C6_9  and  C5_26 
REMARK       I    between atoms: C6_9  and  O6_86 
REMARK       I    between atoms: C4_10  and  O4_27 
REMARK       I    between atoms: C3_11  and  O3_48 
REMARK       I    between atoms: O1S_12  and  S1_56 
REMARK       I    between atoms: S2_13  and  O6_86 
REMARK       I    between atoms: S1_14  and  N_67 
REMARK       I    between atoms: S1_14  and  O1S_46 
REMARK       I    between atoms: S1_14  and  O2S_62 
REMARK       I    between atoms: S1_14  and  O3S_21 
REMARK       I    between atoms: C2_15  and  N_36 
REMARK       I    between atoms: O3_16  and  C3_33 
REMARK       I    between atoms: O4_17  and  C1_76 
REMARK       I    between atoms: O4_17  and  C4_82 
REMARK       I    between atoms: C1_18  and  O4_23 
REMARK       I    between atoms: C3_19  and  O3_24 
REMARK       I    between atoms: O3_20  and  C3_81 
REMARK       I    between atoms: N_22  and  S1_56 
REMARK       I    between atoms: O4_23  and  C4_52 
REMARK       I    between atoms: C4_25  and  O4_92 
REMARK       I    between atoms: O4_27  and  C1_37 
REMARK       I    between atoms: C3_28  and  O3_72 
REMARK       I    between atoms: O6_29  and  C6_44 
REMARK       I    between atoms: O6_29  and  S_31 
REMARK       I    between atoms: C4_30  and  O4_69 
REMARK       I    between atoms: C6_32  and  C5_51 
REMARK       I    between atoms: C6_35  and  C5_84 
REMARK       I    between atoms: N_36  and  C_60 
REMARK       I    between atoms: C2_38  and  O2_88 
REMARK       I    between atoms: C6_40  and  C5_79 
REMARK       I    between atoms: S_41  and  O2_57 
REMARK       I    between atoms: C2_43  and  O2_63 
REMARK       I    between atoms: C6_44  and  C5_96 
REMARK       I    between atoms: CH3_53  and  C_60 
REMARK       I    between atoms: S1_56  and  O2S_80 
REMARK       I    between atoms: S1_56  and  O3S_91 
REMARK       I    between atoms: O2_57  and  C2_75 
REMARK       I    between atoms: N_67  and  C2_94 
REMARK       I    between atoms: O4_69  and  C1_90 
REMARK       I    between atoms: C1_89  and  O4_92 
ROOT
ATOM      1  O   NGY d   1      22.007  14.938  48.946  0.00  0.00    -0.274 OA
ATOM      2  C4  NGY d   1      22.886  11.733  45.749  0.00  0.00     0.089 C 
ATOM      3  C3  NGY d   1      21.980  12.886  46.004  0.00  0.00     0.086 C 
ATOM      4  C2  NGY d   1      21.402  12.739  47.368  0.00  0.00     0.087 C 
ATOM      5  O6  NGY d   1      24.059   9.247  46.301  0.00  0.00    -0.254 OA
ATOM      6  S   NGY d   1      24.799   7.977  46.475  0.00  0.00     0.251 S 
ATOM      7  N   NGY d   1      20.501  13.824  47.610  0.00  0.00    -0.349 N 
ATOM      8  O4  NGY d   1      23.418  11.840  44.484  0.00  0.00    -0.390 OA
ATOM      9  C6  NGY d   1      22.888   9.268  45.567  0.00  0.00     0.067 C 
ATOM     10  O3  NGY d   1      22.675  14.072  45.904  0.00  0.00    -0.391 OA
ATOM     11  O8  NGY d   1      23.849   7.051  47.090  0.00  0.00    -0.572 OA
ATOM     12  CH3 NGY d   1      19.936  16.039  48.673  0.00  0.00    -0.003 C 
ATOM     13  C   NGY d   1      20.895  14.920  48.437  0.00  0.00     0.214 C 
ATOM     14  O7  NGY d   1      25.246   7.477  45.201  0.00  0.00    -0.572 OA
ATOM     15  O5  NGY d   1      21.521  10.418  47.121  0.00  0.00    -0.349 OA
ATOM     16  C1  NGY d   1      20.653  11.449  47.427  0.00  0.00     0.154 C 
ATOM     17  O9  NGY d   1      25.939   8.208  47.330  0.00  0.00    -0.572 OA
ATOM     18  C5  NGY d   1      22.069  10.487  45.857  0.00  0.00     0.090 C 
ATOM     19  H   NGY d   1      23.690  11.714  46.455  0.00  0.00     0.091 H 
ATOM     20  H   NGY d   1      21.196  12.900  45.276  0.00  0.00     0.090 H 
ATOM     21  H   NGY d   1      22.177  12.746  48.106  0.00  0.00     0.084 H 
ATOM     22  H   NGY d   1      19.604  13.815  47.204  0.00  0.00     0.163 HD
ATOM     23  H   NGY d   1      22.700  11.859  43.832  0.00  0.00     0.210 HD
ATOM     24  H   NGY d   1      22.312   8.399  45.809  0.00  0.00     0.080 H 
ATOM     25  H   NGY d   1      23.148   9.282  44.529  0.00  0.00     0.080 H 
ATOM     26  H   NGY d   1      23.393  14.082  46.556  0.00  0.00     0.210 HD
ATOM     27  H   NGY d   1      20.390  16.769  49.310  0.00  0.00     0.040 H 
ATOM     28  H   NGY d   1      19.052  15.659  49.140  0.00  0.00     0.040 H 
ATOM     29  H   NGY d   1      19.679  16.491  47.738  0.00  0.00     0.040 H 
ATOM     30  H   NGY d   1      20.271  11.245  48.406  0.00  0.00     0.132 H 
ATOM     31  H   NGY d   1      21.287  10.521  45.127  0.00  0.00     0.090 H 
ATOM     32  O6B BDP d   2      18.554   8.430  45.062  0.00  0.00    -0.646 OA
ATOM     33  O6A BDP d   2      18.528  10.055  43.617  0.00  0.00    -0.646 OA
ATOM     34  C1  BDP d   2      15.563  10.840  46.835  0.00  0.00     0.160 C 
ATOM     35  O3  BDP d   2      18.254  11.604  49.179  0.00  0.00    -0.390 OA
ATOM     36  C4  BDP d   2      18.404  10.804  46.968  0.00  0.00     0.103 C 
ATOM     37  C2  BDP d   2      16.253  11.041  48.150  0.00  0.00     0.110 C 
ATOM     38  C6  BDP d   2      18.256   9.615  44.762  0.00  0.00     0.206 C 
ATOM     39  O5  BDP d   2      16.325   9.946  46.100  0.00  0.00    -0.340 OA
ATOM     40  C5  BDP d   2      17.559  10.500  45.751  0.00  0.00     0.152 C 
ATOM     41  C3  BDP d   2      17.617  11.603  47.952  0.00  0.00     0.092 C 
ATOM     42  O2  BDP d   2      15.535  11.914  48.954  0.00  0.00    -0.388 OA
ATOM     43  O4  BDP d   2      19.510  11.541  46.545  0.00  0.00    -0.348 OA
ATOM     44  H   BDP d   2      15.484  11.754  46.284  0.00  0.00     0.133 H 
ATOM     45  H   BDP d   2      19.148  11.966  49.079  0.00  0.00     0.210 HD
ATOM     46  H   BDP d   2      18.713   9.895  47.440  0.00  0.00     0.092 H 
ATOM     47  H   BDP d   2      16.321  10.084  48.623  0.00  0.00     0.094 H 
ATOM     48  H   BDP d   2      17.390  11.444  45.277  0.00  0.00     0.104 H 
ATOM     49  H   BDP d   2      17.539  12.595  47.559  0.00  0.00     0.091 H 
ATOM     50  H   BDP d   2      15.477  12.780  48.520  0.00  0.00     0.210 HD
ATOM     51  C2  SGN d   5       5.891  14.580  51.981  0.00  0.00     0.081 C 
ATOM     52  C6  SGN d   5       3.523  11.866  49.618  0.00  0.00     0.067 C 
ATOM     53  O1S SGN d   5       7.335  17.703  53.686  0.00  0.00    -0.296 OA
ATOM     54  S2  SGN d   5       2.656   9.627  50.562  0.00  0.00     0.251 S 
ATOM     55  O3  SGN d   5       7.843  13.948  50.740  0.00  0.00    -0.391 OA
ATOM     56  O4  SGN d   5       6.196  12.844  48.665  0.00  0.00    -0.348 OA
ATOM     57  N   SGN d   5       6.402  15.907  52.271  0.00  0.00    -0.210 NA
ATOM     58  C5  SGN d   5       4.271  13.087  50.144  0.00  0.00     0.091 C 
ATOM     59  C3  SGN d   5       6.458  14.169  50.620  0.00  0.00     0.083 C 
ATOM     60  O5S SGN d   5       2.507   9.033  49.239  0.00  0.00    -0.572 OA
ATOM     61  S1  SGN d   5       6.654  16.415  53.766  0.00  0.00     0.156 S 
ATOM     62  O6S SGN d   5       3.155   8.641  51.511  0.00  0.00    -0.572 OA
ATOM     63  O5  SGN d   5       3.893  13.336  51.495  0.00  0.00    -0.349 OA
ATOM     64  O4S SGN d   5       1.415  10.249  51.020  0.00  0.00    -0.572 OA
ATOM     65  O2S SGN d   5       5.344  16.559  54.394  0.00  0.00    -0.296 OA
ATOM     66  C4  SGN d   5       5.787  12.936  50.024  0.00  0.00     0.095 C 
ATOM     67  O6  SGN d   5       3.730  10.761  50.470  0.00  0.00    -0.254 OA
ATOM     68  C1  SGN d   5       4.362  14.580  51.976  0.00  0.00     0.150 C 
ATOM     69  O3S SGN d   5       7.478  15.389  54.397  0.00  0.00    -0.296 OA
ATOM     70  H   SGN d   5       6.192  13.880  52.732  0.00  0.00     0.076 H 
ATOM     71  H   SGN d   5       3.881  11.628  48.638  0.00  0.00     0.080 H 
ATOM     72  H   SGN d   5       2.477  12.087  49.583  0.00  0.00     0.080 H 
ATOM     73  H   SGN d   5       6.752  18.351  53.261  0.00  0.00     0.231 HD
ATOM     74  H   SGN d   5       8.264  14.735  51.119  0.00  0.00     0.210 HD
ATOM     75  H   SGN d   5       5.742  16.564  51.855  0.00  0.00     0.140 HD
ATOM     76  H   SGN d   5       3.998  13.925  49.537  0.00  0.00     0.090 H 
ATOM     77  H   SGN d   5       6.257  14.975  49.945  0.00  0.00     0.089 H 
ATOM     78  H   SGN d   5       4.841  17.251  53.937  0.00  0.00     0.231 HD
ATOM     79  H   SGN d   5       6.068  12.042  50.540  0.00  0.00     0.091 H 
ATOM     80  H   SGN d   5       3.972  14.697  52.965  0.00  0.00     0.131 H 
ATOM     81  H   SGN d   5       8.333  15.336  53.942  0.00  0.00     0.231 HD
ATOM     82  C5  IDS d   4       8.816  12.004  48.345  0.00  0.00     0.152 C 
ATOM     83  C4  IDS d   4       9.050  11.961  46.859  0.00  0.00     0.103 C 
ATOM     84  O4  IDS d   4       9.788  10.835  46.485  0.00  0.00    -0.348 OA
ATOM     85  C3  IDS d   4       7.746  12.063  46.118  0.00  0.00     0.094 C 
ATOM     86  S   IDS d   4       5.207   9.494  45.990  0.00  0.00     0.252 S 
ATOM     87  O61 IDS d   4      10.974  12.517  49.242  0.00  0.00    -0.646 OA
ATOM     88  O2  IDS d   4       6.506  10.045  46.419  0.00  0.00    -0.244 OA
ATOM     89  O62 IDS d   4      10.254  10.474  49.481  0.00  0.00    -0.646 OA
ATOM     90  O2S IDS d   4       5.406   8.047  45.835  0.00  0.00    -0.572 OA
ATOM     91  O5  IDS d   4       7.840  11.117  48.737  0.00  0.00    -0.340 OA
ATOM     92  O3  IDS d   4       7.425  13.400  45.985  0.00  0.00    -0.390 OA
ATOM     93  C6  IDS d   4      10.080  11.650  49.063  0.00  0.00     0.206 C 
ATOM     94  C2  IDS d   4       6.573  11.378  46.785  0.00  0.00     0.134 C 
ATOM     95  C1  IDS d   4       6.605  11.509  48.277  0.00  0.00     0.161 C 
ATOM     96  O3S IDS d   4       4.193   9.742  46.986  0.00  0.00    -0.572 OA
ATOM     97  O1S IDS d   4       4.802  10.098  44.746  0.00  0.00    -0.572 OA
ATOM     98  H   IDS d   4       8.499  12.997  48.588  0.00  0.00     0.104 H 
ATOM     99  H   IDS d   4       9.642  12.810  46.587  0.00  0.00     0.092 H 
ATOM    100  H   IDS d   4       7.902  11.564  45.184  0.00  0.00     0.091 H 
ATOM    101  H   IDS d   4       7.297  13.791  46.864  0.00  0.00     0.210 HD
ATOM    102  H   IDS d   4       5.691  11.877  46.442  0.00  0.00     0.097 H 
ATOM    103  H   IDS d   4       5.898  10.857  48.745  0.00  0.00     0.133 H 
ATOM    104  O6  SGN d   3      13.930  13.491  45.331  0.00  0.00    -0.254 OA
ATOM    105  S1  SGN d   3       9.546   8.599  43.315  0.00  0.00     0.156 S 
ATOM    106  C3  SGN d   3      12.428   9.488  45.764  0.00  0.00     0.083 C 
ATOM    107  O3S SGN d   3       8.848   7.318  43.392  0.00  0.00    -0.296 OA
ATOM    108  O4  SGN d   3      14.207  10.394  47.048  0.00  0.00    -0.348 OA
ATOM    109  O3  SGN d   3      13.182   8.410  45.244  0.00  0.00    -0.391 OA
ATOM    110  O5  SGN d   3      11.448  12.132  45.367  0.00  0.00    -0.349 OA
ATOM    111  C6  SGN d   3      13.246  13.171  46.522  0.00  0.00     0.067 C 
ATOM    112  C1  SGN d   3      10.520  11.071  45.255  0.00  0.00     0.150 C 
ATOM    113  O6S SGN d   3      15.914  14.526  46.295  0.00  0.00    -0.572 OA
ATOM    114  O1S SGN d   3       8.636   9.730  43.295  0.00  0.00    -0.296 OA
ATOM    115  C4  SGN d   3      13.324  10.698  45.978  0.00  0.00     0.095 C 
ATOM    116  O5S SGN d   3      14.003  15.866  45.757  0.00  0.00    -0.572 OA
ATOM    117  O2S SGN d   3      10.460   8.659  42.179  0.00  0.00    -0.296 OA
ATOM    118  N   SGN d   3      10.419   8.682  44.650  0.00  0.00    -0.210 NA
ATOM    119  S2  SGN d   3      14.850  14.763  45.327  0.00  0.00     0.251 S 
ATOM    120  C5  SGN d   3      12.440  11.890  46.347  0.00  0.00     0.091 C 
ATOM    121  O4S SGN d   3      15.364  14.931  43.974  0.00  0.00    -0.572 OA
ATOM    122  C2  SGN d   3      11.295   9.830  44.801  0.00  0.00     0.081 C 
ATOM    123  H   SGN d   3      12.011   9.205  46.708  0.00  0.00     0.089 H 
ATOM    124  H   SGN d   3       8.253   7.320  44.158  0.00  0.00     0.231 HD
ATOM    125  H   SGN d   3      13.562   8.664  44.388  0.00  0.00     0.210 HD
ATOM    126  H   SGN d   3      12.583  13.972  46.773  0.00  0.00     0.080 H 
ATOM    127  H   SGN d   3      13.962  13.025  47.304  0.00  0.00     0.080 H 
ATOM    128  H   SGN d   3       9.770  11.325  44.535  0.00  0.00     0.131 H 
ATOM    129  H   SGN d   3       9.145  10.554  43.244  0.00  0.00     0.231 HD
ATOM    130  H   SGN d   3      13.886  10.935  45.099  0.00  0.00     0.091 H 
ATOM    131  H   SGN d   3      10.902   9.523  42.164  0.00  0.00     0.231 HD
ATOM    132  H   SGN d   3      11.001   7.845  44.688  0.00  0.00     0.140 HD
ATOM    133  H   SGN d   3      11.979  11.627  47.276  0.00  0.00     0.090 H 
ATOM    134  H   SGN d   3      11.719  10.067  43.848  0.00  0.00     0.076 H 
ATOM    135  O3  BDP d   6       2.680  16.519  53.671  0.00  0.00    -0.390 OA
ATOM    136  C4  BDP d   6       2.552  15.972  51.391  0.00  0.00     0.103 C 
ATOM    137  C6  BDP d   6       1.943  15.330  49.055  0.00  0.00     0.205 C 
ATOM    138  C2  BDP d   6       1.043  17.621  52.447  0.00  0.00     0.083 C 
ATOM    139  O5  BDP d   6       0.656  16.870  50.276  0.00  0.00    -0.370 OA
ATOM    140  C5  BDP d   6       1.956  16.422  50.082  0.00  0.00     0.149 C 
ATOM    141  O6A BDP d   6       2.831  15.298  48.164  0.00  0.00    -0.646 OA
ATOM    142  C3  BDP d   6       2.416  17.044  52.421  0.00  0.00     0.090 C 
ATOM    143  O2  BDP d   6       1.044  18.761  53.227  0.00  0.00    -0.391 OA
ATOM    144  O4  BDP d   6       3.897  15.702  51.191  0.00  0.00    -0.348 OA
ATOM    145  C1  BDP d   6       0.580  17.988  51.080  0.00  0.00     0.047 C 
ATOM    146  O6B BDP d   6       1.040  14.451  49.079  0.00  0.00    -0.646 OA
ATOM    147  H   BDP d   6       3.571  16.136  53.679  0.00  0.00     0.210 HD
ATOM    148  H   BDP d   6       2.038  15.098  51.734  0.00  0.00     0.092 H 
ATOM    149  H   BDP d   6       0.382  16.881  52.848  0.00  0.00     0.090 H 
ATOM    150  H   BDP d   6       2.575  17.215  49.718  0.00  0.00     0.104 H 
ATOM    151  H   BDP d   6       3.111  17.817  52.168  0.00  0.00     0.091 H 
ATOM    152  H   BDP d   6       1.649  19.415  52.843  0.00  0.00     0.210 HD
ATOM    153  H   BDP d   6       1.204  18.761  50.683  0.00  0.00     0.078 H 
ATOM    154  H   BDP d   6      -0.428  18.343  51.118  0.00  0.00     0.078 H 
ENDROOT
TORSDOF 45
