REMARK  0 active torsions:
REMARK  status: ('A' for Active; 'I' for Inactive)
REMARK       I    between atoms: C2_1  and  O2_12 
REMARK       I    between atoms: C1_4  and  O4_37 
REMARK       I    between atoms: O2S_5  and  S1_43 
REMARK       I    between atoms: O2_11  and  C2_82 
REMARK       I    between atoms: O2_11  and  S_80 
REMARK       I    between atoms: O2_12  and  S_23 
REMARK       I    between atoms: C4_13  and  O4_37 
REMARK       I    between atoms: C2_14  and  N_39 
REMARK       I    between atoms: O1_18  and  C1_32 
REMARK       I    between atoms: C4_19  and  O4_53 
REMARK       I    between atoms: O6_20  and  C6_76 
REMARK       I    between atoms: O6_20  and  S2_95 
REMARK       I    between atoms: S1_21  and  N_39 
REMARK       I    between atoms: S1_21  and  O1S_79 
REMARK       I    between atoms: S1_21  and  O2S_30 
REMARK       I    between atoms: S1_21  and  O3S_94 
REMARK       I    between atoms: C3_24  and  O3_26 
REMARK       I    between atoms: C3_25  and  O3_36 
REMARK       I    between atoms: C6_27  and  C5_83 
REMARK       I    between atoms: C4_28  and  O4_51 
REMARK       I    between atoms: N_29  and  C2_40 
REMARK       I    between atoms: N_29  and  S1_71 
REMARK       I    between atoms: C5_31  and  C6_76 
REMARK       I    between atoms: O1S_35  and  S1_43 
REMARK       I    between atoms: O4_38  and  C4_93 
REMARK       I    between atoms: O4_38  and  C1_96 
REMARK       I    between atoms: O6_41  and  C6_54 
REMARK       I    between atoms: O6_41  and  S2_84 
REMARK       I    between atoms: C4_42  and  O4_49 
REMARK       I    between atoms: S1_43  and  N_47 
REMARK       I    between atoms: S1_43  and  O3S_69 
REMARK       I    between atoms: O2S_44  and  S1_71 
REMARK       I    between atoms: N_47  and  C2_56 
REMARK       I    between atoms: O2_48  and  C2_99 
REMARK       I    between atoms: O2_48  and  S_63 
REMARK       I    between atoms: O4_49  and  C1_57 
REMARK       I    between atoms: O4_51  and  C1_102 
REMARK       I    between atoms: O3S_52  and  S1_71 
REMARK       I    between atoms: O4_53  and  C1_105 
REMARK       I    between atoms: C6_54  and  C5_59 
REMARK       I    between atoms: O3_60  and  C3_100 
REMARK       I    between atoms: O1S_61  and  S1_71 
REMARK       I    between atoms: S2_62  and  O6_81 
REMARK       I    between atoms: C5_65  and  C6_89 
REMARK       I    between atoms: C6_67  and  C5_74 
REMARK       I    between atoms: C3_68  and  O3_104 
REMARK       I    between atoms: C3_70  and  O3_85 
REMARK       I    between atoms: C5_77  and  C6_101 
REMARK       I    between atoms: O6_81  and  C6_101 
REMARK       I    between atoms: C3_92  and  O3_98 
ROOT
ATOM      1  C2  IDS d1714     -23.512  -3.361 -27.392  0.00  0.00     0.132 C 
ATOM      2  O3S IDS d1714     -26.327  -2.833 -29.931  0.00  0.00    -0.572 OA
ATOM      3  C1  IDS d1714     -22.868  -2.222 -26.646  0.00  0.00     0.161 C 
ATOM      4  O2S IDS d1714     -24.954  -4.801 -29.535  0.00  0.00    -0.572 OA
ATOM      5  O2  IDS d1714     -24.578  -2.815 -28.186  0.00  0.00    -0.244 OA
ATOM      6  S   IDS d1714     -24.972  -3.316 -29.587  0.00  0.00     0.252 S 
ATOM      7  C6  IDS d1714     -24.995  -1.945 -23.613  0.00  0.00     0.203 C 
ATOM      8  O5  IDS d1714     -23.817  -1.717 -25.690  0.00  0.00    -0.343 OA
ATOM      9  C4  IDS d1714     -24.772  -3.943 -25.212  0.00  0.00    -0.005 C 
ATOM     10  O61 IDS d1714     -25.166  -0.707 -23.728  0.00  0.00    -0.646 OA
ATOM     11  C3  IDS d1714     -24.088  -4.447 -26.490  0.00  0.00     0.069 C 
ATOM     12  C5  IDS d1714     -24.167  -2.653 -24.673  0.00  0.00     0.127 C 
ATOM     13  O3  IDS d1714     -23.059  -5.396 -26.169  0.00  0.00    -0.393 OA
ATOM     14  O1S IDS d1714     -23.913  -2.818 -30.472  0.00  0.00    -0.572 OA
ATOM     15  O62 IDS d1714     -25.480  -2.598 -22.659  0.00  0.00    -0.646 OA
ATOM     16  H   IDS d1714     -22.750  -3.828 -27.980  0.00  0.00     0.097 H 
ATOM     17  H   IDS d1714     -22.585  -1.383 -27.247  0.00  0.00     0.133 H 
ATOM     18  H   IDS d1714     -24.685  -4.699 -24.460  0.00  0.00     0.041 H 
ATOM     19  H   IDS d1714     -25.792  -3.735 -25.459  0.00  0.00     0.041 H 
ATOM     20  H   IDS d1714     -24.873  -4.907 -27.053  0.00  0.00     0.087 H 
ATOM     21  H   IDS d1714     -23.275  -3.006 -24.199  0.00  0.00     0.100 H 
ATOM     22  H   IDS d1714     -22.360  -4.956 -25.660  0.00  0.00     0.210 HD
ATOM     23  O5  SGN d1709      -5.404 -11.455 -22.443  0.00  0.00    -0.350 OA
ATOM     24  O2S SGN d1709      -6.446 -13.632 -18.405  0.00  0.00    -0.296 OA
ATOM     25  O4S SGN d1709      -3.401  -9.342 -26.746  0.00  0.00    -0.572 OA
ATOM     26  O1  SGN d1709      -5.957 -13.715 -22.078  0.00  0.00    -0.369 OA
ATOM     27  O6  SGN d1709      -3.983 -10.670 -24.778  0.00  0.00    -0.254 OA
ATOM     28  C4  SGN d1709      -7.483 -10.842 -23.418  0.00  0.00     0.095 C 
ATOM     29  C5  SGN d1709      -6.053 -11.309 -23.707  0.00  0.00     0.091 C 
ATOM     30  C1  SGN d1709      -5.978 -12.397 -21.538  0.00  0.00     0.147 C 
ATOM     31  O5S SGN d1709      -1.554 -10.527 -25.462  0.00  0.00    -0.572 OA
ATOM     32  O1S SGN d1709      -8.812 -13.752 -18.114  0.00  0.00    -0.296 OA
ATOM     33  S1  SGN d1709      -7.716 -13.035 -18.727  0.00  0.00     0.156 S 
ATOM     34  N   SGN d1709      -7.998 -12.979 -20.295  0.00  0.00    -0.210 NA
ATOM     35  O4  SGN d1709      -8.122 -10.884 -24.705  0.00  0.00    -0.348 OA
ATOM     36  C2  SGN d1709      -7.408 -11.982 -21.180  0.00  0.00     0.081 C 
ATOM     37  C3  SGN d1709      -8.202 -11.793 -22.478  0.00  0.00     0.083 C 
ATOM     38  O3S SGN d1709      -7.698 -11.547 -18.245  0.00  0.00    -0.296 OA
ATOM     39  C6  SGN d1709      -5.290 -10.221 -24.471  0.00  0.00     0.067 C 
ATOM     40  S2  SGN d1709      -2.966  -9.692 -25.395  0.00  0.00     0.251 S 
ATOM     41  O6S SGN d1709      -2.801  -8.566 -24.465  0.00  0.00    -0.572 OA
ATOM     42  O3  SGN d1709      -9.473 -11.252 -22.115  0.00  0.00    -0.391 OA
ATOM     43  H   SGN d1709      -6.440 -14.557 -18.698  0.00  0.00     0.231 HD
ATOM     44  H   SGN d1709      -5.045 -13.960 -22.298  0.00  0.00     0.212 HD
ATOM     45  H   SGN d1709      -7.498  -9.879 -22.952  0.00  0.00     0.091 H 
ATOM     46  H   SGN d1709      -6.072 -12.214 -24.277  0.00  0.00     0.090 H 
ATOM     47  H   SGN d1709      -5.387 -12.404 -20.646  0.00  0.00     0.131 H 
ATOM     48  H   SGN d1709      -8.809 -14.672 -18.422  0.00  0.00     0.231 HD
ATOM     49  H   SGN d1709      -9.008 -12.878 -20.394  0.00  0.00     0.140 HD
ATOM     50  H   SGN d1709      -7.420 -11.052 -20.651  0.00  0.00     0.076 H 
ATOM     51  H   SGN d1709      -8.310 -12.727 -22.988  0.00  0.00     0.089 H 
ATOM     52  H   SGN d1709      -7.529 -11.518 -17.290  0.00  0.00     0.231 HD
ATOM     53  H   SGN d1709      -5.809  -9.995 -25.379  0.00  0.00     0.080 H 
ATOM     54  H   SGN d1709      -5.226  -9.344 -23.862  0.00  0.00     0.080 H 
ATOM     55  H   SGN d1709      -9.345 -10.407 -21.655  0.00  0.00     0.210 HD
ATOM     56  O1S IDS d1712     -20.061  -6.388 -22.141  0.00  0.00    -0.572 OA
ATOM     57  O2S IDS d1712     -17.817  -6.651 -21.172  0.00  0.00    -0.572 OA
ATOM     58  O61 IDS d1712     -15.289  -1.712 -26.554  0.00  0.00    -0.646 OA
ATOM     59  O5  IDS d1712     -16.718  -4.918 -25.887  0.00  0.00    -0.340 OA
ATOM     60  C4  IDS d1712     -16.374  -3.169 -24.258  0.00  0.00     0.103 C 
ATOM     61  O2  IDS d1712     -18.165  -5.645 -23.331  0.00  0.00    -0.244 OA
ATOM     62  O4  IDS d1712     -17.776  -2.874 -24.243  0.00  0.00    -0.348 OA
ATOM     63  C1  IDS d1712     -16.516  -6.010 -25.002  0.00  0.00     0.161 C 
ATOM     64  S   IDS d1712     -18.739  -5.788 -21.917  0.00  0.00     0.252 S 
ATOM     65  C5  IDS d1712     -15.930  -3.756 -25.604  0.00  0.00     0.152 C 
ATOM     66  O62 IDS d1712     -16.686  -2.952 -27.709  0.00  0.00    -0.646 OA
ATOM     67  O3S IDS d1712     -18.809  -4.411 -21.343  0.00  0.00    -0.572 OA
ATOM     68  C6  IDS d1712     -15.980  -2.744 -26.706  0.00  0.00     0.206 C 
ATOM     69  C3  IDS d1712     -16.119  -4.225 -23.192  0.00  0.00     0.094 C 
ATOM     70  O3  IDS d1712     -14.705  -4.409 -23.031  0.00  0.00    -0.390 OA
ATOM     71  C2  IDS d1712     -16.752  -5.588 -23.575  0.00  0.00     0.134 C 
ATOM     72  H   IDS d1712     -15.831  -2.263 -24.085  0.00  0.00     0.092 H 
ATOM     73  H   IDS d1712     -17.210  -6.777 -25.278  0.00  0.00     0.133 H 
ATOM     74  H   IDS d1712     -14.902  -4.047 -25.538  0.00  0.00     0.104 H 
ATOM     75  H   IDS d1712     -16.566  -3.884 -22.282  0.00  0.00     0.091 H 
ATOM     76  H   IDS d1712     -14.322  -4.718 -23.867  0.00  0.00     0.210 HD
ATOM     77  H   IDS d1712     -16.240  -6.270 -22.928  0.00  0.00     0.097 H 
ATOM     78  O62 IDS d1710     -11.954  -9.094 -22.941  0.00  0.00    -0.646 OA
ATOM     79  O2  IDS d1710      -9.257  -8.442 -27.156  0.00  0.00    -0.244 OA
ATOM     80  O1S IDS d1710      -8.654  -6.176 -27.948  0.00  0.00    -0.572 OA
ATOM     81  C3  IDS d1710     -10.193 -10.662 -26.978  0.00  0.00     0.094 C 
ATOM     82  O3  IDS d1710      -9.824 -12.039 -26.887  0.00  0.00    -0.390 OA
ATOM     83  O4  IDS d1710     -12.002  -9.136 -26.386  0.00  0.00    -0.348 OA
ATOM     84  O5  IDS d1710      -9.941  -9.415 -24.438  0.00  0.00    -0.340 OA
ATOM     85  C6  IDS d1710     -12.048 -10.157 -23.606  0.00  0.00     0.206 C 
ATOM     86  O2S IDS d1710      -7.097  -7.459 -26.570  0.00  0.00    -0.572 OA
ATOM     87  C5  IDS d1710     -10.962 -10.416 -24.617  0.00  0.00     0.152 C 
ATOM     88  S   IDS d1710      -8.101  -7.501 -27.653  0.00  0.00     0.252 S 
ATOM     89  C2  IDS d1710      -8.998  -9.757 -26.643  0.00  0.00     0.134 C 
ATOM     90  O3S IDS d1710      -7.597  -8.203 -28.837  0.00  0.00    -0.572 OA
ATOM     91  C4  IDS d1710     -11.412 -10.407 -26.086  0.00  0.00     0.103 C 
ATOM     92  C1  IDS d1710      -8.718  -9.648 -25.135  0.00  0.00     0.161 C 
ATOM     93  O61 IDS d1710     -12.988 -10.973 -23.483  0.00  0.00    -0.646 OA
ATOM     94  H   IDS d1710     -10.473 -10.420 -27.982  0.00  0.00     0.091 H 
ATOM     95  H   IDS d1710      -9.573 -12.247 -25.973  0.00  0.00     0.210 HD
ATOM     96  H   IDS d1710     -10.614 -11.411 -24.434  0.00  0.00     0.104 H 
ATOM     97  H   IDS d1710      -8.134 -10.200 -27.094  0.00  0.00     0.097 H 
ATOM     98  H   IDS d1710     -12.138 -11.173 -26.262  0.00  0.00     0.092 H 
ATOM     99  H   IDS d1710      -8.055  -8.834 -24.930  0.00  0.00     0.133 H 
ATOM    100  C4  SGN d1713     -20.798  -1.838 -25.494  0.00  0.00     0.095 C 
ATOM    101  N   SGN d1713     -19.135  -1.527 -22.156  0.00  0.00    -0.210 NA
ATOM    102  O4S SGN d1713     -21.679  -0.505 -29.733  0.00  0.00    -0.572 OA
ATOM    103  O4  SGN d1713     -21.698  -2.811 -26.050  0.00  0.00    -0.348 OA
ATOM    104  C2  SGN d1713     -19.395  -1.235 -23.545  0.00  0.00     0.081 C 
ATOM    105  O6  SGN d1713     -20.083  -0.247 -27.774  0.00  0.00    -0.254 OA
ATOM    106  O2S SGN d1713     -18.963   0.778 -21.507  0.00  0.00    -0.296 OA
ATOM    107  O3S SGN d1713     -18.636  -1.018 -19.684  0.00  0.00    -0.296 OA
ATOM    108  C6  SGN d1713     -19.625  -1.605 -27.746  0.00  0.00     0.067 C 
ATOM    109  O5S SGN d1713     -19.339   0.090 -30.179  0.00  0.00    -0.572 OA
ATOM    110  C5  SGN d1713     -19.504  -2.051 -26.320  0.00  0.00     0.091 C 
ATOM    111  O3  SGN d1713     -21.737  -1.631 -23.315  0.00  0.00    -0.391 OA
ATOM    112  O1S SGN d1713     -16.983  -0.581 -21.458  0.00  0.00    -0.296 OA
ATOM    113  S1  SGN d1713     -18.389  -0.497 -21.183  0.00  0.00     0.156 S 
ATOM    114  O5  SGN d1713     -18.447  -1.232 -25.771  0.00  0.00    -0.349 OA
ATOM    115  S2  SGN d1713     -20.565   0.285 -29.169  0.00  0.00     0.251 S 
ATOM    116  O6S SGN d1713     -20.862   1.678 -28.925  0.00  0.00    -0.572 OA
ATOM    117  C3  SGN d1713     -20.567  -2.081 -24.005  0.00  0.00     0.083 C 
ATOM    118  C1  SGN d1713     -18.154  -1.495 -24.407  0.00  0.00     0.150 C 
ATOM    119  H   SGN d1713     -21.169  -0.836 -25.551  0.00  0.00     0.091 H 
ATOM    120  H   SGN d1713     -18.577  -2.381 -22.146  0.00  0.00     0.140 HD
ATOM    121  H   SGN d1713     -19.637  -0.198 -23.653  0.00  0.00     0.076 H 
ATOM    122  H   SGN d1713     -19.910   0.768 -21.299  0.00  0.00     0.231 HD
ATOM    123  H   SGN d1713     -19.582  -0.970 -19.477  0.00  0.00     0.231 HD
ATOM    124  H   SGN d1713     -18.670  -1.671 -28.225  0.00  0.00     0.080 H 
ATOM    125  H   SGN d1713     -20.322  -2.232 -28.262  0.00  0.00     0.080 H 
ATOM    126  H   SGN d1713     -19.310  -3.103 -26.279  0.00  0.00     0.090 H 
ATOM    127  H   SGN d1713     -22.501  -2.160 -23.595  0.00  0.00     0.210 HD
ATOM    128  H   SGN d1713     -16.811  -0.270 -22.361  0.00  0.00     0.231 HD
ATOM    129  H   SGN d1713     -20.370  -3.115 -23.814  0.00  0.00     0.089 H 
ATOM    130  H   SGN d1713     -17.353  -0.853 -24.104  0.00  0.00     0.131 H 
ATOM    131  C2  SGN d1711     -13.269  -7.910 -27.971  0.00  0.00     0.081 C 
ATOM    132  O4S SGN d1711     -18.788  -9.042 -24.482  0.00  0.00    -0.572 OA
ATOM    133  S1  SGN d1711     -11.859  -7.996 -30.220  0.00  0.00     0.156 S 
ATOM    134  C3  SGN d1711     -13.734  -6.826 -26.982  0.00  0.00     0.083 C 
ATOM    135  O2S SGN d1711     -12.744  -7.151 -30.961  0.00  0.00    -0.296 OA
ATOM    136  O3  SGN d1711     -14.026  -5.600 -27.661  0.00  0.00    -0.391 OA
ATOM    137  N   SGN d1711     -12.043  -7.557 -28.684  0.00  0.00    -0.210 NA
ATOM    138  C4  SGN d1711     -14.988  -7.346 -26.259  0.00  0.00     0.095 C 
ATOM    139  O4  SGN d1711     -15.181  -6.502 -25.103  0.00  0.00    -0.348 OA
ATOM    140  O6S SGN d1711     -19.007 -10.427 -26.385  0.00  0.00    -0.572 OA
ATOM    141  S2  SGN d1711     -18.214 -10.144 -25.262  0.00  0.00     0.251 S 
ATOM    142  O5  SGN d1711     -14.305  -9.626 -26.601  0.00  0.00    -0.349 OA
ATOM    143  C5  SGN d1711     -14.679  -8.702 -25.562  0.00  0.00     0.091 C 
ATOM    144  O1S SGN d1711     -12.149  -9.413 -30.318  0.00  0.00    -0.296 OA
ATOM    145  O6  SGN d1711     -16.857  -9.605 -25.764  0.00  0.00    -0.254 OA
ATOM    146  O5S SGN d1711     -17.866 -11.374 -24.310  0.00  0.00    -0.572 OA
ATOM    147  O3S SGN d1711     -10.317  -7.724 -30.512  0.00  0.00    -0.296 OA
ATOM    148  C1  SGN d1711     -13.105  -9.281 -27.285  0.00  0.00     0.150 C 
ATOM    149  C6  SGN d1711     -15.834  -9.362 -24.807  0.00  0.00     0.067 C 
ATOM    150  H   SGN d1711     -14.050  -7.979 -28.699  0.00  0.00     0.076 H 
ATOM    151  H   SGN d1711     -12.954  -6.624 -26.278  0.00  0.00     0.089 H 
ATOM    152  H   SGN d1711     -13.662  -7.369 -30.737  0.00  0.00     0.231 HD
ATOM    153  H   SGN d1711     -14.732  -5.749 -28.309  0.00  0.00     0.210 HD
ATOM    154  H   SGN d1711     -11.269  -7.970 -28.164  0.00  0.00     0.140 HD
ATOM    155  H   SGN d1711     -15.789  -7.392 -26.967  0.00  0.00     0.091 H 
ATOM    156  H   SGN d1711     -13.929  -8.484 -24.831  0.00  0.00     0.090 H 
ATOM    157  H   SGN d1711     -13.090  -9.564 -30.138  0.00  0.00     0.231 HD
ATOM    158  H   SGN d1711      -9.776  -8.328 -29.980  0.00  0.00     0.231 HD
ATOM    159  H   SGN d1711     -12.918 -10.069 -27.984  0.00  0.00     0.131 H 
ATOM    160  H   SGN d1711     -16.194  -8.710 -24.039  0.00  0.00     0.080 H 
ATOM    161  H   SGN d1711     -15.520 -10.271 -24.338  0.00  0.00     0.080 H 
ENDROOT
TORSDOF 50
