MODEL 1
REMARK VINA RESULT:     -15.1      0.000      0.000
REMARK  0 active torsions:
REMARK  status: ('A' for Active; 'I' for Inactive)
REMARK       I    between atoms: C2_1  and  O2_12 
REMARK       I    between atoms: C1_4  and  O4_37 
REMARK       I    between atoms: O2S_5  and  S1_43 
REMARK       I    between atoms: O2_11  and  C2_82 
REMARK       I    between atoms: O2_11  and  S_80 
REMARK       I    between atoms: O2_12  and  S_23 
REMARK       I    between atoms: C4_13  and  O4_37 
REMARK       I    between atoms: C2_14  and  N_39 
REMARK       I    between atoms: O1_18  and  C1_32 
REMARK       I    between atoms: C4_19  and  O4_53 
REMARK       I    between atoms: O6_20  and  C6_76 
REMARK       I    between atoms: O6_20  and  S2_95 
REMARK       I    between atoms: S1_21  and  N_39 
REMARK       I    between atoms: S1_21  and  O1S_79 
REMARK       I    between atoms: S1_21  and  O2S_30 
REMARK       I    between atoms: S1_21  and  O3S_94 
REMARK       I    between atoms: C3_24  and  O3_26 
REMARK       I    between atoms: C3_25  and  O3_36 
REMARK       I    between atoms: C6_27  and  C5_83 
REMARK       I    between atoms: C4_28  and  O4_51 
REMARK       I    between atoms: N_29  and  C2_40 
REMARK       I    between atoms: N_29  and  S1_71 
REMARK       I    between atoms: C5_31  and  C6_76 
REMARK       I    between atoms: O1S_35  and  S1_43 
REMARK       I    between atoms: O4_38  and  C4_93 
REMARK       I    between atoms: O4_38  and  C1_96 
REMARK       I    between atoms: O6_41  and  C6_54 
REMARK       I    between atoms: O6_41  and  S2_84 
REMARK       I    between atoms: C4_42  and  O4_49 
REMARK       I    between atoms: S1_43  and  N_47 
REMARK       I    between atoms: S1_43  and  O3S_69 
REMARK       I    between atoms: O2S_44  and  S1_71 
REMARK       I    between atoms: N_47  and  C2_56 
REMARK       I    between atoms: O2_48  and  C2_99 
REMARK       I    between atoms: O2_48  and  S_63 
REMARK       I    between atoms: O4_49  and  C1_57 
REMARK       I    between atoms: O4_51  and  C1_102 
REMARK       I    between atoms: O3S_52  and  S1_71 
REMARK       I    between atoms: O4_53  and  C1_105 
REMARK       I    between atoms: C6_54  and  C5_59 
REMARK       I    between atoms: O3_60  and  C3_100 
REMARK       I    between atoms: O1S_61  and  S1_71 
REMARK       I    between atoms: S2_62  and  O6_81 
REMARK       I    between atoms: C5_65  and  C6_89 
REMARK       I    between atoms: C6_67  and  C5_74 
REMARK       I    between atoms: C3_68  and  O3_104 
REMARK       I    between atoms: C3_70  and  O3_85 
REMARK       I    between atoms: C5_77  and  C6_101 
REMARK       I    between atoms: O6_81  and  C6_101 
REMARK       I    between atoms: C3_92  and  O3_98 
ROOT
ATOM      1  C2  IDS d1714     -23.790  -3.383 -27.318  0.00  0.00     0.132 C 
ATOM      2  O3S IDS d1714     -26.664  -2.869 -29.792  0.00  0.00    -0.572 OA
ATOM      3  C1  IDS d1714     -23.115  -2.239 -26.608  0.00  0.00     0.161 C 
ATOM      4  O2S IDS d1714     -25.301  -4.844 -29.399  0.00  0.00    -0.572 OA
ATOM      5  O2  IDS d1714     -24.871  -2.840 -28.094  0.00  0.00    -0.244 OA
ATOM      6  S   IDS d1714     -25.306  -3.360 -29.475  0.00  0.00     0.252 S 
ATOM      7  C6  IDS d1714     -25.160  -1.889 -23.527  0.00  0.00     0.203 C 
ATOM      8  O5  IDS d1714     -24.034  -1.708 -25.637  0.00  0.00    -0.343 OA
ATOM      9  C4  IDS d1714     -24.999  -3.916 -25.097  0.00  0.00    -0.005 C 
ATOM     10  O61 IDS d1714     -25.322  -0.652 -23.658  0.00  0.00    -0.646 OA
ATOM     11  C3  IDS d1714     -24.353  -4.448 -26.383  0.00  0.00     0.069 C 
ATOM     12  C5  IDS d1714     -24.367  -2.623 -24.596  0.00  0.00     0.127 C 
ATOM     13  O3  IDS d1714     -23.325  -5.402 -26.073  0.00  0.00    -0.393 OA
ATOM     14  O1S IDS d1714     -24.265  -2.887 -30.396  0.00  0.00    -0.572 OA
ATOM     15  O62 IDS d1714     -25.627  -2.521 -22.550  0.00  0.00    -0.646 OA
ATOM     16  H   IDS d1714     -23.048  -3.868 -27.918  0.00  0.00     0.097 H 
ATOM     17  H   IDS d1714     -22.840  -1.413 -27.231  0.00  0.00     0.133 H 
ATOM     18  H   IDS d1714     -24.900  -4.660 -24.335  0.00  0.00     0.041 H 
ATOM     19  H   IDS d1714     -26.022  -3.701 -25.321  0.00  0.00     0.041 H 
ATOM     20  H   IDS d1714     -25.157  -4.909 -26.918  0.00  0.00     0.087 H 
ATOM     21  H   IDS d1714     -23.467  -2.977 -24.139  0.00  0.00     0.100 H 
ATOM     22  H   IDS d1714     -22.609  -4.961 -25.590  0.00  0.00     0.210 HD
ATOM     23  O5  SGN d1709      -5.640 -11.580 -22.701  0.00  0.00    -0.350 OA
ATOM     24  O2S SGN d1709      -6.599 -13.678 -18.601  0.00  0.00    -0.296 OA
ATOM     25  O4S SGN d1709      -3.729  -9.560 -27.089  0.00  0.00    -0.572 OA
ATOM     26  O1  SGN d1709      -6.206 -13.828 -22.283  0.00  0.00    -0.369 OA
ATOM     27  O6  SGN d1709      -4.273 -10.849 -25.085  0.00  0.00    -0.254 OA
ATOM     28  C4  SGN d1709      -7.738 -10.962 -23.632  0.00  0.00     0.095 C 
ATOM     29  C5  SGN d1709      -6.321 -11.448 -23.950  0.00  0.00     0.091 C 
ATOM     30  C1  SGN d1709      -6.200 -12.501 -21.766  0.00  0.00     0.147 C 
ATOM     31  O5S SGN d1709      -1.861 -10.742 -25.833  0.00  0.00    -0.572 OA
ATOM     32  O1S SGN d1709      -8.958 -13.769 -18.247  0.00  0.00    -0.296 OA
ATOM     33  S1  SGN d1709      -7.871 -13.074 -18.900  0.00  0.00     0.156 S 
ATOM     34  N   SGN d1709      -8.193 -13.041 -20.461  0.00  0.00    -0.210 NA
ATOM     35  O4  SGN d1709      -8.410 -11.019 -24.901  0.00  0.00    -0.348 OA
ATOM     36  C2  SGN d1709      -7.616 -12.065 -21.378  0.00  0.00     0.081 C 
ATOM     37  C3  SGN d1709      -8.442 -11.890 -22.658  0.00  0.00     0.083 C 
ATOM     38  O3S SGN d1709      -7.826 -11.578 -18.444  0.00  0.00    -0.296 OA
ATOM     39  C6  SGN d1709      -5.567 -10.381 -24.752  0.00  0.00     0.067 C 
ATOM     40  S2  SGN d1709      -3.262  -9.892 -25.744  0.00  0.00     0.251 S 
ATOM     41  O6S SGN d1709      -3.062  -8.752 -24.838  0.00  0.00    -0.572 OA
ATOM     42  O3  SGN d1709      -9.697 -11.330 -22.272  0.00  0.00    -0.391 OA
ATOM     43  H   SGN d1709      -6.610 -14.608 -18.878  0.00  0.00     0.231 HD
ATOM     44  H   SGN d1709      -5.303 -14.086 -22.523  0.00  0.00     0.212 HD
ATOM     45  H   SGN d1709      -7.731  -9.991 -23.182  0.00  0.00     0.091 H 
ATOM     46  H   SGN d1709      -6.363 -12.362 -24.504  0.00  0.00     0.090 H 
ATOM     47  H   SGN d1709      -5.586 -12.499 -20.889  0.00  0.00     0.131 H 
ATOM     48  H   SGN d1709      -8.972 -14.694 -18.540  0.00  0.00     0.231 HD
ATOM     49  H   SGN d1709      -9.204 -12.931 -20.536  0.00  0.00     0.140 HD
ATOM     50  H   SGN d1709      -7.605 -11.126 -20.865  0.00  0.00     0.076 H 
ATOM     51  H   SGN d1709      -8.572 -12.831 -23.149  0.00  0.00     0.089 H 
ATOM     52  H   SGN d1709      -7.632 -11.535 -17.494  0.00  0.00     0.231 HD
ATOM     53  H   SGN d1709      -6.107 -10.165 -25.650  0.00  0.00     0.080 H 
ATOM     54  H   SGN d1709      -5.478  -9.495 -24.159  0.00  0.00     0.080 H 
ATOM     55  H   SGN d1709      -9.549 -10.478 -21.829  0.00  0.00     0.210 HD
ATOM     56  O1S IDS d1712     -20.234  -6.358 -22.107  0.00  0.00    -0.572 OA
ATOM     57  O2S IDS d1712     -17.968  -6.628 -21.192  0.00  0.00    -0.572 OA
ATOM     58  O61 IDS d1712     -15.532  -1.805 -26.720  0.00  0.00    -0.646 OA
ATOM     59  O5  IDS d1712     -16.975  -4.985 -25.962  0.00  0.00    -0.340 OA
ATOM     60  C4  IDS d1712     -16.571  -3.213 -24.373  0.00  0.00     0.103 C 
ATOM     61  O2  IDS d1712     -18.362  -5.654 -23.358  0.00  0.00    -0.244 OA
ATOM     62  O4  IDS d1712     -17.970  -2.903 -24.327  0.00  0.00    -0.348 OA
ATOM     63  C1  IDS d1712     -16.761  -6.064 -25.065  0.00  0.00     0.161 C 
ATOM     64  S   IDS d1712     -18.901  -5.768 -21.928  0.00  0.00     0.252 S 
ATOM     65  C5  IDS d1712     -16.168  -3.827 -25.720  0.00  0.00     0.152 C 
ATOM     66  O62 IDS d1712     -16.971  -3.050 -27.818  0.00  0.00    -0.646 OA
ATOM     67  O3S IDS d1712     -18.942  -4.381 -21.375  0.00  0.00    -0.572 OA
ATOM     68  C6  IDS d1712     -16.237  -2.833 -26.837  0.00  0.00     0.206 C 
ATOM     69  C3  IDS d1712     -16.299  -4.253 -23.296  0.00  0.00     0.094 C 
ATOM     70  O3  IDS d1712     -14.883  -4.449 -23.168  0.00  0.00    -0.390 OA
ATOM     71  C2  IDS d1712     -16.955  -5.616 -23.639  0.00  0.00     0.134 C 
ATOM     72  H   IDS d1712     -16.015  -2.309 -24.229  0.00  0.00     0.092 H 
ATOM     73  H   IDS d1712     -17.469  -6.828 -25.310  0.00  0.00     0.133 H 
ATOM     74  H   IDS d1712     -15.142  -4.127 -25.675  0.00  0.00     0.104 H 
ATOM     75  H   IDS d1712     -16.719  -3.893 -22.381  0.00  0.00     0.091 H 
ATOM     76  H   IDS d1712     -14.525  -4.776 -24.009  0.00  0.00     0.210 HD
ATOM     77  H   IDS d1712     -16.434  -6.292 -22.994  0.00  0.00     0.097 H 
ATOM     78  O62 IDS d1710     -12.177  -9.160 -23.070  0.00  0.00    -0.646 OA
ATOM     79  O2  IDS d1710      -9.584  -8.606 -27.363  0.00  0.00    -0.244 OA
ATOM     80  O1S IDS d1710      -8.980  -6.360 -28.209  0.00  0.00    -0.572 OA
ATOM     81  C3  IDS d1710     -10.537 -10.813 -27.124  0.00  0.00     0.094 C 
ATOM     82  O3  IDS d1710     -10.180 -12.192 -27.019  0.00  0.00    -0.390 OA
ATOM     83  O4  IDS d1710     -12.315  -9.259 -26.511  0.00  0.00    -0.348 OA
ATOM     84  O5  IDS d1710     -10.207  -9.527 -24.613  0.00  0.00    -0.340 OA
ATOM     85  C6  IDS d1710     -12.299 -10.233 -23.714  0.00  0.00     0.206 C 
ATOM     86  O2S IDS d1710      -7.400  -7.636 -26.850  0.00  0.00    -0.572 OA
ATOM     87  C5  IDS d1710     -11.242 -10.520 -24.748  0.00  0.00     0.152 C 
ATOM     88  S   IDS d1710      -8.432  -7.686 -27.906  0.00  0.00     0.252 S 
ATOM     89  C2  IDS d1710      -9.325  -9.915 -26.835  0.00  0.00     0.134 C 
ATOM     90  O3S IDS d1710      -7.966  -8.413 -29.090  0.00  0.00    -0.572 OA
ATOM     91  C4  IDS d1710     -11.730 -10.531 -26.205  0.00  0.00     0.103 C 
ATOM     92  C1  IDS d1710      -9.005  -9.784 -25.337  0.00  0.00     0.161 C 
ATOM     93  O61 IDS d1710     -13.244 -11.037 -23.553  0.00  0.00    -0.646 OA
ATOM     94  H   IDS d1710     -10.841 -10.585 -28.124  0.00  0.00     0.091 H 
ATOM     95  H   IDS d1710      -9.907 -12.388 -26.108  0.00  0.00     0.210 HD
ATOM     96  H   IDS d1710     -10.900 -11.515 -24.557  0.00  0.00     0.104 H 
ATOM     97  H   IDS d1710      -8.478 -10.375 -27.301  0.00  0.00     0.097 H 
ATOM     98  H   IDS d1710     -12.468 -11.292 -26.349  0.00  0.00     0.092 H 
ATOM     99  H   IDS d1710      -8.329  -8.974 -25.163  0.00  0.00     0.133 H 
ATOM    100  C4  SGN d1713     -21.013  -1.857 -25.517  0.00  0.00     0.095 C 
ATOM    101  N   SGN d1713     -19.261  -1.507 -22.228  0.00  0.00    -0.210 NA
ATOM    102  O4S SGN d1713     -21.990  -0.586 -29.754  0.00  0.00    -0.572 OA
ATOM    103  O4  SGN d1713     -21.936  -2.830 -26.033  0.00  0.00    -0.348 OA
ATOM    104  C2  SGN d1713     -19.554  -1.236 -23.615  0.00  0.00     0.081 C 
ATOM    105  O6  SGN d1713     -20.341  -0.312 -27.841  0.00  0.00    -0.254 OA
ATOM    106  O2S SGN d1713     -19.049   0.806 -21.623  0.00  0.00    -0.296 OA
ATOM    107  O3S SGN d1713     -18.693  -0.962 -19.779  0.00  0.00    -0.296 OA
ATOM    108  C6  SGN d1713     -19.896  -1.674 -27.802  0.00  0.00     0.067 C 
ATOM    109  O5S SGN d1713     -19.657  -0.022 -30.270  0.00  0.00    -0.572 OA
ATOM    110  C5  SGN d1713     -19.743  -2.097 -26.372  0.00  0.00     0.091 C 
ATOM    111  O3  SGN d1713     -21.893  -1.604 -23.318  0.00  0.00    -0.391 OA
ATOM    112  O1S SGN d1713     -17.082  -0.572 -21.602  0.00  0.00    -0.296 OA
ATOM    113  S1  SGN d1713     -18.479  -0.469 -21.293  0.00  0.00     0.156 S 
ATOM    114  O5  SGN d1713     -18.664  -1.280 -25.864  0.00  0.00    -0.349 OA
ATOM    115  S2  SGN d1713     -20.854   0.202 -29.232  0.00  0.00     0.251 S 
ATOM    116  O6S SGN d1713     -21.131   1.602 -29.004  0.00  0.00    -0.572 OA
ATOM    117  C3  SGN d1713     -20.745  -2.077 -24.030  0.00  0.00     0.083 C 
ATOM    118  C1  SGN d1713     -18.338  -1.523 -24.504  0.00  0.00     0.150 C 
ATOM    119  H   SGN d1713     -21.375  -0.852 -25.581  0.00  0.00     0.091 H 
ATOM    120  H   SGN d1713     -18.711  -2.367 -22.218  0.00  0.00     0.140 HD
ATOM    121  H   SGN d1713     -19.788  -0.198 -23.734  0.00  0.00     0.076 H 
ATOM    122  H   SGN d1713     -19.990   0.809 -21.391  0.00  0.00     0.231 HD
ATOM    123  H   SGN d1713     -19.632  -0.901 -19.549  0.00  0.00     0.231 HD
ATOM    124  H   SGN d1713     -18.955  -1.757 -28.304  0.00  0.00     0.080 H 
ATOM    125  H   SGN d1713     -20.612  -2.302 -28.289  0.00  0.00     0.080 H 
ATOM    126  H   SGN d1713     -19.558  -3.150 -26.318  0.00  0.00     0.090 H 
ATOM    127  H   SGN d1713     -22.669  -2.130 -23.569  0.00  0.00     0.210 HD
ATOM    128  H   SGN d1713     -16.930  -0.278 -22.514  0.00  0.00     0.231 HD
ATOM    129  H   SGN d1713     -20.554  -3.110 -23.827  0.00  0.00     0.089 H 
ATOM    130  H   SGN d1713     -17.523  -0.884 -24.233  0.00  0.00     0.131 H 
ATOM    131  C2  SGN d1711     -13.611  -8.047 -28.084  0.00  0.00     0.081 C 
ATOM    132  O4S SGN d1711     -19.048  -9.063 -24.435  0.00  0.00    -0.572 OA
ATOM    133  S1  SGN d1711     -12.260  -8.185 -30.366  0.00  0.00     0.156 S 
ATOM    134  C3  SGN d1711     -14.039  -6.942 -27.101  0.00  0.00     0.083 C 
ATOM    135  O2S SGN d1711     -13.156  -7.343 -31.099  0.00  0.00    -0.296 OA
ATOM    136  O3  SGN d1711     -14.337  -5.724 -27.793  0.00  0.00    -0.391 OA
ATOM    137  N   SGN d1711     -12.400  -7.718 -28.834  0.00  0.00    -0.210 NA
ATOM    138  C4  SGN d1711     -15.279  -7.436 -26.338  0.00  0.00     0.095 C 
ATOM    139  O4  SGN d1711     -15.434  -6.571 -25.192  0.00  0.00    -0.348 OA
ATOM    140  O6S SGN d1711     -19.330 -10.478 -26.308  0.00  0.00    -0.572 OA
ATOM    141  S2  SGN d1711     -18.506 -10.184 -25.211  0.00  0.00     0.251 S 
ATOM    142  O5  SGN d1711     -14.628  -9.729 -26.659  0.00  0.00    -0.349 OA
ATOM    143  C5  SGN d1711     -14.966  -8.784 -25.626  0.00  0.00     0.091 C 
ATOM    144  O1S SGN d1711     -12.567  -9.600 -30.433  0.00  0.00    -0.296 OA
ATOM    145  O6  SGN d1711     -17.157  -9.667 -25.757  0.00  0.00    -0.254 OA
ATOM    146  O5S SGN d1711     -18.145 -11.402 -24.247  0.00  0.00    -0.572 OA
ATOM    147  O3S SGN d1711     -10.724  -7.933 -30.703  0.00  0.00    -0.296 OA
ATOM    148  C1  SGN d1711     -13.443  -9.408 -27.379  0.00  0.00     0.150 C 
ATOM    149  C6  SGN d1711     -16.107  -9.419 -24.831  0.00  0.00     0.067 C 
ATOM    150  H   SGN d1711     -14.411  -8.120 -28.790  0.00  0.00     0.076 H 
ATOM    151  H   SGN d1711     -13.239  -6.736 -26.421  0.00  0.00     0.089 H 
ATOM    152  H   SGN d1711     -14.070  -7.548 -30.847  0.00  0.00     0.231 HD
ATOM    153  H   SGN d1711     -15.061  -5.877 -28.420  0.00  0.00     0.210 HD
ATOM    154  H   SGN d1711     -11.617  -8.130 -28.327  0.00  0.00     0.140 HD
ATOM    155  H   SGN d1711     -16.099  -7.486 -27.024  0.00  0.00     0.091 H 
ATOM    156  H   SGN d1711     -14.195  -8.561 -24.918  0.00  0.00     0.090 H 
ATOM    157  H   SGN d1711     -13.504  -9.738 -30.226  0.00  0.00     0.231 HD
ATOM    158  H   SGN d1711     -10.175  -8.534 -30.175  0.00  0.00     0.231 HD
ATOM    159  H   SGN d1711     -13.282 -10.209 -28.069  0.00  0.00     0.131 H 
ATOM    160  H   SGN d1711     -16.441  -8.751 -24.065  0.00  0.00     0.080 H 
ATOM    161  H   SGN d1711     -15.790 -10.323 -24.354  0.00  0.00     0.080 H 
ENDROOT
TORSDOF 50
ENDMDL
MODEL 2
REMARK VINA RESULT:     -12.0      1.189      1.299
REMARK  0 active torsions:
REMARK  status: ('A' for Active; 'I' for Inactive)
REMARK       I    between atoms: C2_1  and  O2_12 
REMARK       I    between atoms: C1_4  and  O4_37 
REMARK       I    between atoms: O2S_5  and  S1_43 
REMARK       I    between atoms: O2_11  and  C2_82 
REMARK       I    between atoms: O2_11  and  S_80 
REMARK       I    between atoms: O2_12  and  S_23 
REMARK       I    between atoms: C4_13  and  O4_37 
REMARK       I    between atoms: C2_14  and  N_39 
REMARK       I    between atoms: O1_18  and  C1_32 
REMARK       I    between atoms: C4_19  and  O4_53 
REMARK       I    between atoms: O6_20  and  C6_76 
REMARK       I    between atoms: O6_20  and  S2_95 
REMARK       I    between atoms: S1_21  and  N_39 
REMARK       I    between atoms: S1_21  and  O1S_79 
REMARK       I    between atoms: S1_21  and  O2S_30 
REMARK       I    between atoms: S1_21  and  O3S_94 
REMARK       I    between atoms: C3_24  and  O3_26 
REMARK       I    between atoms: C3_25  and  O3_36 
REMARK       I    between atoms: C6_27  and  C5_83 
REMARK       I    between atoms: C4_28  and  O4_51 
REMARK       I    between atoms: N_29  and  C2_40 
REMARK       I    between atoms: N_29  and  S1_71 
REMARK       I    between atoms: C5_31  and  C6_76 
REMARK       I    between atoms: O1S_35  and  S1_43 
REMARK       I    between atoms: O4_38  and  C4_93 
REMARK       I    between atoms: O4_38  and  C1_96 
REMARK       I    between atoms: O6_41  and  C6_54 
REMARK       I    between atoms: O6_41  and  S2_84 
REMARK       I    between atoms: C4_42  and  O4_49 
REMARK       I    between atoms: S1_43  and  N_47 
REMARK       I    between atoms: S1_43  and  O3S_69 
REMARK       I    between atoms: O2S_44  and  S1_71 
REMARK       I    between atoms: N_47  and  C2_56 
REMARK       I    between atoms: O2_48  and  C2_99 
REMARK       I    between atoms: O2_48  and  S_63 
REMARK       I    between atoms: O4_49  and  C1_57 
REMARK       I    between atoms: O4_51  and  C1_102 
REMARK       I    between atoms: O3S_52  and  S1_71 
REMARK       I    between atoms: O4_53  and  C1_105 
REMARK       I    between atoms: C6_54  and  C5_59 
REMARK       I    between atoms: O3_60  and  C3_100 
REMARK       I    between atoms: O1S_61  and  S1_71 
REMARK       I    between atoms: S2_62  and  O6_81 
REMARK       I    between atoms: C5_65  and  C6_89 
REMARK       I    between atoms: C6_67  and  C5_74 
REMARK       I    between atoms: C3_68  and  O3_104 
REMARK       I    between atoms: C3_70  and  O3_85 
REMARK       I    between atoms: C5_77  and  C6_101 
REMARK       I    between atoms: O6_81  and  C6_101 
REMARK       I    between atoms: C3_92  and  O3_98 
ROOT
ATOM      1  C2  IDS d1714     -23.194  -4.038 -28.781  0.00  0.00     0.132 C 
ATOM      2  O3S IDS d1714     -25.931  -3.773 -31.443  0.00  0.00    -0.572 OA
ATOM      3  C1  IDS d1714     -22.522  -2.829 -28.186  0.00  0.00     0.161 C 
ATOM      4  O2S IDS d1714     -24.646  -5.714 -30.738  0.00  0.00    -0.572 OA
ATOM      5  O2  IDS d1714     -24.221  -3.572 -29.672  0.00  0.00    -0.244 OA
ATOM      6  S   IDS d1714     -24.604  -4.251 -30.999  0.00  0.00     0.252 S 
ATOM      7  C6  IDS d1714     -24.700  -2.048 -25.280  0.00  0.00     0.203 C 
ATOM      8  O5  IDS d1714     -23.470  -2.160 -27.336  0.00  0.00    -0.343 OA
ATOM      9  C4  IDS d1714     -24.522  -4.259 -26.575  0.00  0.00    -0.005 C 
ATOM     10  O61 IDS d1714     -24.819  -0.834 -25.572  0.00  0.00    -0.646 OA
ATOM     11  C3  IDS d1714     -23.832  -4.964 -27.751  0.00  0.00     0.069 C 
ATOM     12  C5  IDS d1714     -23.878  -2.929 -26.207  0.00  0.00     0.127 C 
ATOM     13  O3  IDS d1714     -22.848  -5.894 -27.272  0.00  0.00    -0.393 OA
ATOM     14  O1S IDS d1714     -23.508  -3.923 -31.916  0.00  0.00    -0.572 OA
ATOM     15  O62 IDS d1714     -25.231  -2.541 -24.257  0.00  0.00    -0.646 OA
ATOM     16  H   IDS d1714     -22.439  -4.611 -29.277  0.00  0.00     0.097 H 
ATOM     17  H   IDS d1714     -22.193  -2.094 -28.891  0.00  0.00     0.133 H 
ATOM     18  H   IDS d1714     -24.482  -4.904 -25.722  0.00  0.00     0.041 H 
ATOM     19  H   IDS d1714     -25.528  -4.052 -26.876  0.00  0.00     0.041 H 
ATOM     20  H   IDS d1714     -24.622  -5.470 -28.264  0.00  0.00     0.087 H 
ATOM     21  H   IDS d1714     -23.011  -3.243 -25.665  0.00  0.00     0.100 H 
ATOM     22  H   IDS d1714     -22.144  -5.412 -26.812  0.00  0.00     0.210 HD
ATOM     23  O5  SGN d1709      -5.531 -12.001 -22.261  0.00  0.00    -0.350 OA
ATOM     24  O2S SGN d1709      -6.744 -13.545 -17.986  0.00  0.00    -0.296 OA
ATOM     25  O4S SGN d1709      -3.355 -10.593 -26.764  0.00  0.00    -0.572 OA
ATOM     26  O1  SGN d1709      -6.181 -14.165 -21.597  0.00  0.00    -0.369 OA
ATOM     27  O6  SGN d1709      -4.031 -11.607 -24.645  0.00  0.00    -0.254 OA
ATOM     28  C4  SGN d1709      -7.563 -11.458 -23.368  0.00  0.00     0.095 C 
ATOM     29  C5  SGN d1709      -6.147 -12.012 -23.550  0.00  0.00     0.091 C 
ATOM     30  C1  SGN d1709      -6.161 -12.784 -21.248  0.00  0.00     0.147 C 
ATOM     31  O5S SGN d1709      -1.584 -11.651 -25.277  0.00  0.00    -0.572 OA
ATOM     32  O1S SGN d1709      -9.119 -13.537 -17.745  0.00  0.00    -0.296 OA
ATOM     33  S1  SGN d1709      -7.983 -12.954 -18.423  0.00  0.00     0.156 S 
ATOM     34  N   SGN d1709      -8.229 -13.111 -19.990  0.00  0.00    -0.210 NA
ATOM     35  O4  SGN d1709      -8.176 -11.658 -24.653  0.00  0.00    -0.348 OA
ATOM     36  C2  SGN d1709      -7.581 -12.271 -20.991  0.00  0.00     0.081 C 
ATOM     37  C3  SGN d1709      -8.339 -12.239 -22.323  0.00  0.00     0.083 C 
ATOM     38  O3S SGN d1709      -7.916 -11.415 -18.155  0.00  0.00    -0.296 OA
ATOM     39  C6  SGN d1709      -5.325 -11.072 -24.439  0.00  0.00     0.067 C 
ATOM     40  S2  SGN d1709      -2.963 -10.764 -25.366  0.00  0.00     0.251 S 
ATOM     41  O6S SGN d1709      -2.773  -9.524 -24.600  0.00  0.00    -0.572 OA
ATOM     42  O3  SGN d1709      -9.595 -11.606 -22.074  0.00  0.00    -0.391 OA
ATOM     43  H   SGN d1709      -6.769 -14.502 -18.146  0.00  0.00     0.231 HD
ATOM     44  H   SGN d1709      -5.275 -14.472 -21.756  0.00  0.00     0.212 HD
ATOM     45  H   SGN d1709      -7.550 -10.438 -23.043  0.00  0.00     0.091 H 
ATOM     46  H   SGN d1709      -6.190 -12.988 -23.987  0.00  0.00     0.090 H 
ATOM     47  H   SGN d1709      -5.590 -12.686 -20.349  0.00  0.00     0.131 H 
ATOM     48  H   SGN d1709      -9.146 -14.491 -17.920  0.00  0.00     0.231 HD
ATOM     49  H   SGN d1709      -9.232 -12.988 -20.129  0.00  0.00     0.140 HD
ATOM     50  H   SGN d1709      -7.567 -11.276 -20.598  0.00  0.00     0.076 H 
ATOM     51  H   SGN d1709      -8.473 -13.231 -22.699  0.00  0.00     0.089 H 
ATOM     52  H   SGN d1709      -7.766 -11.257 -17.209  0.00  0.00     0.231 HD
ATOM     53  H   SGN d1709      -5.815 -10.958 -25.383  0.00  0.00     0.080 H 
ATOM     54  H   SGN d1709      -5.239 -10.120 -23.958  0.00  0.00     0.080 H 
ATOM     55  H   SGN d1709      -9.443 -10.710 -21.734  0.00  0.00     0.210 HD
ATOM     56  O1S IDS d1712     -19.979  -6.414 -23.066  0.00  0.00    -0.572 OA
ATOM     57  O2S IDS d1712     -17.768  -6.618 -22.010  0.00  0.00    -0.572 OA
ATOM     58  O61 IDS d1712     -14.932  -2.587 -27.965  0.00  0.00    -0.646 OA
ATOM     59  O5  IDS d1712     -16.501  -5.612 -26.891  0.00  0.00    -0.340 OA
ATOM     60  C4  IDS d1712     -16.123  -3.663 -25.516  0.00  0.00     0.103 C 
ATOM     61  O2  IDS d1712     -18.030  -5.916 -24.298  0.00  0.00    -0.244 OA
ATOM     62  O4  IDS d1712     -17.512  -3.318 -25.580  0.00  0.00    -0.348 OA
ATOM     63  C1  IDS d1712     -16.361  -6.574 -25.856  0.00  0.00     0.161 C 
ATOM     64  S   IDS d1712     -18.639  -5.837 -22.894  0.00  0.00     0.252 S 
ATOM     65  C5  IDS d1712     -15.674  -4.451 -26.754  0.00  0.00     0.152 C 
ATOM     66  O62 IDS d1712     -16.352  -3.926 -28.970  0.00  0.00    -0.646 OA
ATOM     67  O3S IDS d1712     -18.666  -4.391 -22.521  0.00  0.00    -0.572 OA
ATOM     68  C6  IDS d1712     -15.660  -3.604 -27.988  0.00  0.00     0.206 C 
ATOM     69  C3  IDS d1712     -15.932  -4.566 -24.306  0.00  0.00     0.094 C 
ATOM     70  O3  IDS d1712     -14.531  -4.777 -24.083  0.00  0.00    -0.390 OA
ATOM     71  C2  IDS d1712     -16.611  -5.946 -24.510  0.00  0.00     0.134 C 
ATOM     72  H   IDS d1712     -15.548  -2.762 -25.458  0.00  0.00     0.092 H 
ATOM     73  H   IDS d1712     -17.079  -7.347 -26.040  0.00  0.00     0.133 H 
ATOM     74  H   IDS d1712     -14.660  -4.767 -26.620  0.00  0.00     0.104 H 
ATOM     75  H   IDS d1712     -16.385  -4.084 -23.465  0.00  0.00     0.091 H 
ATOM     76  H   IDS d1712     -14.142  -5.215 -24.856  0.00  0.00     0.210 HD
ATOM     77  H   IDS d1712     -16.140  -6.547 -23.760  0.00  0.00     0.097 H 
ATOM     78  O62 IDS d1710     -11.970  -9.499 -23.261  0.00  0.00    -0.646 OA
ATOM     79  O2  IDS d1710      -9.160  -9.548 -27.452  0.00  0.00    -0.244 OA
ATOM     80  O1S IDS d1710      -8.451  -7.441 -28.539  0.00  0.00    -0.572 OA
ATOM     81  C3  IDS d1710     -10.187 -11.685 -26.989  0.00  0.00     0.094 C 
ATOM     82  O3  IDS d1710      -9.875 -13.048 -26.695  0.00  0.00    -0.390 OA
ATOM     83  O4  IDS d1710     -11.947 -10.026 -26.666  0.00  0.00    -0.348 OA
ATOM     84  O5  IDS d1710      -9.940 -10.101 -24.644  0.00  0.00    -0.340 OA
ATOM     85  C6  IDS d1710     -12.092 -10.641 -23.772  0.00  0.00     0.206 C 
ATOM     86  O2S IDS d1710      -6.976  -8.571 -26.953  0.00  0.00    -0.572 OA
ATOM     87  C5  IDS d1710     -10.996 -11.080 -24.707  0.00  0.00     0.152 C 
ATOM     88  S   IDS d1710      -7.958  -8.730 -28.046  0.00  0.00     0.252 S 
ATOM     89  C2  IDS d1710      -8.965 -10.786 -26.753  0.00  0.00     0.134 C 
ATOM     90  O3S IDS d1710      -7.457  -9.610 -29.106  0.00  0.00    -0.572 OA
ATOM     91  C4  IDS d1710     -11.414 -11.263 -26.174  0.00  0.00     0.103 C 
ATOM     92  C1  IDS d1710      -8.713 -10.475 -25.268  0.00  0.00     0.161 C 
ATOM     93  O61 IDS d1710     -13.066 -11.397 -23.561  0.00  0.00    -0.646 OA
ATOM     94  H   IDS d1710     -10.436 -11.578 -28.024  0.00  0.00     0.091 H 
ATOM     95  H   IDS d1710      -9.652 -13.134 -25.755  0.00  0.00     0.210 HD
ATOM     96  H   IDS d1710     -10.692 -12.051 -24.377  0.00  0.00     0.104 H 
ATOM     97  H   IDS d1710      -8.110 -11.320 -27.114  0.00  0.00     0.097 H 
ATOM     98  H   IDS d1710     -12.166 -12.019 -26.260  0.00  0.00     0.092 H 
ATOM     99  H   IDS d1710      -8.023  -9.665 -25.162  0.00  0.00     0.133 H 
ATOM    100  C4  SGN d1713     -20.463  -2.361 -27.045  0.00  0.00     0.095 C 
ATOM    101  N   SGN d1713     -18.860  -1.641 -23.740  0.00  0.00    -0.210 NA
ATOM    102  O4S SGN d1713     -21.200  -1.611 -31.451  0.00  0.00    -0.572 OA
ATOM    103  O4  SGN d1713     -21.389  -3.370 -27.482  0.00  0.00    -0.348 OA
ATOM    104  C2  SGN d1713     -19.079  -1.539 -25.163  0.00  0.00     0.081 C 
ATOM    105  O6  SGN d1713     -19.637  -1.136 -29.506  0.00  0.00    -0.254 OA
ATOM    106  O2S SGN d1713     -18.611   0.725 -23.418  0.00  0.00    -0.296 OA
ATOM    107  O3S SGN d1713     -18.394  -0.806 -21.352  0.00  0.00    -0.296 OA
ATOM    108  C6  SGN d1713     -19.234  -2.492 -29.275  0.00  0.00     0.067 C 
ATOM    109  O5S SGN d1713     -18.829  -1.170 -31.914  0.00  0.00    -0.572 OA
ATOM    110  C5  SGN d1713     -19.161  -2.736 -27.798  0.00  0.00     0.091 C 
ATOM    111  O3  SGN d1713     -21.439  -1.814 -24.942  0.00  0.00    -0.391 OA
ATOM    112  O1S SGN d1713     -16.688  -0.684 -23.125  0.00  0.00    -0.296 OA
ATOM    113  S1  SGN d1713     -18.095  -0.511 -22.903  0.00  0.00     0.156 S 
ATOM    114  O5  SGN d1713     -18.084  -1.886 -27.341  0.00  0.00    -0.349 OA
ATOM    115  S2  SGN d1713     -20.068  -0.790 -30.974  0.00  0.00     0.251 S 
ATOM    116  O6S SGN d1713     -20.314   0.633 -30.937  0.00  0.00    -0.572 OA
ATOM    117  C3  SGN d1713     -20.273  -2.399 -25.531  0.00  0.00     0.083 C 
ATOM    118  C1  SGN d1713     -17.831  -1.964 -25.947  0.00  0.00     0.150 C 
ATOM    119  H   SGN d1713     -20.793  -1.364 -27.252  0.00  0.00     0.091 H 
ATOM    120  H   SGN d1713     -18.337  -2.505 -23.596  0.00  0.00     0.140 HD
ATOM    121  H   SGN d1713     -19.277  -0.520 -25.422  0.00  0.00     0.076 H 
ATOM    122  H   SGN d1713     -19.562   0.779 -23.236  0.00  0.00     0.231 HD
ATOM    123  H   SGN d1713     -19.342  -0.694 -21.179  0.00  0.00     0.231 HD
ATOM    124  H   SGN d1713     -18.272  -2.660 -29.714  0.00  0.00     0.080 H 
ATOM    125  H   SGN d1713     -19.944  -3.160 -29.716  0.00  0.00     0.080 H 
ATOM    126  H   SGN d1713     -19.010  -3.778 -27.604  0.00  0.00     0.090 H 
ATOM    127  H   SGN d1713     -22.217  -2.349 -25.165  0.00  0.00     0.210 HD
ATOM    128  H   SGN d1713     -16.484  -0.511 -24.058  0.00  0.00     0.231 HD
ATOM    129  H   SGN d1713     -20.122  -3.402 -25.191  0.00  0.00     0.089 H 
ATOM    130  H   SGN d1713     -17.012  -1.315 -25.716  0.00  0.00     0.131 H 
ATOM    131  C2  SGN d1711     -13.130  -8.992 -28.441  0.00  0.00     0.081 C 
ATOM    132  O4S SGN d1711     -18.762  -9.417 -24.976  0.00  0.00    -0.572 OA
ATOM    133  S1  SGN d1711     -11.677  -9.447 -30.617  0.00  0.00     0.156 S 
ATOM    134  C3  SGN d1711     -13.572  -7.763 -27.627  0.00  0.00     0.083 C 
ATOM    135  O2S SGN d1711     -12.512  -8.684 -31.493  0.00  0.00    -0.296 OA
ATOM    136  O3  SGN d1711     -13.801  -6.635 -28.479  0.00  0.00    -0.391 OA
ATOM    137  N   SGN d1711     -11.876  -8.788 -29.164  0.00  0.00    -0.210 NA
ATOM    138  C4  SGN d1711     -14.861  -8.129 -26.872  0.00  0.00     0.095 C 
ATOM    139  O4  SGN d1711     -15.045  -7.123 -25.852  0.00  0.00    -0.348 OA
ATOM    140  O6S SGN d1711     -18.996 -11.049 -26.670  0.00  0.00    -0.572 OA
ATOM    141  S2  SGN d1711     -18.216 -10.639 -25.577  0.00  0.00     0.251 S 
ATOM    142  O5  SGN d1711     -14.262 -10.458 -26.871  0.00  0.00    -0.349 OA
ATOM    143  C5  SGN d1711     -14.621  -9.383 -25.983  0.00  0.00     0.091 C 
ATOM    144  O1S SGN d1711     -12.021 -10.852 -30.522  0.00  0.00    -0.296 OA
ATOM    145  O6  SGN d1711     -16.828 -10.226 -26.114  0.00  0.00    -0.254 OA
ATOM    146  O5S SGN d1711     -17.938 -11.733 -24.453  0.00  0.00    -0.572 OA
ATOM    147  O3S SGN d1711     -10.119  -9.275 -30.903  0.00  0.00    -0.296 OA
ATOM    148  C1  SGN d1711     -13.035 -10.257 -27.565  0.00  0.00     0.150 C 
ATOM    149  C6  SGN d1711     -15.817  -9.887 -25.174  0.00  0.00     0.067 C 
ATOM    150  H   SGN d1711     -13.897  -9.135 -29.173  0.00  0.00     0.076 H 
ATOM    151  H   SGN d1711     -12.800  -7.491 -26.938  0.00  0.00     0.089 H 
ATOM    152  H   SGN d1711     -13.442  -8.834 -31.265  0.00  0.00     0.231 HD
ATOM    153  H   SGN d1711     -14.498  -6.849 -29.119  0.00  0.00     0.210 HD
ATOM    154  H   SGN d1711     -11.130  -9.151 -28.570  0.00  0.00     0.140 HD
ATOM    155  H   SGN d1711     -15.648  -8.246 -27.587  0.00  0.00     0.091 H 
ATOM    156  H   SGN d1711     -13.879  -9.091 -25.270  0.00  0.00     0.090 H 
ATOM    157  H   SGN d1711     -12.971 -10.942 -30.348  0.00  0.00     0.231 HD
ATOM    158  H   SGN d1711      -9.614  -9.817 -30.277  0.00  0.00     0.231 HD
ATOM    159  H   SGN d1711     -12.865 -11.142 -28.141  0.00  0.00     0.131 H 
ATOM    160  H   SGN d1711     -16.167  -9.120 -24.515  0.00  0.00     0.080 H 
ATOM    161  H   SGN d1711     -15.550 -10.731 -24.573  0.00  0.00     0.080 H 
ENDROOT
TORSDOF 50
ENDMDL
MODEL 3
REMARK VINA RESULT:     -11.8      3.250     15.565
REMARK  0 active torsions:
REMARK  status: ('A' for Active; 'I' for Inactive)
REMARK       I    between atoms: C2_1  and  O2_12 
REMARK       I    between atoms: C1_4  and  O4_37 
REMARK       I    between atoms: O2S_5  and  S1_43 
REMARK       I    between atoms: O2_11  and  C2_82 
REMARK       I    between atoms: O2_11  and  S_80 
REMARK       I    between atoms: O2_12  and  S_23 
REMARK       I    between atoms: C4_13  and  O4_37 
REMARK       I    between atoms: C2_14  and  N_39 
REMARK       I    between atoms: O1_18  and  C1_32 
REMARK       I    between atoms: C4_19  and  O4_53 
REMARK       I    between atoms: O6_20  and  C6_76 
REMARK       I    between atoms: O6_20  and  S2_95 
REMARK       I    between atoms: S1_21  and  N_39 
REMARK       I    between atoms: S1_21  and  O1S_79 
REMARK       I    between atoms: S1_21  and  O2S_30 
REMARK       I    between atoms: S1_21  and  O3S_94 
REMARK       I    between atoms: C3_24  and  O3_26 
REMARK       I    between atoms: C3_25  and  O3_36 
REMARK       I    between atoms: C6_27  and  C5_83 
REMARK       I    between atoms: C4_28  and  O4_51 
REMARK       I    between atoms: N_29  and  C2_40 
REMARK       I    between atoms: N_29  and  S1_71 
REMARK       I    between atoms: C5_31  and  C6_76 
REMARK       I    between atoms: O1S_35  and  S1_43 
REMARK       I    between atoms: O4_38  and  C4_93 
REMARK       I    between atoms: O4_38  and  C1_96 
REMARK       I    between atoms: O6_41  and  C6_54 
REMARK       I    between atoms: O6_41  and  S2_84 
REMARK       I    between atoms: C4_42  and  O4_49 
REMARK       I    between atoms: S1_43  and  N_47 
REMARK       I    between atoms: S1_43  and  O3S_69 
REMARK       I    between atoms: O2S_44  and  S1_71 
REMARK       I    between atoms: N_47  and  C2_56 
REMARK       I    between atoms: O2_48  and  C2_99 
REMARK       I    between atoms: O2_48  and  S_63 
REMARK       I    between atoms: O4_49  and  C1_57 
REMARK       I    between atoms: O4_51  and  C1_102 
REMARK       I    between atoms: O3S_52  and  S1_71 
REMARK       I    between atoms: O4_53  and  C1_105 
REMARK       I    between atoms: C6_54  and  C5_59 
REMARK       I    between atoms: O3_60  and  C3_100 
REMARK       I    between atoms: O1S_61  and  S1_71 
REMARK       I    between atoms: S2_62  and  O6_81 
REMARK       I    between atoms: C5_65  and  C6_89 
REMARK       I    between atoms: C6_67  and  C5_74 
REMARK       I    between atoms: C3_68  and  O3_104 
REMARK       I    between atoms: C3_70  and  O3_85 
REMARK       I    between atoms: C5_77  and  C6_101 
REMARK       I    between atoms: O6_81  and  C6_101 
REMARK       I    between atoms: C3_92  and  O3_98 
ROOT
ATOM      1  C2  IDS d1714      -2.703 -10.796 -26.341  0.00  0.00     0.132 C 
ATOM      2  O3S IDS d1714       0.393 -10.781 -28.592  0.00  0.00    -0.572 OA
ATOM      3  C1  IDS d1714      -3.227 -12.049 -25.690  0.00  0.00     0.161 C 
ATOM      4  O2S IDS d1714      -1.308  -9.068 -28.293  0.00  0.00    -0.572 OA
ATOM      5  O2  IDS d1714      -1.492 -11.139 -27.034  0.00  0.00    -0.244 OA
ATOM      6  S   IDS d1714      -1.049 -10.529 -28.376  0.00  0.00     0.252 S 
ATOM      7  C6  IDS d1714      -1.387 -12.106 -22.463  0.00  0.00     0.203 C 
ATOM      8  O5  IDS d1714      -2.307 -12.436 -24.654  0.00  0.00    -0.343 OA
ATOM      9  C4  IDS d1714      -1.769 -10.108 -24.032  0.00  0.00    -0.005 C 
ATOM     10  O61 IDS d1714      -1.010 -13.297 -22.588  0.00  0.00    -0.646 OA
ATOM     11  C3  IDS d1714      -2.397  -9.669 -25.361  0.00  0.00     0.069 C 
ATOM     12  C5  IDS d1714      -2.210 -11.496 -23.586  0.00  0.00     0.127 C 
ATOM     13  O3  IDS d1714      -3.590  -8.905 -25.125  0.00  0.00    -0.393 OA
ATOM     14  O1S IDS d1714      -1.924 -11.152 -29.375  0.00  0.00    -0.572 OA
ATOM     15  O62 IDS d1714      -1.106 -11.423 -21.450  0.00  0.00    -0.646 OA
ATOM     16  H   IDS d1714      -3.469 -10.432 -26.993  0.00  0.00     0.097 H 
ATOM     17  H   IDS d1714      -3.313 -12.899 -26.335  0.00  0.00     0.133 H 
ATOM     18  H   IDS d1714      -2.047  -9.404 -23.276  0.00  0.00     0.041 H 
ATOM     19  H   IDS d1714      -0.710 -10.145 -24.178  0.00  0.00     0.041 H 
ATOM     20  H   IDS d1714      -1.645  -9.071 -25.831  0.00  0.00     0.087 H 
ATOM     21  H   IDS d1714      -3.189 -11.305 -23.197  0.00  0.00     0.100 H 
ATOM     22  H   IDS d1714      -4.256  -9.468 -24.700  0.00  0.00     0.210 HD
ATOM     23  O5  SGN d1709     -22.261  -5.822 -23.078  0.00  0.00    -0.350 OA
ATOM     24  O2S SGN d1709     -21.975  -3.665 -18.908  0.00  0.00    -0.296 OA
ATOM     25  O4S SGN d1709     -23.476  -8.056 -27.608  0.00  0.00    -0.572 OA
ATOM     26  O1  SGN d1709     -22.113  -3.519 -22.608  0.00  0.00    -0.369 OA
ATOM     27  O6  SGN d1709     -23.306  -6.730 -25.562  0.00  0.00    -0.254 OA
ATOM     28  C4  SGN d1709     -20.027  -6.065 -23.850  0.00  0.00     0.095 C 
ATOM     29  C5  SGN d1709     -21.478  -5.817 -24.273  0.00  0.00     0.091 C 
ATOM     30  C1  SGN d1709     -21.935  -4.837 -22.099  0.00  0.00     0.147 C 
ATOM     31  O5S SGN d1709     -25.604  -7.224 -26.493  0.00  0.00    -0.572 OA
ATOM     32  O1S SGN d1709     -19.697  -3.188 -18.375  0.00  0.00    -0.296 OA
ATOM     33  S1  SGN d1709     -20.601  -4.043 -19.112  0.00  0.00     0.156 S 
ATOM     34  N   SGN d1709     -20.163  -3.995 -20.644  0.00  0.00    -0.210 NA
ATOM     35  O4  SGN d1709     -19.281  -5.875 -25.064  0.00  0.00    -0.348 OA
ATOM     36  C2  SGN d1709     -20.498  -5.037 -21.607  0.00  0.00     0.081 C 
ATOM     37  C3  SGN d1709     -19.562  -5.050 -22.821  0.00  0.00     0.083 C 
ATOM     38  O3S SGN d1709     -20.428  -5.533 -18.668  0.00  0.00    -0.296 OA
ATOM     39  C6  SGN d1709     -21.980  -6.981 -25.134  0.00  0.00     0.067 C 
ATOM     40  S2  SGN d1709     -24.090  -7.830 -26.301  0.00  0.00     0.251 S 
ATOM     41  O6S SGN d1709     -24.163  -9.003 -25.418  0.00  0.00    -0.572 OA
ATOM     42  O3  SGN d1709     -18.263  -5.400 -22.343  0.00  0.00    -0.391 OA
ATOM     43  H   SGN d1709     -22.099  -2.741 -19.179  0.00  0.00     0.231 HD
ATOM     44  H   SGN d1709     -23.026  -3.411 -22.914  0.00  0.00     0.212 HD
ATOM     45  H   SGN d1709     -19.904  -7.031 -23.407  0.00  0.00     0.091 H 
ATOM     46  H   SGN d1709     -21.548  -4.899 -24.817  0.00  0.00     0.090 H 
ATOM     47  H   SGN d1709     -22.603  -4.956 -21.271  0.00  0.00     0.131 H 
ATOM     48  H   SGN d1709     -19.817  -2.269 -18.661  0.00  0.00     0.231 HD
ATOM     49  H   SGN d1709     -19.145  -3.933 -20.642  0.00  0.00     0.140 HD
ATOM     50  H   SGN d1709     -20.390  -5.973 -21.100  0.00  0.00     0.076 H 
ATOM     51  H   SGN d1709     -19.555  -4.092 -23.296  0.00  0.00     0.089 H 
ATOM     52  H   SGN d1709     -20.682  -5.625 -17.736  0.00  0.00     0.231 HD
ATOM     53  H   SGN d1709     -21.347  -7.088 -25.990  0.00  0.00     0.080 H 
ATOM     54  H   SGN d1709     -21.963  -7.879 -24.555  0.00  0.00     0.080 H 
ATOM     55  H   SGN d1709     -18.299  -6.271 -21.917  0.00  0.00     0.210 HD
ATOM     56  O1S IDS d1712      -7.084  -8.547 -21.401  0.00  0.00    -0.572 OA
ATOM     57  O2S IDS d1712      -9.424  -8.675 -20.660  0.00  0.00    -0.572 OA
ATOM     58  O61 IDS d1712     -10.601 -13.739 -26.380  0.00  0.00    -0.646 OA
ATOM     59  O5  IDS d1712      -9.772 -10.377 -25.500  0.00  0.00    -0.340 OA
ATOM     60  C4  IDS d1712      -9.989 -12.219 -23.953  0.00  0.00     0.103 C 
ATOM     61  O2  IDS d1712      -8.713  -9.531 -22.794  0.00  0.00    -0.244 OA
ATOM     62  O4  IDS d1712      -8.566 -12.292 -23.803  0.00  0.00    -0.348 OA
ATOM     63  C1  IDS d1712     -10.229  -9.365 -24.616  0.00  0.00     0.161 C 
ATOM     64  S   IDS d1712      -8.309  -9.354 -21.326  0.00  0.00     0.252 S 
ATOM     65  C5  IDS d1712     -10.388 -11.658 -25.324  0.00  0.00     0.152 C 
ATOM     66  O62 IDS d1712      -9.314 -12.253 -27.359  0.00  0.00    -0.646 OA
ATOM     67  O3S IDS d1712      -8.076 -10.724 -20.779  0.00  0.00    -0.572 OA
ATOM     68  C6  IDS d1712     -10.071 -12.607 -26.438  0.00  0.00     0.206 C 
ATOM     69  C3  IDS d1712     -10.511 -11.257 -22.896  0.00  0.00     0.094 C 
ATOM     70  O3  IDS d1712     -11.945 -11.303 -22.875  0.00  0.00    -0.390 OA
ATOM     71  C2  IDS d1712     -10.069  -9.799 -23.182  0.00  0.00     0.134 C 
ATOM     72  H   IDS d1712     -10.395 -13.205 -23.857  0.00  0.00     0.092 H 
ATOM     73  H   IDS d1712      -9.643  -8.489 -24.802  0.00  0.00     0.133 H 
ATOM     74  H   IDS d1712     -11.451 -11.534 -25.356  0.00  0.00     0.104 H 
ATOM     75  H   IDS d1712     -10.105 -11.559 -21.953  0.00  0.00     0.091 H 
ATOM     76  H   IDS d1712     -12.289 -11.025 -23.738  0.00  0.00     0.210 HD
ATOM     77  H   IDS d1712     -10.743  -9.230 -22.575  0.00  0.00     0.097 H 
ATOM     78  O62 IDS d1710     -15.402  -7.111 -22.960  0.00  0.00    -0.646 OA
ATOM     79  O2  IDS d1710     -17.540  -8.015 -27.441  0.00  0.00    -0.244 OA
ATOM     80  O1S IDS d1710     -17.695 -10.316 -28.341  0.00  0.00    -0.572 OA
ATOM     81  C3  IDS d1710     -16.991  -5.685 -27.120  0.00  0.00     0.094 C 
ATOM     82  O3  IDS d1710     -17.581  -4.387 -27.036  0.00  0.00    -0.390 OA
ATOM     83  O4  IDS d1710     -15.028  -6.931 -26.381  0.00  0.00    -0.348 OA
ATOM     84  O5  IDS d1710     -17.286  -7.051 -24.647  0.00  0.00    -0.340 OA
ATOM     85  C6  IDS d1710     -15.414  -6.022 -23.589  0.00  0.00     0.206 C 
ATOM     86  O2S IDS d1710     -19.562  -9.345 -27.100  0.00  0.00    -0.572 OA
ATOM     87  C5  IDS d1710     -16.425  -5.897 -24.699  0.00  0.00     0.152 C 
ATOM     88  S   IDS d1710     -18.478  -9.105 -28.074  0.00  0.00     0.252 S 
ATOM     89  C2  IDS d1710     -18.053  -6.777 -26.928  0.00  0.00     0.134 C 
ATOM     90  O3S IDS d1710     -18.970  -8.446 -29.287  0.00  0.00    -0.572 OA
ATOM     91  C4  IDS d1710     -15.839  -5.780 -26.114  0.00  0.00     0.103 C 
ATOM     92  C1  IDS d1710     -18.457  -6.986 -25.459  0.00  0.00     0.161 C 
ATOM     93  O61 IDS d1710     -14.632  -5.075 -23.353  0.00  0.00    -0.646 OA
ATOM     94  H   IDS d1710     -16.580  -5.841 -28.095  0.00  0.00     0.091 H 
ATOM     95  H   IDS d1710     -17.949  -4.255 -26.148  0.00  0.00     0.210 HD
ATOM     96  H   IDS d1710     -16.942  -4.977 -24.530  0.00  0.00     0.104 H 
ATOM     97  H   IDS d1710     -18.929  -6.457 -27.454  0.00  0.00     0.097 H 
ATOM     98  H   IDS d1710     -15.230  -4.904 -26.198  0.00  0.00     0.092 H 
ATOM     99  H   IDS d1710     -18.999  -7.901 -25.341  0.00  0.00     0.133 H 
ATOM    100  C4  SGN d1713      -5.311 -12.795 -24.763  0.00  0.00     0.095 C 
ATOM    101  N   SGN d1713      -7.219 -13.489 -21.619  0.00  0.00    -0.210 NA
ATOM    102  O4S SGN d1713      -3.823 -13.812 -28.919  0.00  0.00    -0.572 OA
ATOM    103  O4  SGN d1713      -4.528 -11.673 -25.203  0.00  0.00    -0.348 OA
ATOM    104  C2  SGN d1713      -6.782 -13.684 -22.980  0.00  0.00     0.081 C 
ATOM    105  O6  SGN d1713      -5.540 -14.390 -27.139  0.00  0.00    -0.254 OA
ATOM    106  O2S SGN d1713      -7.084 -15.816 -21.042  0.00  0.00    -0.296 OA
ATOM    107  O3S SGN d1713      -7.867 -14.163 -19.222  0.00  0.00    -0.296 OA
ATOM    108  C6  SGN d1713      -6.208 -13.123 -27.127  0.00  0.00     0.067 C 
ATOM    109  O5S SGN d1713      -5.984 -14.748 -29.614  0.00  0.00    -0.572 OA
ATOM    110  C5  SGN d1713      -6.536 -12.756 -25.711  0.00  0.00     0.091 C 
ATOM    111  O3  SGN d1713      -4.566 -12.936 -22.505  0.00  0.00    -0.391 OA
ATOM    112  O1S SGN d1713      -9.250 -14.785 -21.164  0.00  0.00    -0.296 OA
ATOM    113  S1  SGN d1713      -7.882 -14.659 -20.750  0.00  0.00     0.156 S 
ATOM    114  O5  SGN d1713      -7.498 -13.750 -25.291  0.00  0.00    -0.349 OA
ATOM    115  S2  SGN d1713      -4.846 -14.787 -28.489  0.00  0.00     0.251 S 
ATOM    116  O6S SGN d1713      -4.357 -16.125 -28.247  0.00  0.00    -0.572 OA
ATOM    117  C3  SGN d1713      -5.721 -12.648 -23.300  0.00  0.00     0.083 C 
ATOM    118  C1  SGN d1713      -7.959 -13.588 -23.958  0.00  0.00     0.150 C 
ATOM    119  H   SGN d1713      -4.782 -13.724 -24.804  0.00  0.00     0.091 H 
ATOM    120  H   SGN d1713      -7.904 -12.734 -21.647  0.00  0.00     0.140 HD
ATOM    121  H   SGN d1713      -6.369 -14.665 -23.086  0.00  0.00     0.076 H 
ATOM    122  H   SGN d1713      -6.175 -15.666 -20.739  0.00  0.00     0.231 HD
ATOM    123  H   SGN d1713      -6.950 -14.071 -18.921  0.00  0.00     0.231 HD
ATOM    124  H   SGN d1713      -7.111 -13.188 -27.699  0.00  0.00     0.080 H 
ATOM    125  H   SGN d1713      -5.573 -12.375 -27.555  0.00  0.00     0.080 H 
ATOM    126  H   SGN d1713      -6.898 -11.749 -25.667  0.00  0.00     0.090 H 
ATOM    127  H   SGN d1713      -3.873 -12.284 -22.694  0.00  0.00     0.210 HD
ATOM    128  H   SGN d1713      -9.282 -15.085 -22.087  0.00  0.00     0.231 HD
ATOM    129  H   SGN d1713      -6.097 -11.666 -23.107  0.00  0.00     0.089 H 
ATOM    130  H   SGN d1713      -8.674 -14.358 -23.752  0.00  0.00     0.131 H 
ATOM    131  C2  SGN d1711     -13.434  -7.883 -27.856  0.00  0.00     0.081 C 
ATOM    132  O4S SGN d1711      -8.530  -6.037 -23.800  0.00  0.00    -0.572 OA
ATOM    133  S1  SGN d1711     -14.616  -7.932 -30.234  0.00  0.00     0.156 S 
ATOM    134  C3  SGN d1711     -12.901  -8.918 -26.849  0.00  0.00     0.083 C 
ATOM    135  O2S SGN d1711     -13.540  -8.600 -30.900  0.00  0.00    -0.296 OA
ATOM    136  O3  SGN d1711     -12.353 -10.057 -27.522  0.00  0.00    -0.391 OA
ATOM    137  N   SGN d1711     -14.514  -8.396 -28.698  0.00  0.00    -0.210 NA
ATOM    138  C4  SGN d1711     -11.822  -8.237 -25.991  0.00  0.00     0.095 C 
ATOM    139  O4  SGN d1711     -11.610  -9.083 -24.841  0.00  0.00    -0.348 OA
ATOM    140  O6S SGN d1711      -8.351  -4.564 -25.639  0.00  0.00    -0.572 OA
ATOM    141  S2  SGN d1711      -9.194  -5.009 -24.609  0.00  0.00     0.251 S 
ATOM    142  O5  SGN d1711     -12.822  -6.080 -26.350  0.00  0.00    -0.349 OA
ATOM    143  C5  SGN d1711     -12.408  -6.973 -25.299  0.00  0.00     0.091 C 
ATOM    144  O1S SGN d1711     -14.547  -6.485 -30.271  0.00  0.00    -0.296 OA
ATOM    145  O6  SGN d1711     -10.393  -5.734 -25.259  0.00  0.00    -0.254 OA
ATOM    146  O5S SGN d1711      -9.823  -3.886 -23.670  0.00  0.00    -0.572 OA
ATOM    147  O3S SGN d1711     -16.059  -8.430 -30.687  0.00  0.00    -0.296 OA
ATOM    148  C1  SGN d1711     -13.880  -6.581 -27.160  0.00  0.00     0.150 C 
ATOM    149  C6  SGN d1711     -11.452  -6.170 -24.416  0.00  0.00     0.067 C 
ATOM    150  H   SGN d1711     -12.608  -7.665 -28.499  0.00  0.00     0.076 H 
ATOM    151  H   SGN d1711     -13.703  -9.266 -26.233  0.00  0.00     0.089 H 
ATOM    152  H   SGN d1711     -12.694  -8.250 -30.579  0.00  0.00     0.231 HD
ATOM    153  H   SGN d1711     -11.621  -9.775 -28.092  0.00  0.00     0.210 HD
ATOM    154  H   SGN d1711     -15.390  -8.128 -28.250  0.00  0.00     0.140 HD
ATOM    155  H   SGN d1711     -10.973  -8.039 -26.613  0.00  0.00     0.091 H 
ATOM    156  H   SGN d1711     -13.181  -7.333 -24.653  0.00  0.00     0.090 H 
ATOM    157  H   SGN d1711     -13.664  -6.196 -29.992  0.00  0.00     0.231 HD
ATOM    158  H   SGN d1711     -16.738  -7.939 -30.200  0.00  0.00     0.231 HD
ATOM    159  H   SGN d1711     -14.122  -5.806 -27.856  0.00  0.00     0.131 H 
ATOM    160  H   SGN d1711     -11.069  -6.787 -23.630  0.00  0.00     0.080 H 
ATOM    161  H   SGN d1711     -11.950  -5.340 -23.961  0.00  0.00     0.080 H 
ENDROOT
TORSDOF 50
ENDMDL
MODEL 4
REMARK VINA RESULT:     -10.1      4.777     15.881
REMARK  0 active torsions:
REMARK  status: ('A' for Active; 'I' for Inactive)
REMARK       I    between atoms: C2_1  and  O2_12 
REMARK       I    between atoms: C1_4  and  O4_37 
REMARK       I    between atoms: O2S_5  and  S1_43 
REMARK       I    between atoms: O2_11  and  C2_82 
REMARK       I    between atoms: O2_11  and  S_80 
REMARK       I    between atoms: O2_12  and  S_23 
REMARK       I    between atoms: C4_13  and  O4_37 
REMARK       I    between atoms: C2_14  and  N_39 
REMARK       I    between atoms: O1_18  and  C1_32 
REMARK       I    between atoms: C4_19  and  O4_53 
REMARK       I    between atoms: O6_20  and  C6_76 
REMARK       I    between atoms: O6_20  and  S2_95 
REMARK       I    between atoms: S1_21  and  N_39 
REMARK       I    between atoms: S1_21  and  O1S_79 
REMARK       I    between atoms: S1_21  and  O2S_30 
REMARK       I    between atoms: S1_21  and  O3S_94 
REMARK       I    between atoms: C3_24  and  O3_26 
REMARK       I    between atoms: C3_25  and  O3_36 
REMARK       I    between atoms: C6_27  and  C5_83 
REMARK       I    between atoms: C4_28  and  O4_51 
REMARK       I    between atoms: N_29  and  C2_40 
REMARK       I    between atoms: N_29  and  S1_71 
REMARK       I    between atoms: C5_31  and  C6_76 
REMARK       I    between atoms: O1S_35  and  S1_43 
REMARK       I    between atoms: O4_38  and  C4_93 
REMARK       I    between atoms: O4_38  and  C1_96 
REMARK       I    between atoms: O6_41  and  C6_54 
REMARK       I    between atoms: O6_41  and  S2_84 
REMARK       I    between atoms: C4_42  and  O4_49 
REMARK       I    between atoms: S1_43  and  N_47 
REMARK       I    between atoms: S1_43  and  O3S_69 
REMARK       I    between atoms: O2S_44  and  S1_71 
REMARK       I    between atoms: N_47  and  C2_56 
REMARK       I    between atoms: O2_48  and  C2_99 
REMARK       I    between atoms: O2_48  and  S_63 
REMARK       I    between atoms: O4_49  and  C1_57 
REMARK       I    between atoms: O4_51  and  C1_102 
REMARK       I    between atoms: O3S_52  and  S1_71 
REMARK       I    between atoms: O4_53  and  C1_105 
REMARK       I    between atoms: C6_54  and  C5_59 
REMARK       I    between atoms: O3_60  and  C3_100 
REMARK       I    between atoms: O1S_61  and  S1_71 
REMARK       I    between atoms: S2_62  and  O6_81 
REMARK       I    between atoms: C5_65  and  C6_89 
REMARK       I    between atoms: C6_67  and  C5_74 
REMARK       I    between atoms: C3_68  and  O3_104 
REMARK       I    between atoms: C3_70  and  O3_85 
REMARK       I    between atoms: C5_77  and  C6_101 
REMARK       I    between atoms: O6_81  and  C6_101 
REMARK       I    between atoms: C3_92  and  O3_98 
ROOT
ATOM      1  C2  IDS d1714      -2.797 -11.854 -23.219  0.00  0.00     0.132 C 
ATOM      2  O3S IDS d1714       0.888 -12.751 -22.703  0.00  0.00    -0.572 OA
ATOM      3  C1  IDS d1714      -3.727 -12.692 -24.057  0.00  0.00     0.161 C 
ATOM      4  O2S IDS d1714      -0.276 -10.669 -22.228  0.00  0.00    -0.572 OA
ATOM      5  O2  IDS d1714      -1.528 -12.526 -23.172  0.00  0.00    -0.244 OA
ATOM      6  S   IDS d1714      -0.162 -11.817 -23.165  0.00  0.00     0.252 S 
ATOM      7  C6  IDS d1714      -5.086 -15.104 -21.580  0.00  0.00     0.203 C 
ATOM      8  O5  IDS d1714      -3.986 -13.919 -23.352  0.00  0.00    -0.343 OA
ATOM      9  C4  IDS d1714      -3.953 -12.843 -21.130  0.00  0.00    -0.005 C 
ATOM     10  O61 IDS d1714      -4.845 -16.113 -22.287  0.00  0.00    -0.646 OA
ATOM     11  C3  IDS d1714      -3.280 -11.632 -21.790  0.00  0.00     0.069 C 
ATOM     12  C5  IDS d1714      -4.682 -13.742 -22.120  0.00  0.00     0.127 C 
ATOM     13  O3  IDS d1714      -4.151 -10.491 -21.752  0.00  0.00    -0.393 OA
ATOM     14  O1S IDS d1714       0.019 -11.342 -24.542  0.00  0.00    -0.572 OA
ATOM     15  O62 IDS d1714      -5.644 -15.193 -20.462  0.00  0.00    -0.646 OA
ATOM     16  H   IDS d1714      -2.742 -10.887 -23.674  0.00  0.00     0.097 H 
ATOM     17  H   IDS d1714      -3.345 -12.981 -25.014  0.00  0.00     0.133 H 
ATOM     18  H   IDS d1714      -4.660 -12.488 -20.410  0.00  0.00     0.041 H 
ATOM     19  H   IDS d1714      -3.180 -13.430 -20.680  0.00  0.00     0.041 H 
ATOM     20  H   IDS d1714      -2.399 -11.463 -21.207  0.00  0.00     0.087 H 
ATOM     21  H   IDS d1714      -5.581 -13.191 -22.302  0.00  0.00     0.100 H 
ATOM     22  H   IDS d1714      -4.941 -10.668 -22.286  0.00  0.00     0.210 HD
ATOM     23  O5  SGN d1709     -17.180   1.785 -28.222  0.00  0.00    -0.350 OA
ATOM     24  O2S SGN d1709     -20.073   1.463 -24.526  0.00  0.00    -0.296 OA
ATOM     25  O4S SGN d1709     -14.593   2.741 -32.625  0.00  0.00    -0.572 OA
ATOM     26  O1  SGN d1709     -17.274   3.132 -26.292  0.00  0.00    -0.369 OA
ATOM     27  O6  SGN d1709     -15.974   2.755 -30.608  0.00  0.00    -0.254 OA
ATOM     28  C4  SGN d1709     -15.201   0.616 -27.615  0.00  0.00     0.095 C 
ATOM     29  C5  SGN d1709     -15.762   1.810 -28.393  0.00  0.00     0.091 C 
ATOM     30  C1  SGN d1709     -17.660   1.895 -26.883  0.00  0.00     0.147 C 
ATOM     31  O5S SGN d1709     -16.726   4.124 -32.594  0.00  0.00    -0.572 OA
ATOM     32  O1S SGN d1709     -19.026   0.252 -22.756  0.00  0.00    -0.296 OA
ATOM     33  S1  SGN d1709     -19.084   0.474 -24.184  0.00  0.00     0.156 S 
ATOM     34  N   SGN d1709     -17.617   0.867 -24.667  0.00  0.00    -0.210 NA
ATOM     35  O4  SGN d1709     -13.778   0.801 -27.685  0.00  0.00    -0.348 OA
ATOM     36  C2  SGN d1709     -17.160   0.716 -26.043  0.00  0.00     0.081 C 
ATOM     37  C3  SGN d1709     -15.632   0.646 -26.159  0.00  0.00     0.083 C 
ATOM     38  O3S SGN d1709     -19.436  -0.855 -24.930  0.00  0.00    -0.296 OA
ATOM     39  C6  SGN d1709     -15.497   1.630 -29.892  0.00  0.00     0.067 C 
ATOM     40  S2  SGN d1709     -15.975   2.735 -32.148  0.00  0.00     0.251 S 
ATOM     41  O6S SGN d1709     -16.797   1.597 -32.584  0.00  0.00    -0.572 OA
ATOM     42  O3  SGN d1709     -15.218  -0.552 -25.503  0.00  0.00    -0.391 OA
ATOM     43  H   SGN d1709     -19.869   2.295 -24.071  0.00  0.00     0.231 HD
ATOM     44  H   SGN d1709     -17.600   3.866 -26.836  0.00  0.00     0.212 HD
ATOM     45  H   SGN d1709     -15.543  -0.315 -28.017  0.00  0.00     0.091 H 
ATOM     46  H   SGN d1709     -15.312   2.717 -28.047  0.00  0.00     0.090 H 
ATOM     47  H   SGN d1709     -18.730   1.869 -26.910  0.00  0.00     0.131 H 
ATOM     48  H   SGN d1709     -18.808   1.085 -22.308  0.00  0.00     0.231 HD
ATOM     49  H   SGN d1709     -16.977   0.314 -24.097  0.00  0.00     0.140 HD
ATOM     50  H   SGN d1709     -17.557  -0.211 -26.402  0.00  0.00     0.076 H 
ATOM     51  H   SGN d1709     -15.185   1.508 -25.711  0.00  0.00     0.089 H 
ATOM     52  H   SGN d1709     -20.326  -1.145 -24.673  0.00  0.00     0.231 HD
ATOM     53  H   SGN d1709     -14.444   1.527 -30.056  0.00  0.00     0.080 H 
ATOM     54  H   SGN d1709     -16.005   0.754 -30.236  0.00  0.00     0.080 H 
ATOM     55  H   SGN d1709     -15.638  -1.316 -25.929  0.00  0.00     0.210 HD
ATOM     56  O1S IDS d1712      -9.200  -9.689 -21.495  0.00  0.00    -0.572 OA
ATOM     57  O2S IDS d1712     -11.249  -8.708 -22.433  0.00  0.00    -0.572 OA
ATOM     58  O61 IDS d1712      -7.933  -9.290 -29.391  0.00  0.00    -0.646 OA
ATOM     59  O5  IDS d1712      -7.839  -7.760 -26.164  0.00  0.00    -0.340 OA
ATOM     60  C4  IDS d1712      -9.317  -9.552 -26.825  0.00  0.00     0.103 C 
ATOM     61  O2  IDS d1712      -9.213  -8.870 -23.707  0.00  0.00    -0.244 OA
ATOM     62  O4  IDS d1712      -8.550 -10.496 -26.068  0.00  0.00    -0.348 OA
ATOM     63  C1  IDS d1712      -8.734  -7.134 -25.256  0.00  0.00     0.161 C 
ATOM     64  S   IDS d1712     -10.086  -9.571 -22.660  0.00  0.00     0.252 S 
ATOM     65  C5  IDS d1712      -8.459  -8.372 -27.300  0.00  0.00     0.152 C 
ATOM     66  O62 IDS d1712      -6.253  -8.603 -28.154  0.00  0.00    -0.646 OA
ATOM     67  O3S IDS d1712     -10.471 -10.892 -23.241  0.00  0.00    -0.572 OA
ATOM     68  C6  IDS d1712      -7.469  -8.779 -28.347  0.00  0.00     0.206 C 
ATOM     69  C3  IDS d1712     -10.391  -8.993 -25.902  0.00  0.00     0.094 C 
ATOM     70  O3  IDS d1712     -11.307  -8.194 -26.664  0.00  0.00    -0.390 OA
ATOM     71  C2  IDS d1712      -9.780  -8.110 -24.783  0.00  0.00     0.134 C 
ATOM     72  H   IDS d1712      -9.722 -10.047 -27.683  0.00  0.00     0.092 H 
ATOM     73  H   IDS d1712      -8.155  -6.785 -24.426  0.00  0.00     0.133 H 
ATOM     74  H   IDS d1712      -9.089  -7.650 -27.777  0.00  0.00     0.104 H 
ATOM     75  H   IDS d1712     -10.893  -9.822 -25.447  0.00  0.00     0.091 H 
ATOM     76  H   IDS d1712     -10.831  -7.451 -27.066  0.00  0.00     0.210 HD
ATOM     77  H   IDS d1712     -10.629  -7.558 -24.436  0.00  0.00     0.097 H 
ATOM     78  O62 IDS d1710     -13.080  -3.184 -25.533  0.00  0.00    -0.646 OA
ATOM     79  O2  IDS d1710     -11.008  -0.771 -29.450  0.00  0.00    -0.244 OA
ATOM     80  O1S IDS d1710     -10.583  -1.940 -31.590  0.00  0.00    -0.572 OA
ATOM     81  C3  IDS d1710     -10.735   0.420 -27.366  0.00  0.00     0.094 C 
ATOM     82  O3  IDS d1710     -11.069   1.647 -26.715  0.00  0.00    -0.390 OA
ATOM     83  O4  IDS d1710     -10.177  -1.903 -26.874  0.00  0.00    -0.348 OA
ATOM     84  O5  IDS d1710     -12.945  -1.363 -27.282  0.00  0.00    -0.340 OA
ATOM     85  C6  IDS d1710     -12.517  -2.157 -25.076  0.00  0.00     0.206 C 
ATOM     86  O2S IDS d1710     -12.640  -0.661 -31.267  0.00  0.00    -0.572 OA
ATOM     87  C5  IDS d1710     -12.277  -1.033 -26.049  0.00  0.00     0.152 C 
ATOM     88  S   IDS d1710     -11.187  -0.736 -31.011  0.00  0.00     0.252 S 
ATOM     89  C2  IDS d1710     -11.632   0.196 -28.593  0.00  0.00     0.134 C 
ATOM     90  O3S IDS d1710     -10.502   0.504 -31.389  0.00  0.00    -0.572 OA
ATOM     91  C4  IDS d1710     -10.802  -0.724 -26.351  0.00  0.00     0.103 C 
ATOM     92  C1  IDS d1710     -13.041  -0.305 -28.235  0.00  0.00     0.161 C 
ATOM     93  O61 IDS d1710     -12.138  -2.042 -23.889  0.00  0.00    -0.646 OA
ATOM     94  H   IDS d1710      -9.732   0.461 -27.739  0.00  0.00     0.091 H 
ATOM     95  H   IDS d1710     -11.979   1.598 -26.381  0.00  0.00     0.210 HD
ATOM     96  H   IDS d1710     -12.661  -0.149 -25.584  0.00  0.00     0.104 H 
ATOM     97  H   IDS d1710     -11.746   1.145 -29.075  0.00  0.00     0.097 H 
ATOM     98  H   IDS d1710     -10.289  -0.429 -25.460  0.00  0.00     0.092 H 
ATOM     99  H   IDS d1710     -13.542  -0.680 -29.102  0.00  0.00     0.133 H 
ATOM    100  C4  SGN d1713      -5.807 -12.370 -25.209  0.00  0.00     0.095 C 
ATOM    101  N   SGN d1713      -9.495 -13.005 -25.157  0.00  0.00    -0.210 NA
ATOM    102  O4S SGN d1713      -1.728 -12.288 -27.177  0.00  0.00    -0.572 OA
ATOM    103  O4  SGN d1713      -4.890 -11.861 -24.227  0.00  0.00    -0.348 OA
ATOM    104  C2  SGN d1713      -8.180 -12.851 -25.730  0.00  0.00     0.081 C 
ATOM    105  O6  SGN d1713      -4.228 -12.406 -27.606  0.00  0.00    -0.254 OA
ATOM    106  O2S SGN d1713     -10.037 -14.954 -26.448  0.00  0.00    -0.296 OA
ATOM    107  O3S SGN d1713     -11.813 -14.063 -24.803  0.00  0.00    -0.296 OA
ATOM    108  C6  SGN d1713      -4.558 -11.126 -27.051  0.00  0.00     0.067 C 
ATOM    109  O5S SGN d1713      -2.612 -11.404 -29.289  0.00  0.00    -0.572 OA
ATOM    110  C5  SGN d1713      -5.834 -11.244 -26.274  0.00  0.00     0.091 C 
ATOM    111  O3  SGN d1713      -7.106 -13.811 -23.828  0.00  0.00    -0.391 OA
ATOM    112  O1S SGN d1713     -11.218 -12.912 -26.899  0.00  0.00    -0.296 OA
ATOM    113  S1  SGN d1713     -10.675 -13.790 -25.903  0.00  0.00     0.156 S 
ATOM    114  O5  SGN d1713      -6.838 -11.551 -27.268  0.00  0.00    -0.349 OA
ATOM    115  S2  SGN d1713      -2.777 -12.549 -28.184  0.00  0.00     0.251 S 
ATOM    116  O6S SGN d1713      -2.761 -13.875 -28.757  0.00  0.00    -0.572 OA
ATOM    117  C3  SGN d1713      -7.188 -12.614 -24.607  0.00  0.00     0.083 C 
ATOM    118  C1  SGN d1713      -8.149 -11.702 -26.745  0.00  0.00     0.150 C 
ATOM    119  H   SGN d1713      -5.516 -13.318 -25.611  0.00  0.00     0.091 H 
ATOM    120  H   SGN d1713      -9.844 -12.061 -24.991  0.00  0.00     0.140 HD
ATOM    121  H   SGN d1713      -7.915 -13.742 -26.261  0.00  0.00     0.076 H 
ATOM    122  H   SGN d1713      -9.693 -15.502 -25.726  0.00  0.00     0.231 HD
ATOM    123  H   SGN d1713     -11.467 -14.655 -24.119  0.00  0.00     0.231 HD
ATOM    124  H   SGN d1713      -4.683 -10.415 -27.841  0.00  0.00     0.080 H 
ATOM    125  H   SGN d1713      -3.771 -10.799 -26.404  0.00  0.00     0.080 H 
ATOM    126  H   SGN d1713      -6.018 -10.341 -25.729  0.00  0.00     0.090 H 
ATOM    127  H   SGN d1713      -6.475 -13.682 -23.101  0.00  0.00     0.210 HD
ATOM    128  H   SGN d1713     -10.545 -12.734 -27.575  0.00  0.00     0.231 HD
ATOM    129  H   SGN d1713      -7.498 -11.779 -24.014  0.00  0.00     0.089 H 
ATOM    130  H   SGN d1713      -8.815 -11.909 -27.557  0.00  0.00     0.131 H 
ATOM    131  C2  SGN d1711      -8.108  -2.914 -27.439  0.00  0.00     0.081 C 
ATOM    132  O4S SGN d1711      -8.049  -6.112 -21.635  0.00  0.00    -0.572 OA
ATOM    133  S1  SGN d1711      -7.004  -1.302 -29.239  0.00  0.00     0.156 S 
ATOM    134  C3  SGN d1711      -8.636  -4.359 -27.405  0.00  0.00     0.083 C 
ATOM    135  O2S SGN d1711      -5.865  -2.135 -29.478  0.00  0.00    -0.296 OA
ATOM    136  O3  SGN d1711      -7.858  -5.212 -28.252  0.00  0.00    -0.391 OA
ATOM    137  N   SGN d1711      -8.169  -2.305 -28.767  0.00  0.00    -0.210 NA
ATOM    138  C4  SGN d1711      -8.575  -4.855 -25.950  0.00  0.00     0.095 C 
ATOM    139  O4  SGN d1711      -9.401  -6.038 -25.880  0.00  0.00    -0.348 OA
ATOM    140  O6S SGN d1711      -6.395  -4.440 -21.397  0.00  0.00    -0.572 OA
ATOM    141  S2  SGN d1711      -7.756  -4.674 -21.646  0.00  0.00     0.251 S 
ATOM    142  O5  SGN d1711      -8.756  -2.606 -25.120  0.00  0.00    -0.349 OA
ATOM    143  C5  SGN d1711      -9.382  -3.899 -25.026  0.00  0.00     0.091 C 
ATOM    144  O1S SGN d1711      -6.821  -0.308 -28.199  0.00  0.00    -0.296 OA
ATOM    145  O6  SGN d1711      -8.057  -4.222 -23.091  0.00  0.00    -0.254 OA
ATOM    146  O5S SGN d1711      -8.793  -3.891 -20.723  0.00  0.00    -0.572 OA
ATOM    147  O3S SGN d1711      -7.593  -0.627 -30.555  0.00  0.00    -0.296 OA
ATOM    148  C1  SGN d1711      -8.827  -2.015 -26.413  0.00  0.00     0.150 C 
ATOM    149  C6  SGN d1711      -9.407  -4.248 -23.537  0.00  0.00     0.067 C 
ATOM    150  H   SGN d1711      -7.075  -2.986 -27.171  0.00  0.00     0.076 H 
ATOM    151  H   SGN d1711      -9.643  -4.382 -27.765  0.00  0.00     0.089 H 
ATOM    152  H   SGN d1711      -5.559  -2.512 -28.639  0.00  0.00     0.231 HD
ATOM    153  H   SGN d1711      -6.936  -5.213 -27.952  0.00  0.00     0.210 HD
ATOM    154  H   SGN d1711      -9.044  -1.784 -28.813  0.00  0.00     0.140 HD
ATOM    155  H   SGN d1711      -7.546  -4.963 -25.675  0.00  0.00     0.091 H 
ATOM    156  H   SGN d1711     -10.395  -3.960 -25.365  0.00  0.00     0.090 H 
ATOM    157  H   SGN d1711      -6.463  -0.733 -27.405  0.00  0.00     0.231 HD
ATOM    158  H   SGN d1711      -8.359  -0.079 -30.322  0.00  0.00     0.231 HD
ATOM    159  H   SGN d1711      -8.378  -1.048 -26.329  0.00  0.00     0.131 H 
ATOM    160  H   SGN d1711      -9.826  -5.222 -23.392  0.00  0.00     0.080 H 
ATOM    161  H   SGN d1711     -10.009  -3.554 -22.987  0.00  0.00     0.080 H 
ENDROOT
TORSDOF 50
ENDMDL
MODEL 5
REMARK VINA RESULT:      -9.8      3.380     15.748
REMARK  0 active torsions:
REMARK  status: ('A' for Active; 'I' for Inactive)
REMARK       I    between atoms: C2_1  and  O2_12 
REMARK       I    between atoms: C1_4  and  O4_37 
REMARK       I    between atoms: O2S_5  and  S1_43 
REMARK       I    between atoms: O2_11  and  C2_82 
REMARK       I    between atoms: O2_11  and  S_80 
REMARK       I    between atoms: O2_12  and  S_23 
REMARK       I    between atoms: C4_13  and  O4_37 
REMARK       I    between atoms: C2_14  and  N_39 
REMARK       I    between atoms: O1_18  and  C1_32 
REMARK       I    between atoms: C4_19  and  O4_53 
REMARK       I    between atoms: O6_20  and  C6_76 
REMARK       I    between atoms: O6_20  and  S2_95 
REMARK       I    between atoms: S1_21  and  N_39 
REMARK       I    between atoms: S1_21  and  O1S_79 
REMARK       I    between atoms: S1_21  and  O2S_30 
REMARK       I    between atoms: S1_21  and  O3S_94 
REMARK       I    between atoms: C3_24  and  O3_26 
REMARK       I    between atoms: C3_25  and  O3_36 
REMARK       I    between atoms: C6_27  and  C5_83 
REMARK       I    between atoms: C4_28  and  O4_51 
REMARK       I    between atoms: N_29  and  C2_40 
REMARK       I    between atoms: N_29  and  S1_71 
REMARK       I    between atoms: C5_31  and  C6_76 
REMARK       I    between atoms: O1S_35  and  S1_43 
REMARK       I    between atoms: O4_38  and  C4_93 
REMARK       I    between atoms: O4_38  and  C1_96 
REMARK       I    between atoms: O6_41  and  C6_54 
REMARK       I    between atoms: O6_41  and  S2_84 
REMARK       I    between atoms: C4_42  and  O4_49 
REMARK       I    between atoms: S1_43  and  N_47 
REMARK       I    between atoms: S1_43  and  O3S_69 
REMARK       I    between atoms: O2S_44  and  S1_71 
REMARK       I    between atoms: N_47  and  C2_56 
REMARK       I    between atoms: O2_48  and  C2_99 
REMARK       I    between atoms: O2_48  and  S_63 
REMARK       I    between atoms: O4_49  and  C1_57 
REMARK       I    between atoms: O4_51  and  C1_102 
REMARK       I    between atoms: O3S_52  and  S1_71 
REMARK       I    between atoms: O4_53  and  C1_105 
REMARK       I    between atoms: C6_54  and  C5_59 
REMARK       I    between atoms: O3_60  and  C3_100 
REMARK       I    between atoms: O1S_61  and  S1_71 
REMARK       I    between atoms: S2_62  and  O6_81 
REMARK       I    between atoms: C5_65  and  C6_89 
REMARK       I    between atoms: C6_67  and  C5_74 
REMARK       I    between atoms: C3_68  and  O3_104 
REMARK       I    between atoms: C3_70  and  O3_85 
REMARK       I    between atoms: C5_77  and  C6_101 
REMARK       I    between atoms: O6_81  and  C6_101 
REMARK       I    between atoms: C3_92  and  O3_98 
ROOT
ATOM      1  C2  IDS d1714      -2.192 -11.219 -24.246  0.00  0.00     0.132 C 
ATOM      2  O3S IDS d1714       1.604 -11.377 -24.707  0.00  0.00    -0.572 OA
ATOM      3  C1  IDS d1714      -3.099 -12.376 -24.575  0.00  0.00     0.161 C 
ATOM      4  O2S IDS d1714       0.173  -9.447 -24.328  0.00  0.00    -0.572 OA
ATOM      5  O2  IDS d1714      -0.838 -11.653 -24.453  0.00  0.00    -0.244 OA
ATOM      6  S   IDS d1714       0.291 -10.764 -25.005  0.00  0.00     0.252 S 
ATOM      7  C6  IDS d1714      -3.200 -14.253 -21.371  0.00  0.00     0.203 C 
ATOM      8  O5  IDS d1714      -2.888 -13.406 -23.593  0.00  0.00    -0.343 OA
ATOM      9  C4  IDS d1714      -2.518 -11.805 -21.750  0.00  0.00    -0.005 C 
ATOM     10  O61 IDS d1714      -2.935 -15.360 -21.899  0.00  0.00    -0.646 OA
ATOM     11  C3  IDS d1714      -2.325 -10.715 -22.813  0.00  0.00     0.069 C 
ATOM     12  C5  IDS d1714      -3.262 -13.029 -22.270  0.00  0.00     0.127 C 
ATOM     13  O3  IDS d1714      -3.386  -9.750 -22.742  0.00  0.00    -0.393 OA
ATOM     14  O1S IDS d1714      -0.002 -10.637 -26.437  0.00  0.00    -0.572 OA
ATOM     15  O62 IDS d1714      -3.415 -14.137 -20.141  0.00  0.00    -0.646 OA
ATOM     16  H   IDS d1714      -2.472 -10.405 -24.880  0.00  0.00     0.097 H 
ATOM     17  H   IDS d1714      -2.924 -12.838 -25.524  0.00  0.00     0.133 H 
ATOM     18  H   IDS d1714      -3.075 -11.390 -20.936  0.00  0.00     0.041 H 
ATOM     19  H   IDS d1714      -1.545 -12.131 -21.449  0.00  0.00     0.041 H 
ATOM     20  H   IDS d1714      -1.382 -10.269 -22.573  0.00  0.00     0.087 H 
ATOM     21  H   IDS d1714      -4.276 -12.688 -22.276  0.00  0.00     0.100 H 
ATOM     22  H   IDS d1714      -4.228 -10.178 -22.964  0.00  0.00     0.210 HD
ATOM     23  O5  SGN d1709     -20.026  -1.695 -27.269  0.00  0.00    -0.350 OA
ATOM     24  O2S SGN d1709     -21.717  -1.500 -22.883  0.00  0.00    -0.296 OA
ATOM     25  O4S SGN d1709     -18.949  -1.513 -32.348  0.00  0.00    -0.572 OA
ATOM     26  O1  SGN d1709     -19.913   0.071 -25.714  0.00  0.00    -0.369 OA
ATOM     27  O6  SGN d1709     -19.727  -1.196 -30.053  0.00  0.00    -0.254 OA
ATOM     28  C4  SGN d1709     -17.751  -2.351 -27.071  0.00  0.00     0.095 C 
ATOM     29  C5  SGN d1709     -18.744  -1.497 -27.866  0.00  0.00     0.091 C 
ATOM     30  C1  SGN d1709     -20.155  -1.321 -25.898  0.00  0.00     0.147 C 
ATOM     31  O5S SGN d1709     -21.252  -0.513 -31.949  0.00  0.00    -0.572 OA
ATOM     32  O1S SGN d1709     -20.005  -2.041 -21.310  0.00  0.00    -0.296 OA
ATOM     33  S1  SGN d1709     -20.479  -2.204 -22.666  0.00  0.00     0.156 S 
ATOM     34  N   SGN d1709     -19.313  -1.727 -23.642  0.00  0.00    -0.210 NA
ATOM     35  O4  SGN d1709     -16.471  -1.973 -27.607  0.00  0.00    -0.348 OA
ATOM     36  C2  SGN d1709     -19.206  -2.154 -25.032  0.00  0.00     0.081 C 
ATOM     37  C3  SGN d1709     -17.785  -2.015 -25.591  0.00  0.00     0.083 C 
ATOM     38  O3S SGN d1709     -20.710  -3.717 -22.987  0.00  0.00    -0.296 OA
ATOM     39  C6  SGN d1709     -18.844  -2.012 -29.306  0.00  0.00     0.067 C 
ATOM     40  S2  SGN d1709     -20.123  -1.609 -31.482  0.00  0.00     0.251 S 
ATOM     41  O6S SGN d1709     -20.757  -2.933 -31.410  0.00  0.00    -0.572 OA
ATOM     42  O3  SGN d1709     -16.960  -2.927 -24.865  0.00  0.00    -0.391 OA
ATOM     43  H   SGN d1709     -21.591  -0.558 -22.689  0.00  0.00     0.231 HD
ATOM     44  H   SGN d1709     -20.522   0.581 -26.270  0.00  0.00     0.212 HD
ATOM     45  H   SGN d1709     -17.971  -3.395 -27.155  0.00  0.00     0.091 H 
ATOM     46  H   SGN d1709     -18.431  -0.474 -27.862  0.00  0.00     0.090 H 
ATOM     47  H   SGN d1709     -21.162  -1.516 -25.593  0.00  0.00     0.131 H 
ATOM     48  H   SGN d1709     -19.868  -1.098 -21.127  0.00  0.00     0.231 HD
ATOM     49  H   SGN d1709     -18.441  -2.010 -23.195  0.00  0.00     0.140 HD
ATOM     50  H   SGN d1709     -19.468  -3.191 -25.059  0.00  0.00     0.076 H 
ATOM     51  H   SGN d1709     -17.439  -1.009 -25.482  0.00  0.00     0.089 H 
ATOM     52  H   SGN d1709     -21.415  -4.065 -22.419  0.00  0.00     0.231 HD
ATOM     53  H   SGN d1709     -17.874  -1.991 -29.758  0.00  0.00     0.080 H 
ATOM     54  H   SGN d1709     -19.217  -3.014 -29.295  0.00  0.00     0.080 H 
ATOM     55  H   SGN d1709     -17.296  -3.830 -24.981  0.00  0.00     0.210 HD
ATOM     56  O1S IDS d1712      -8.242  -9.695 -21.128  0.00  0.00    -0.572 OA
ATOM     57  O2S IDS d1712     -10.629  -9.314 -21.575  0.00  0.00    -0.572 OA
ATOM     58  O61 IDS d1712      -9.188 -11.143 -28.946  0.00  0.00    -0.646 OA
ATOM     59  O5  IDS d1712      -8.601  -8.841 -26.277  0.00  0.00    -0.340 OA
ATOM     60  C4  IDS d1712      -9.766 -10.948 -26.082  0.00  0.00     0.103 C 
ATOM     61  O2  IDS d1712      -9.010  -9.482 -23.348  0.00  0.00    -0.244 OA
ATOM     62  O4  IDS d1712      -8.640 -11.537 -25.421  0.00  0.00    -0.348 OA
ATOM     63  C1  IDS d1712      -9.346  -8.149 -25.285  0.00  0.00     0.161 C 
ATOM     64  S   IDS d1712      -9.404 -10.017 -21.967  0.00  0.00     0.252 S 
ATOM     65  C5  IDS d1712      -9.344  -9.812 -27.023  0.00  0.00     0.152 C 
ATOM     66  O62 IDS d1712      -7.440  -9.912 -28.443  0.00  0.00    -0.646 OA
ATOM     67  O3S IDS d1712      -9.625 -11.486 -22.125  0.00  0.00    -0.572 OA
ATOM     68  C6  IDS d1712      -8.595 -10.316 -28.217  0.00  0.00     0.206 C 
ATOM     69  C3  IDS d1712     -10.660 -10.343 -25.008  0.00  0.00     0.094 C 
ATOM     70  O3  IDS d1712     -11.896  -9.917 -25.600  0.00  0.00    -0.390 OA
ATOM     71  C2  IDS d1712      -9.991  -9.119 -24.330  0.00  0.00     0.134 C 
ATOM     72  H   IDS d1712     -10.260 -11.702 -26.658  0.00  0.00     0.092 H 
ATOM     73  H   IDS d1712      -8.663  -7.514 -24.759  0.00  0.00     0.133 H 
ATOM     74  H   IDS d1712     -10.220  -9.341 -27.421  0.00  0.00     0.104 H 
ATOM     75  H   IDS d1712     -10.831 -11.094 -24.266  0.00  0.00     0.091 H 
ATOM     76  H   IDS d1712     -11.716  -9.237 -26.268  0.00  0.00     0.210 HD
ATOM     77  H   IDS d1712     -10.820  -8.634 -23.859  0.00  0.00     0.097 H 
ATOM     78  O62 IDS d1710     -14.377  -5.118 -25.014  0.00  0.00    -0.646 OA
ATOM     79  O2  IDS d1710     -13.978  -3.500 -29.777  0.00  0.00    -0.244 OA
ATOM     80  O1S IDS d1710     -13.876  -5.099 -31.664  0.00  0.00    -0.572 OA
ATOM     81  C3  IDS d1710     -13.444  -1.787 -28.160  0.00  0.00     0.094 C 
ATOM     82  O3  IDS d1710     -13.861  -0.501 -27.698  0.00  0.00    -0.390 OA
ATOM     83  O4  IDS d1710     -12.278  -3.793 -27.404  0.00  0.00    -0.348 OA
ATOM     84  O5  IDS d1710     -15.106  -3.807 -27.050  0.00  0.00    -0.340 OA
ATOM     85  C6  IDS d1710     -13.955  -3.935 -24.967  0.00  0.00     0.206 C 
ATOM     86  O2S IDS d1710     -16.008  -4.112 -30.994  0.00  0.00    -0.572 OA
ATOM     87  C5  IDS d1710     -14.231  -3.074 -26.171  0.00  0.00     0.152 C 
ATOM     88  S   IDS d1710     -14.559  -3.894 -31.183  0.00  0.00     0.252 S 
ATOM     89  C2  IDS d1710     -14.556  -2.454 -28.983  0.00  0.00     0.134 C 
ATOM     90  O3S IDS d1710     -14.287  -2.703 -31.993  0.00  0.00    -0.572 OA
ATOM     91  C4  IDS d1710     -12.991  -2.630 -26.963  0.00  0.00     0.103 C 
ATOM     92  C1  IDS d1710     -15.677  -3.057 -28.121  0.00  0.00     0.161 C 
ATOM     93  O61 IDS d1710     -13.317  -3.462 -24.000  0.00  0.00    -0.646 OA
ATOM     94  H   IDS d1710     -12.607  -1.690 -28.819  0.00  0.00     0.091 H 
ATOM     95  H   IDS d1710     -14.618  -0.602 -27.100  0.00  0.00     0.210 HD
ATOM     96  H   IDS d1710     -14.667  -2.170 -25.800  0.00  0.00     0.104 H 
ATOM     97  H   IDS d1710     -14.998  -1.690 -29.588  0.00  0.00     0.097 H 
ATOM     98  H   IDS d1710     -12.342  -2.042 -26.349  0.00  0.00     0.092 H 
ATOM     99  H   IDS d1710     -16.291  -3.714 -28.701  0.00  0.00     0.133 H 
ATOM    100  C4  SGN d1713      -5.425 -12.684 -25.080  0.00  0.00     0.095 C 
ATOM    101  N   SGN d1713      -8.737 -13.843 -23.781  0.00  0.00    -0.210 NA
ATOM    102  O4S SGN d1713      -2.118 -12.483 -28.169  0.00  0.00    -0.572 OA
ATOM    103  O4  SGN d1713      -4.419 -11.806 -24.546  0.00  0.00    -0.348 OA
ATOM    104  C2  SGN d1713      -7.684 -13.641 -24.746  0.00  0.00     0.081 C 
ATOM    105  O6  SGN d1713      -4.554 -13.090 -27.785  0.00  0.00    -0.254 OA
ATOM    106  O2S SGN d1713      -9.151 -16.118 -24.427  0.00  0.00    -0.296 OA
ATOM    107  O3S SGN d1713     -10.592 -15.118 -22.534  0.00  0.00    -0.296 OA
ATOM    108  C6  SGN d1713      -5.003 -11.777 -27.425  0.00  0.00     0.067 C 
ATOM    109  O5S SGN d1713      -3.693 -12.316 -30.045  0.00  0.00    -0.572 OA
ATOM    110  C5  SGN d1713      -5.975 -11.887 -26.289  0.00  0.00     0.091 C 
ATOM    111  O3  SGN d1713      -5.968 -13.905 -23.108  0.00  0.00    -0.391 OA
ATOM    112  O1S SGN d1713     -10.830 -14.465 -24.898  0.00  0.00    -0.296 OA
ATOM    113  S1  SGN d1713      -9.866 -14.965 -23.959  0.00  0.00     0.156 S 
ATOM    114  O5  SGN d1713      -7.109 -12.588 -26.847  0.00  0.00    -0.349 OA
ATOM    115  S2  SGN d1713      -3.308 -13.151 -28.736  0.00  0.00     0.251 S 
ATOM    116  O6S SGN d1713      -3.149 -14.561 -29.008  0.00  0.00    -0.572 OA
ATOM    117  C3  SGN d1713      -6.513 -12.975 -24.049  0.00  0.00     0.083 C 
ATOM    118  C1  SGN d1713      -8.173 -12.800 -25.931  0.00  0.00     0.150 C 
ATOM    119  H   SGN d1713      -5.045 -13.646 -25.352  0.00  0.00     0.091 H 
ATOM    120  H   SGN d1713      -9.231 -12.953 -23.710  0.00  0.00     0.140 HD
ATOM    121  H   SGN d1713      -7.375 -14.586 -25.142  0.00  0.00     0.076 H 
ATOM    122  H   SGN d1713      -8.519 -16.403 -23.749  0.00  0.00     0.231 HD
ATOM    123  H   SGN d1713      -9.957 -15.455 -21.883  0.00  0.00     0.231 HD
ATOM    124  H   SGN d1713      -5.483 -11.320 -28.265  0.00  0.00     0.080 H 
ATOM    125  H   SGN d1713      -4.167 -11.178 -27.128  0.00  0.00     0.080 H 
ATOM    126  H   SGN d1713      -6.206 -10.913 -25.908  0.00  0.00     0.090 H 
ATOM    127  H   SGN d1713      -5.216 -13.499 -22.650  0.00  0.00     0.210 HD
ATOM    128  H   SGN d1713     -10.412 -14.365 -25.768  0.00  0.00     0.231 HD
ATOM    129  H   SGN d1713      -6.835 -12.073 -23.571  0.00  0.00     0.089 H 
ATOM    130  H   SGN d1713      -8.963 -13.308 -26.443  0.00  0.00     0.131 H 
ATOM    131  C2  SGN d1711     -10.257  -4.584 -28.356  0.00  0.00     0.081 C 
ATOM    132  O4S SGN d1711      -7.988  -6.140 -22.328  0.00  0.00    -0.572 OA
ATOM    133  S1  SGN d1711     -10.042  -3.338 -30.692  0.00  0.00     0.156 S 
ATOM    134  C3  SGN d1711     -10.424  -6.036 -27.874  0.00  0.00     0.083 C 
ATOM    135  O2S SGN d1711      -8.849  -4.019 -31.094  0.00  0.00    -0.296 OA
ATOM    136  O3  SGN d1711      -9.725  -6.947 -28.728  0.00  0.00    -0.391 OA
ATOM    137  N   SGN d1711     -10.793  -4.353 -29.696  0.00  0.00    -0.210 NA
ATOM    138  C4  SGN d1711      -9.880  -6.127 -26.438  0.00  0.00     0.095 C 
ATOM    139  O4  SGN d1711     -10.376  -7.365 -25.883  0.00  0.00    -0.348 OA
ATOM    140  O6S SGN d1711      -6.741  -4.229 -22.945  0.00  0.00    -0.572 OA
ATOM    141  S2  SGN d1711      -8.033  -4.726 -22.716  0.00  0.00     0.251 S 
ATOM    142  O5  SGN d1711     -10.332  -3.796 -26.061  0.00  0.00    -0.349 OA
ATOM    143  C5  SGN d1711     -10.610  -5.103 -25.524  0.00  0.00     0.091 C 
ATOM    144  O1S SGN d1711      -9.820  -2.095 -29.980  0.00  0.00    -0.296 OA
ATOM    145  O6  SGN d1711      -8.791  -4.712 -24.061  0.00  0.00    -0.254 OA
ATOM    146  O5S SGN d1711      -8.941  -3.901 -21.698  0.00  0.00    -0.572 OA
ATOM    147  O3S SGN d1711     -11.086  -3.121 -31.874  0.00  0.00    -0.296 OA
ATOM    148  C1  SGN d1711     -10.865  -3.575 -27.363  0.00  0.00     0.150 C 
ATOM    149  C6  SGN d1711     -10.170  -5.058 -24.059  0.00  0.00     0.067 C 
ATOM    150  H   SGN d1711      -9.200  -4.426 -28.407  0.00  0.00     0.076 H 
ATOM    151  H   SGN d1711     -11.459  -6.305 -27.898  0.00  0.00     0.089 H 
ATOM    152  H   SGN d1711      -8.260  -4.117 -30.330  0.00  0.00     0.231 HD
ATOM    153  H   SGN d1711      -8.779  -6.730 -28.728  0.00  0.00     0.210 HD
ATOM    154  H   SGN d1711     -11.743  -4.002 -29.578  0.00  0.00     0.140 HD
ATOM    155  H   SGN d1711      -8.818  -6.002 -26.473  0.00  0.00     0.091 H 
ATOM    156  H   SGN d1711     -11.637  -5.403 -25.519  0.00  0.00     0.090 H 
ATOM    157  H   SGN d1711      -9.183  -2.242 -29.263  0.00  0.00     0.231 HD
ATOM    158  H   SGN d1711     -11.867  -2.656 -31.535  0.00  0.00     0.231 HD
ATOM    159  H   SGN d1711     -10.634  -2.561 -27.616  0.00  0.00     0.131 H 
ATOM    160  H   SGN d1711     -10.311  -6.015 -23.602  0.00  0.00     0.080 H 
ATOM    161  H   SGN d1711     -10.746  -4.347 -23.504  0.00  0.00     0.080 H 
ENDROOT
TORSDOF 50
ENDMDL
MODEL 6
REMARK VINA RESULT:      -9.8      4.491      8.461
REMARK  0 active torsions:
REMARK  status: ('A' for Active; 'I' for Inactive)
REMARK       I    between atoms: C2_1  and  O2_12 
REMARK       I    between atoms: C1_4  and  O4_37 
REMARK       I    between atoms: O2S_5  and  S1_43 
REMARK       I    between atoms: O2_11  and  C2_82 
REMARK       I    between atoms: O2_11  and  S_80 
REMARK       I    between atoms: O2_12  and  S_23 
REMARK       I    between atoms: C4_13  and  O4_37 
REMARK       I    between atoms: C2_14  and  N_39 
REMARK       I    between atoms: O1_18  and  C1_32 
REMARK       I    between atoms: C4_19  and  O4_53 
REMARK       I    between atoms: O6_20  and  C6_76 
REMARK       I    between atoms: O6_20  and  S2_95 
REMARK       I    between atoms: S1_21  and  N_39 
REMARK       I    between atoms: S1_21  and  O1S_79 
REMARK       I    between atoms: S1_21  and  O2S_30 
REMARK       I    between atoms: S1_21  and  O3S_94 
REMARK       I    between atoms: C3_24  and  O3_26 
REMARK       I    between atoms: C3_25  and  O3_36 
REMARK       I    between atoms: C6_27  and  C5_83 
REMARK       I    between atoms: C4_28  and  O4_51 
REMARK       I    between atoms: N_29  and  C2_40 
REMARK       I    between atoms: N_29  and  S1_71 
REMARK       I    between atoms: C5_31  and  C6_76 
REMARK       I    between atoms: O1S_35  and  S1_43 
REMARK       I    between atoms: O4_38  and  C4_93 
REMARK       I    between atoms: O4_38  and  C1_96 
REMARK       I    between atoms: O6_41  and  C6_54 
REMARK       I    between atoms: O6_41  and  S2_84 
REMARK       I    between atoms: C4_42  and  O4_49 
REMARK       I    between atoms: S1_43  and  N_47 
REMARK       I    between atoms: S1_43  and  O3S_69 
REMARK       I    between atoms: O2S_44  and  S1_71 
REMARK       I    between atoms: N_47  and  C2_56 
REMARK       I    between atoms: O2_48  and  C2_99 
REMARK       I    between atoms: O2_48  and  S_63 
REMARK       I    between atoms: O4_49  and  C1_57 
REMARK       I    between atoms: O4_51  and  C1_102 
REMARK       I    between atoms: O3S_52  and  S1_71 
REMARK       I    between atoms: O4_53  and  C1_105 
REMARK       I    between atoms: C6_54  and  C5_59 
REMARK       I    between atoms: O3_60  and  C3_100 
REMARK       I    between atoms: O1S_61  and  S1_71 
REMARK       I    between atoms: S2_62  and  O6_81 
REMARK       I    between atoms: C5_65  and  C6_89 
REMARK       I    between atoms: C6_67  and  C5_74 
REMARK       I    between atoms: C3_68  and  O3_104 
REMARK       I    between atoms: C3_70  and  O3_85 
REMARK       I    between atoms: C5_77  and  C6_101 
REMARK       I    between atoms: O6_81  and  C6_101 
REMARK       I    between atoms: C3_92  and  O3_98 
ROOT
ATOM      1  C2  IDS d1714     -24.311  -3.614 -22.111  0.00  0.00     0.132 C 
ATOM      2  O3S IDS d1714     -26.719  -5.105 -19.538  0.00  0.00    -0.572 OA
ATOM      3  C1  IDS d1714     -24.565  -3.680 -23.594  0.00  0.00     0.161 C 
ATOM      4  O2S IDS d1714     -24.427  -4.347 -19.249  0.00  0.00    -0.572 OA
ATOM      5  O2  IDS d1714     -25.449  -4.187 -21.448  0.00  0.00    -0.244 OA
ATOM      6  S   IDS d1714     -25.380  -5.030 -20.161  0.00  0.00     0.252 S 
ATOM      7  C6  IDS d1714     -26.502  -0.571 -24.215  0.00  0.00     0.203 C 
ATOM      8  O5  IDS d1714     -25.656  -2.794 -23.903  0.00  0.00    -0.343 OA
ATOM      9  C4  IDS d1714     -25.000  -1.125 -22.206  0.00  0.00    -0.005 C 
ATOM     10  O61 IDS d1714     -27.415  -1.152 -24.851  0.00  0.00    -0.646 OA
ATOM     11  C3  IDS d1714     -24.102  -2.200 -21.580  0.00  0.00     0.069 C 
ATOM     12  C5  IDS d1714     -25.372  -1.419 -23.654  0.00  0.00     0.127 C 
ATOM     13  O3  IDS d1714     -22.718  -1.840 -21.712  0.00  0.00    -0.393 OA
ATOM     14  O1S IDS d1714     -24.844  -6.325 -20.593  0.00  0.00    -0.572 OA
ATOM     15  O62 IDS d1714     -26.500   0.670 -24.038  0.00  0.00    -0.646 OA
ATOM     16  H   IDS d1714     -23.403  -4.147 -21.920  0.00  0.00     0.097 H 
ATOM     17  H   IDS d1714     -24.855  -4.640 -23.967  0.00  0.00     0.133 H 
ATOM     18  H   IDS d1714     -24.483  -0.189 -22.172  0.00  0.00     0.041 H 
ATOM     19  H   IDS d1714     -25.910  -1.104 -21.644  0.00  0.00     0.041 H 
ATOM     20  H   IDS d1714     -24.394  -2.230 -20.551  0.00  0.00     0.087 H 
ATOM     21  H   IDS d1714     -24.478  -1.145 -24.174  0.00  0.00     0.100 H 
ATOM     22  H   IDS d1714     -22.478  -1.820 -22.652  0.00  0.00     0.210 HD
ATOM     23  O5  SGN d1709      -5.390  -1.596 -29.584  0.00  0.00    -0.350 OA
ATOM     24  O2S SGN d1709      -4.972   3.086 -29.770  0.00  0.00    -0.296 OA
ATOM     25  O4S SGN d1709      -5.014  -6.776 -29.746  0.00  0.00    -0.572 OA
ATOM     26  O1  SGN d1709      -4.398  -0.134 -28.027  0.00  0.00    -0.369 OA
ATOM     27  O6  SGN d1709      -4.699  -4.355 -29.625  0.00  0.00    -0.254 OA
ATOM     28  C4  SGN d1709      -7.346  -2.034 -28.306  0.00  0.00     0.095 C 
ATOM     29  C5  SGN d1709      -5.934  -2.524 -28.644  0.00  0.00     0.091 C 
ATOM     30  C1  SGN d1709      -5.271  -0.243 -29.147  0.00  0.00     0.147 C 
ATOM     31  O5S SGN d1709      -2.887  -5.756 -30.694  0.00  0.00    -0.572 OA
ATOM     32  O1S SGN d1709      -6.735   4.125 -28.541  0.00  0.00    -0.296 OA
ATOM     33  S1  SGN d1709      -6.319   2.953 -29.278  0.00  0.00     0.156 S 
ATOM     34  N   SGN d1709      -6.511   1.692 -28.321  0.00  0.00    -0.210 NA
ATOM     35  O4  SGN d1709      -7.762  -2.903 -27.239  0.00  0.00    -0.348 OA
ATOM     36  C2  SGN d1709      -6.653   0.327 -28.813  0.00  0.00     0.081 C 
ATOM     37  C3  SGN d1709      -7.335  -0.602 -27.802  0.00  0.00     0.083 C 
ATOM     38  O3S SGN d1709      -7.268   2.708 -30.498  0.00  0.00    -0.296 OA
ATOM     39  C6  SGN d1709      -6.005  -3.881 -29.354  0.00  0.00     0.067 C 
ATOM     40  S2  SGN d1709      -4.509  -5.619 -30.484  0.00  0.00     0.251 S 
ATOM     41  O6S SGN d1709      -5.133  -5.374 -31.792  0.00  0.00    -0.572 OA
ATOM     42  O3  SGN d1709      -8.673  -0.132 -27.639  0.00  0.00    -0.391 OA
ATOM     43  H   SGN d1709      -4.370   3.238 -29.025  0.00  0.00     0.231 HD
ATOM     44  H   SGN d1709      -3.530  -0.500 -28.256  0.00  0.00     0.212 HD
ATOM     45  H   SGN d1709      -7.986  -2.054 -29.163  0.00  0.00     0.091 H 
ATOM     46  H   SGN d1709      -5.352  -2.607 -27.750  0.00  0.00     0.090 H 
ATOM     47  H   SGN d1709      -4.845   0.328 -29.945  0.00  0.00     0.131 H 
ATOM     48  H   SGN d1709      -6.137   4.263 -27.789  0.00  0.00     0.231 HD
ATOM     49  H   SGN d1709      -7.351   1.881 -27.775  0.00  0.00     0.140 HD
ATOM     50  H   SGN d1709      -7.273   0.374 -29.684  0.00  0.00     0.076 H 
ATOM     51  H   SGN d1709      -6.806  -0.594 -26.872  0.00  0.00     0.089 H 
ATOM     52  H   SGN d1709      -7.193   3.450 -31.119  0.00  0.00     0.231 HD
ATOM     53  H   SGN d1709      -6.513  -4.583 -28.727  0.00  0.00     0.080 H 
ATOM     54  H   SGN d1709      -6.535  -3.767 -30.275  0.00  0.00     0.080 H 
ATOM     55  H   SGN d1709      -9.129  -0.150 -28.496  0.00  0.00     0.210 HD
ATOM     56  O1S IDS d1712     -19.933   1.054 -24.885  0.00  0.00    -0.572 OA
ATOM     57  O2S IDS d1712     -18.071   1.283 -26.474  0.00  0.00    -0.572 OA
ATOM     58  O61 IDS d1712     -19.040  -6.199 -28.159  0.00  0.00    -0.646 OA
ATOM     59  O5  IDS d1712     -18.136  -3.796 -25.674  0.00  0.00    -0.340 OA
ATOM     60  C4  IDS d1712     -19.044  -3.287 -27.853  0.00  0.00     0.103 C 
ATOM     61  O2  IDS d1712     -18.893  -0.868 -25.773  0.00  0.00    -0.244 OA
ATOM     62  O4  IDS d1712     -20.314  -2.963 -27.275  0.00  0.00    -0.348 OA
ATOM     63  C1  IDS d1712     -17.323  -2.638 -25.559  0.00  0.00     0.161 C 
ATOM     64  S   IDS d1712     -19.301   0.568 -26.119  0.00  0.00     0.252 S 
ATOM     65  C5  IDS d1712     -18.276  -4.308 -27.004  0.00  0.00     0.152 C 
ATOM     66  O62 IDS d1712     -19.287  -6.198 -25.977  0.00  0.00    -0.646 OA
ATOM     67  O3S IDS d1712     -20.251   0.477 -27.268  0.00  0.00    -0.572 OA
ATOM     68  C6  IDS d1712     -18.913  -5.663 -27.036  0.00  0.00     0.206 C 
ATOM     69  C3  IDS d1712     -18.219  -2.008 -27.887  0.00  0.00     0.094 C 
ATOM     70  O3  IDS d1712     -17.017  -2.235 -28.637  0.00  0.00    -0.390 OA
ATOM     71  C2  IDS d1712     -17.829  -1.542 -26.461  0.00  0.00     0.134 C 
ATOM     72  H   IDS d1712     -19.206  -3.704 -28.825  0.00  0.00     0.092 H 
ATOM     73  H   IDS d1712     -17.361  -2.321 -24.538  0.00  0.00     0.133 H 
ATOM     74  H   IDS d1712     -17.300  -4.448 -27.422  0.00  0.00     0.104 H 
ATOM     75  H   IDS d1712     -18.817  -1.247 -28.344  0.00  0.00     0.091 H 
ATOM     76  H   IDS d1712     -16.493  -2.928 -28.205  0.00  0.00     0.210 HD
ATOM     77  H   IDS d1712     -17.026  -0.860 -26.653  0.00  0.00     0.097 H 
ATOM     78  O62 IDS d1710     -11.925  -0.989 -27.208  0.00  0.00    -0.646 OA
ATOM     79  O2  IDS d1710     -10.091  -5.677 -26.866  0.00  0.00    -0.244 OA
ATOM     80  O1S IDS d1710     -11.031  -7.519 -28.227  0.00  0.00    -0.572 OA
ATOM     81  C3  IDS d1710      -9.412  -4.270 -25.023  0.00  0.00     0.094 C 
ATOM     82  O3  IDS d1710      -8.258  -3.712 -24.394  0.00  0.00    -0.390 OA
ATOM     83  O4  IDS d1710     -11.800  -3.866 -25.315  0.00  0.00    -0.348 OA
ATOM     84  O5  IDS d1710     -10.108  -2.745 -27.316  0.00  0.00    -0.340 OA
ATOM     85  C6  IDS d1710     -11.297  -1.060 -26.121  0.00  0.00     0.206 C 
ATOM     86  O2S IDS d1710      -9.069  -6.286 -29.002  0.00  0.00    -0.572 OA
ATOM     87  C5  IDS d1710     -10.255  -2.142 -26.016  0.00  0.00     0.152 C 
ATOM     88  S   IDS d1710      -9.775  -6.868 -27.842  0.00  0.00     0.252 S 
ATOM     89  C2  IDS d1710      -9.077  -4.755 -26.441  0.00  0.00     0.134 C 
ATOM     90  O3S IDS d1710      -8.894  -7.721 -27.039  0.00  0.00    -0.572 OA
ATOM     91  C4  IDS d1710     -10.550  -3.246 -24.988  0.00  0.00     0.103 C 
ATOM     92  C1  IDS d1710      -8.989  -3.616 -27.471  0.00  0.00     0.161 C 
ATOM     93  O61 IDS d1710     -11.511  -0.307 -25.145  0.00  0.00    -0.646 OA
ATOM     94  H   IDS d1710      -9.743  -5.136 -24.487  0.00  0.00     0.091 H 
ATOM     95  H   IDS d1710      -7.968  -2.928 -24.888  0.00  0.00     0.210 HD
ATOM     96  H   IDS d1710      -9.362  -1.665 -25.669  0.00  0.00     0.104 H 
ATOM     97  H   IDS d1710      -8.111  -5.214 -26.395  0.00  0.00     0.097 H 
ATOM     98  H   IDS d1710     -10.618  -2.834 -24.003  0.00  0.00     0.092 H 
ATOM     99  H   IDS d1710      -9.001  -4.004 -28.468  0.00  0.00     0.133 H 
ATOM    100  C4  SGN d1713     -23.256  -3.522 -25.599  0.00  0.00     0.095 C 
ATOM    101  N   SGN d1713     -22.300  -1.359 -28.500  0.00  0.00    -0.210 NA
ATOM    102  O4S SGN d1713     -24.615  -7.405 -23.703  0.00  0.00    -0.572 OA
ATOM    103  O4  SGN d1713     -23.312  -3.287 -24.182  0.00  0.00    -0.348 OA
ATOM    104  C2  SGN d1713     -22.631  -2.577 -27.801  0.00  0.00     0.081 C 
ATOM    105  O6  SGN d1713     -23.623  -6.362 -25.796  0.00  0.00    -0.254 OA
ATOM    106  O2S SGN d1713     -23.655  -1.864 -30.416  0.00  0.00    -0.296 OA
ATOM    107  O3S SGN d1713     -22.335   0.352 -30.421  0.00  0.00    -0.296 OA
ATOM    108  C6  SGN d1713     -22.409  -5.893 -25.195  0.00  0.00     0.067 C 
ATOM    109  O5S SGN d1713     -23.168  -8.773 -25.139  0.00  0.00    -0.572 OA
ATOM    110  C5  SGN d1713     -22.089  -4.533 -25.737  0.00  0.00     0.091 C 
ATOM    111  O3  SGN d1713     -24.198  -1.477 -26.376  0.00  0.00    -0.391 OA
ATOM    112  O1S SGN d1713     -21.266  -1.854 -30.667  0.00  0.00    -0.296 OA
ATOM    113  S1  SGN d1713     -22.416  -1.217 -30.090  0.00  0.00     0.156 S 
ATOM    114  O5  SGN d1713     -21.814  -4.756 -27.139  0.00  0.00    -0.349 OA
ATOM    115  S2  SGN d1713     -24.278  -7.620 -25.125  0.00  0.00     0.251 S 
ATOM    116  O6S SGN d1713     -25.400  -7.926 -25.982  0.00  0.00    -0.572 OA
ATOM    117  C3  SGN d1713     -22.982  -2.231 -26.366  0.00  0.00     0.083 C 
ATOM    118  C1  SGN d1713     -21.474  -3.581 -27.861  0.00  0.00     0.150 C 
ATOM    119  H   SGN d1713     -24.175  -3.889 -26.005  0.00  0.00     0.091 H 
ATOM    120  H   SGN d1713     -21.328  -1.154 -28.267  0.00  0.00     0.140 HD
ATOM    121  H   SGN d1713     -23.472  -3.042 -28.273  0.00  0.00     0.076 H 
ATOM    122  H   SGN d1713     -24.388  -1.388 -29.997  0.00  0.00     0.231 HD
ATOM    123  H   SGN d1713     -23.104   0.803 -30.039  0.00  0.00     0.231 HD
ATOM    124  H   SGN d1713     -21.611  -6.568 -25.425  0.00  0.00     0.080 H 
ATOM    125  H   SGN d1713     -22.529  -5.838 -24.133  0.00  0.00     0.080 H 
ATOM    126  H   SGN d1713     -21.274  -4.103 -25.193  0.00  0.00     0.090 H 
ATOM    127  H   SGN d1713     -24.441  -1.245 -25.466  0.00  0.00     0.210 HD
ATOM    128  H   SGN d1713     -21.295  -2.805 -30.479  0.00  0.00     0.231 HD
ATOM    129  H   SGN d1713     -22.181  -1.683 -25.916  0.00  0.00     0.089 H 
ATOM    130  H   SGN d1713     -21.275  -3.855 -28.876  0.00  0.00     0.131 H 
ATOM    131  C2  SGN d1711     -13.494  -5.339 -24.554  0.00  0.00     0.081 C 
ATOM    132  O4S SGN d1711     -17.174  -0.171 -22.641  0.00  0.00    -0.572 OA
ATOM    133  S1  SGN d1711     -12.262  -7.644 -24.077  0.00  0.00     0.156 S 
ATOM    134  C3  SGN d1711     -14.579  -4.828 -25.518  0.00  0.00     0.083 C 
ATOM    135  O2S SGN d1711     -13.452  -8.359 -23.733  0.00  0.00    -0.296 OA
ATOM    136  O3  SGN d1711     -15.556  -5.842 -25.779  0.00  0.00    -0.391 OA
ATOM    137  N   SGN d1711     -12.743  -6.479 -25.077  0.00  0.00    -0.210 NA
ATOM    138  C4  SGN d1711     -15.246  -3.599 -24.878  0.00  0.00     0.095 C 
ATOM    139  O4  SGN d1711     -15.976  -2.928 -25.929  0.00  0.00    -0.348 OA
ATOM    140  O6S SGN d1711     -16.390  -1.109 -20.618  0.00  0.00    -0.572 OA
ATOM    141  S2  SGN d1711     -16.002  -0.532 -21.837  0.00  0.00     0.251 S 
ATOM    142  O5  SGN d1711     -13.259  -3.113 -23.614  0.00  0.00    -0.349 OA
ATOM    143  C5  SGN d1711     -14.175  -2.519 -24.553  0.00  0.00     0.091 C 
ATOM    144  O1S SGN d1711     -11.583  -7.021 -22.958  0.00  0.00    -0.296 OA
ATOM    145  O6  SGN d1711     -15.276  -1.615 -22.664  0.00  0.00    -0.254 OA
ATOM    146  O5S SGN d1711     -14.990   0.697 -21.750  0.00  0.00    -0.572 OA
ATOM    147  O3S SGN d1711     -11.233  -8.491 -24.948  0.00  0.00    -0.296 OA
ATOM    148  C1  SGN d1711     -12.525  -4.216 -24.133  0.00  0.00     0.150 C 
ATOM    149  C6  SGN d1711     -14.678  -1.233 -23.895  0.00  0.00     0.067 C 
ATOM    150  H   SGN d1711     -14.024  -5.679 -23.689  0.00  0.00     0.076 H 
ATOM    151  H   SGN d1711     -14.133  -4.566 -26.454  0.00  0.00     0.089 H 
ATOM    152  H   SGN d1711     -14.032  -7.787 -23.206  0.00  0.00     0.231 HD
ATOM    153  H   SGN d1711     -15.981  -6.104 -24.947  0.00  0.00     0.210 HD
ATOM    154  H   SGN d1711     -11.904  -6.103 -25.518  0.00  0.00     0.140 HD
ATOM    155  H   SGN d1711     -15.808  -3.926 -24.028  0.00  0.00     0.091 H 
ATOM    156  H   SGN d1711     -13.763  -2.231 -25.498  0.00  0.00     0.090 H 
ATOM    157  H   SGN d1711     -12.221  -6.508 -22.437  0.00  0.00     0.231 HD
ATOM    158  H   SGN d1711     -10.453  -7.950 -25.145  0.00  0.00     0.231 HD
ATOM    159  H   SGN d1711     -11.853  -4.523 -23.359  0.00  0.00     0.131 H 
ATOM    160  H   SGN d1711     -15.400  -0.754 -24.524  0.00  0.00     0.080 H 
ATOM    161  H   SGN d1711     -13.877  -0.541 -23.738  0.00  0.00     0.080 H 
ENDROOT
TORSDOF 50
ENDMDL
MODEL 7
REMARK VINA RESULT:      -9.4      2.909     15.458
REMARK  0 active torsions:
REMARK  status: ('A' for Active; 'I' for Inactive)
REMARK       I    between atoms: C2_1  and  O2_12 
REMARK       I    between atoms: C1_4  and  O4_37 
REMARK       I    between atoms: O2S_5  and  S1_43 
REMARK       I    between atoms: O2_11  and  C2_82 
REMARK       I    between atoms: O2_11  and  S_80 
REMARK       I    between atoms: O2_12  and  S_23 
REMARK       I    between atoms: C4_13  and  O4_37 
REMARK       I    between atoms: C2_14  and  N_39 
REMARK       I    between atoms: O1_18  and  C1_32 
REMARK       I    between atoms: C4_19  and  O4_53 
REMARK       I    between atoms: O6_20  and  C6_76 
REMARK       I    between atoms: O6_20  and  S2_95 
REMARK       I    between atoms: S1_21  and  N_39 
REMARK       I    between atoms: S1_21  and  O1S_79 
REMARK       I    between atoms: S1_21  and  O2S_30 
REMARK       I    between atoms: S1_21  and  O3S_94 
REMARK       I    between atoms: C3_24  and  O3_26 
REMARK       I    between atoms: C3_25  and  O3_36 
REMARK       I    between atoms: C6_27  and  C5_83 
REMARK       I    between atoms: C4_28  and  O4_51 
REMARK       I    between atoms: N_29  and  C2_40 
REMARK       I    between atoms: N_29  and  S1_71 
REMARK       I    between atoms: C5_31  and  C6_76 
REMARK       I    between atoms: O1S_35  and  S1_43 
REMARK       I    between atoms: O4_38  and  C4_93 
REMARK       I    between atoms: O4_38  and  C1_96 
REMARK       I    between atoms: O6_41  and  C6_54 
REMARK       I    between atoms: O6_41  and  S2_84 
REMARK       I    between atoms: C4_42  and  O4_49 
REMARK       I    between atoms: S1_43  and  N_47 
REMARK       I    between atoms: S1_43  and  O3S_69 
REMARK       I    between atoms: O2S_44  and  S1_71 
REMARK       I    between atoms: N_47  and  C2_56 
REMARK       I    between atoms: O2_48  and  C2_99 
REMARK       I    between atoms: O2_48  and  S_63 
REMARK       I    between atoms: O4_49  and  C1_57 
REMARK       I    between atoms: O4_51  and  C1_102 
REMARK       I    between atoms: O3S_52  and  S1_71 
REMARK       I    between atoms: O4_53  and  C1_105 
REMARK       I    between atoms: C6_54  and  C5_59 
REMARK       I    between atoms: O3_60  and  C3_100 
REMARK       I    between atoms: O1S_61  and  S1_71 
REMARK       I    between atoms: S2_62  and  O6_81 
REMARK       I    between atoms: C5_65  and  C6_89 
REMARK       I    between atoms: C6_67  and  C5_74 
REMARK       I    between atoms: C3_68  and  O3_104 
REMARK       I    between atoms: C3_70  and  O3_85 
REMARK       I    between atoms: C5_77  and  C6_101 
REMARK       I    between atoms: O6_81  and  C6_101 
REMARK       I    between atoms: C3_92  and  O3_98 
ROOT
ATOM      1  C2  IDS d1714      -2.860 -10.709 -26.584  0.00  0.00     0.132 C 
ATOM      2  O3S IDS d1714       0.516 -10.646 -28.385  0.00  0.00    -0.572 OA
ATOM      3  C1  IDS d1714      -3.633 -11.981 -26.353  0.00  0.00     0.161 C 
ATOM      4  O2S IDS d1714      -0.975  -8.805 -27.835  0.00  0.00    -0.572 OA
ATOM      5  O2  IDS d1714      -1.613 -11.063 -27.202  0.00  0.00    -0.244 OA
ATOM      6  S   IDS d1714      -0.897 -10.222 -28.275  0.00  0.00     0.252 S 
ATOM      7  C6  IDS d1714      -2.325 -13.131 -23.072  0.00  0.00     0.203 C 
ATOM      8  O5  IDS d1714      -2.938 -12.756 -25.361  0.00  0.00    -0.343 OA
ATOM      9  C4  IDS d1714      -2.205 -10.774 -24.085  0.00  0.00    -0.005 C 
ATOM     10  O61 IDS d1714      -2.091 -14.300 -23.466  0.00  0.00    -0.646 OA
ATOM     11  C3  IDS d1714      -2.564  -9.923 -25.311  0.00  0.00     0.069 C 
ATOM     12  C5  IDS d1714      -2.884 -12.137 -24.077  0.00  0.00     0.127 C 
ATOM     13  O3  IDS d1714      -3.670  -9.057 -25.016  0.00  0.00    -0.393 OA
ATOM     14  O1S IDS d1714      -1.684 -10.428 -29.496  0.00  0.00    -0.572 OA
ATOM     15  O62 IDS d1714      -2.116 -12.774 -21.889  0.00  0.00    -0.646 OA
ATOM     16  H   IDS d1714      -3.466 -10.075 -27.197  0.00  0.00     0.097 H 
ATOM     17  H   IDS d1714      -3.730 -12.619 -27.207  0.00  0.00     0.133 H 
ATOM     18  H   IDS d1714      -2.502 -10.242 -23.205  0.00  0.00     0.041 H 
ATOM     19  H   IDS d1714      -1.150 -10.946 -24.115  0.00  0.00     0.041 H 
ATOM     20  H   IDS d1714      -1.678  -9.359 -25.517  0.00  0.00     0.087 H 
ATOM     21  H   IDS d1714      -3.877 -11.891 -23.765  0.00  0.00     0.100 H 
ATOM     22  H   IDS d1714      -4.460  -9.590 -24.834  0.00  0.00     0.210 HD
ATOM     23  O5  SGN d1709     -21.882  -3.563 -24.340  0.00  0.00    -0.350 OA
ATOM     24  O2S SGN d1709     -21.954  -2.577 -19.741  0.00  0.00    -0.296 OA
ATOM     25  O4S SGN d1709     -22.675  -4.382 -29.409  0.00  0.00    -0.572 OA
ATOM     26  O1  SGN d1709     -21.511  -1.503 -23.260  0.00  0.00    -0.369 OA
ATOM     27  O6  SGN d1709     -22.647  -3.647 -27.078  0.00  0.00    -0.254 OA
ATOM     28  C4  SGN d1709     -19.606  -3.971 -24.892  0.00  0.00     0.095 C 
ATOM     29  C5  SGN d1709     -20.933  -3.392 -25.394  0.00  0.00     0.091 C 
ATOM     30  C1  SGN d1709     -21.583  -2.917 -23.103  0.00  0.00     0.147 C 
ATOM     31  O5S SGN d1709     -24.822  -3.514 -28.359  0.00  0.00    -0.572 OA
ATOM     32  O1S SGN d1709     -19.741  -2.626 -18.847  0.00  0.00    -0.296 OA
ATOM     33  S1  SGN d1709     -20.625  -3.113 -19.883  0.00  0.00     0.156 S 
ATOM     34  N   SGN d1709     -19.958  -2.761 -21.287  0.00  0.00    -0.210 NA
ATOM     35  O4  SGN d1709     -18.667  -3.612 -25.920  0.00  0.00    -0.348 OA
ATOM     36  C2  SGN d1709     -20.276  -3.465 -22.524  0.00  0.00     0.081 C 
ATOM     37  C3  SGN d1709     -19.176  -3.331 -23.584  0.00  0.00     0.083 C 
ATOM     38  O3S SGN d1709     -20.715  -4.674 -19.835  0.00  0.00    -0.296 OA
ATOM     39  C6  SGN d1709     -21.445  -4.209 -26.585  0.00  0.00     0.067 C 
ATOM     40  S2  SGN d1709     -23.445  -4.388 -28.167  0.00  0.00     0.251 S 
ATOM     41  O6S SGN d1709     -23.802  -5.714 -27.642  0.00  0.00    -0.572 OA
ATOM     42  O3  SGN d1709     -18.020  -3.995 -23.073  0.00  0.00    -0.391 OA
ATOM     43  H   SGN d1709     -21.916  -1.608 -19.769  0.00  0.00     0.231 HD
ATOM     44  H   SGN d1709     -22.346  -1.175 -23.628  0.00  0.00     0.212 HD
ATOM     45  H   SGN d1709     -19.677  -5.023 -24.711  0.00  0.00     0.091 H 
ATOM     46  H   SGN d1709     -20.801  -2.369 -25.679  0.00  0.00     0.090 H 
ATOM     47  H   SGN d1709     -22.378  -3.126 -22.419  0.00  0.00     0.131 H 
ATOM     48  H   SGN d1709     -19.697  -1.658 -18.890  0.00  0.00     0.231 HD
ATOM     49  H   SGN d1709     -18.953  -2.869 -21.154  0.00  0.00     0.140 HD
ATOM     50  H   SGN d1709     -20.366  -4.502 -22.276  0.00  0.00     0.076 H 
ATOM     51  H   SGN d1709     -18.974  -2.299 -23.783  0.00  0.00     0.089 H 
ATOM     52  H   SGN d1709     -21.117  -4.950 -18.996  0.00  0.00     0.231 HD
ATOM     53  H   SGN d1709     -20.708  -4.204 -27.361  0.00  0.00     0.080 H 
ATOM     54  H   SGN d1709     -21.631  -5.213 -26.268  0.00  0.00     0.080 H 
ATOM     55  H   SGN d1709     -18.232  -4.927 -22.902  0.00  0.00     0.210 HD
ATOM     56  O1S IDS d1712      -7.611  -9.062 -21.750  0.00  0.00    -0.572 OA
ATOM     57  O2S IDS d1712     -10.033  -8.984 -21.338  0.00  0.00    -0.572 OA
ATOM     58  O61 IDS d1712     -10.974 -12.219 -28.295  0.00  0.00    -0.646 OA
ATOM     59  O5  IDS d1712      -9.861  -9.360 -26.464  0.00  0.00    -0.340 OA
ATOM     60  C4  IDS d1712     -10.545 -11.465 -25.499  0.00  0.00     0.103 C 
ATOM     61  O2  IDS d1712      -9.124  -9.392 -23.529  0.00  0.00    -0.244 OA
ATOM     62  O4  IDS d1712      -9.183 -11.805 -25.213  0.00  0.00    -0.348 OA
ATOM     63  C1  IDS d1712     -10.313  -8.536 -25.399  0.00  0.00     0.161 C 
ATOM     64  S   IDS d1712      -8.927  -9.651 -22.031  0.00  0.00     0.252 S 
ATOM     65  C5  IDS d1712     -10.657 -10.526 -26.706  0.00  0.00     0.152 C 
ATOM     66  O62 IDS d1712      -9.373 -10.768 -28.691  0.00  0.00    -0.646 OA
ATOM     67  O3S IDS d1712      -8.959 -11.132 -21.846  0.00  0.00    -0.572 OA
ATOM     68  C6  IDS d1712     -10.300 -11.209 -27.989  0.00  0.00     0.206 C 
ATOM     69  C3  IDS d1712     -11.093 -10.722 -24.289  0.00  0.00     0.094 C 
ATOM     70  O3  IDS d1712     -12.507 -10.535 -24.443  0.00  0.00    -0.390 OA
ATOM     71  C2  IDS d1712     -10.429  -9.330 -24.124  0.00  0.00     0.134 C 
ATOM     72  H   IDS d1712     -11.085 -12.364 -25.714  0.00  0.00     0.092 H 
ATOM     73  H   IDS d1712      -9.598  -7.749 -25.279  0.00  0.00     0.133 H 
ATOM     74  H   IDS d1712     -11.678 -10.225 -26.824  0.00  0.00     0.104 H 
ATOM     75  H   IDS d1712     -10.877 -11.308 -23.421  0.00  0.00     0.091 H 
ATOM     76  H   IDS d1712     -12.679 -10.002 -25.234  0.00  0.00     0.210 HD
ATOM     77  H   IDS d1712     -11.108  -8.826 -23.468  0.00  0.00     0.097 H 
ATOM     78  O62 IDS d1710     -15.343  -5.945 -23.798  0.00  0.00    -0.646 OA
ATOM     79  O2  IDS d1710     -16.877  -5.354 -28.569  0.00  0.00    -0.244 OA
ATOM     80  O1S IDS d1710     -17.189  -7.305 -30.060  0.00  0.00    -0.572 OA
ATOM     81  C3  IDS d1710     -16.087  -3.297 -27.578  0.00  0.00     0.094 C 
ATOM     82  O3  IDS d1710     -16.512  -1.981 -27.219  0.00  0.00    -0.390 OA
ATOM     83  O4  IDS d1710     -14.436  -4.991 -26.982  0.00  0.00    -0.348 OA
ATOM     84  O5  IDS d1710     -16.927  -5.164 -25.608  0.00  0.00    -0.340 OA
ATOM     85  C6  IDS d1710     -15.120  -4.748 -24.110  0.00  0.00     0.206 C 
ATOM     86  O2S IDS d1710     -19.082  -6.378 -28.824  0.00  0.00    -0.572 OA
ATOM     87  C5  IDS d1710     -15.926  -4.190 -25.254  0.00  0.00     0.152 C 
ATOM     88  S   IDS d1710     -17.841  -6.086 -29.571  0.00  0.00     0.252 S 
ATOM     89  C2  IDS d1710     -17.298  -4.214 -27.806  0.00  0.00     0.134 C 
ATOM     90  O3S IDS d1710     -18.055  -5.077 -30.612  0.00  0.00    -0.572 OA
ATOM     91  C4  IDS d1710     -15.123  -3.825 -26.511  0.00  0.00     0.103 C 
ATOM     92  C1  IDS d1710     -17.943  -4.710 -26.500  0.00  0.00     0.161 C 
ATOM     93  O61 IDS d1710     -14.267  -4.029 -23.544  0.00  0.00    -0.646 OA
ATOM     94  H   IDS d1710     -15.557  -3.274 -28.507  0.00  0.00     0.091 H 
ATOM     95  H   IDS d1710     -16.990  -2.015 -26.375  0.00  0.00     0.210 HD
ATOM     96  H   IDS d1710     -16.341  -3.267 -24.905  0.00  0.00     0.104 H 
ATOM     97  H   IDS d1710     -18.036  -3.636 -28.323  0.00  0.00     0.097 H 
ATOM     98  H   IDS d1710     -14.401  -3.067 -26.290  0.00  0.00     0.092 H 
ATOM     99  H   IDS d1710     -18.610  -5.524 -26.692  0.00  0.00     0.133 H 
ATOM    100  C4  SGN d1713      -5.912 -12.581 -25.900  0.00  0.00     0.095 C 
ATOM    101  N   SGN d1713      -8.347 -13.707 -23.290  0.00  0.00    -0.210 NA
ATOM    102  O4S SGN d1713      -3.956 -12.771 -29.981  0.00  0.00    -0.572 OA
ATOM    103  O4  SGN d1713      -4.934 -11.529 -25.933  0.00  0.00    -0.348 OA
ATOM    104  C2  SGN d1713      -7.738 -13.628 -24.596  0.00  0.00     0.081 C 
ATOM    105  O6  SGN d1713      -5.982 -13.481 -28.625  0.00  0.00    -0.254 OA
ATOM    106  O2S SGN d1713      -8.601 -16.093 -23.343  0.00  0.00    -0.296 OA
ATOM    107  O3S SGN d1713      -9.432 -14.836 -21.249  0.00  0.00    -0.296 OA
ATOM    108  C6  SGN d1713      -6.476 -12.164 -28.351  0.00  0.00     0.067 C 
ATOM    109  O5S SGN d1713      -6.090 -13.140 -31.139  0.00  0.00    -0.572 OA
ATOM    110  C5  SGN d1713      -6.965 -12.109 -26.935  0.00  0.00     0.091 C 
ATOM    111  O3  SGN d1713      -5.542 -13.394 -23.692  0.00  0.00    -0.391 OA
ATOM    112  O1S SGN d1713     -10.573 -14.725 -23.429  0.00  0.00    -0.296 OA
ATOM    113  S1  SGN d1713      -9.279 -14.930 -22.845  0.00  0.00     0.156 S 
ATOM    114  O5  SGN d1713      -8.098 -13.005 -26.906  0.00  0.00    -0.349 OA
ATOM    115  S2  SGN d1713      -5.150 -13.641 -29.945  0.00  0.00     0.251 S 
ATOM    116  O6S SGN d1713      -4.879 -15.058 -30.014  0.00  0.00    -0.572 OA
ATOM    117  C3  SGN d1713      -6.516 -12.734 -24.506  0.00  0.00     0.083 C 
ATOM    118  C1  SGN d1713      -8.732 -13.103 -25.639  0.00  0.00     0.150 C 
ATOM    119  H   SGN d1713      -5.507 -13.545 -26.127  0.00  0.00     0.091 H 
ATOM    120  H   SGN d1713      -8.917 -12.866 -23.192  0.00  0.00     0.140 HD
ATOM    121  H   SGN d1713      -7.444 -14.607 -24.912  0.00  0.00     0.076 H 
ATOM    122  H   SGN d1713      -7.737 -16.174 -22.910  0.00  0.00     0.231 HD
ATOM    123  H   SGN d1713      -8.567 -14.972 -20.833  0.00  0.00     0.231 HD
ATOM    124  H   SGN d1713      -7.283 -11.938 -29.018  0.00  0.00     0.080 H 
ATOM    125  H   SGN d1713      -5.693 -11.448 -28.491  0.00  0.00     0.080 H 
ATOM    126  H   SGN d1713      -7.197 -11.099 -26.665  0.00  0.00     0.090 H 
ATOM    127  H   SGN d1713      -4.750 -12.838 -23.621  0.00  0.00     0.210 HD
ATOM    128  H   SGN d1713     -10.504 -14.778 -24.396  0.00  0.00     0.231 HD
ATOM    129  H   SGN d1713      -6.788 -11.781 -24.102  0.00  0.00     0.089 H 
ATOM    130  H   SGN d1713      -9.562 -13.773 -25.728  0.00  0.00     0.131 H 
ATOM    131  C2  SGN d1711     -12.774  -5.797 -28.468  0.00  0.00     0.081 C 
ATOM    132  O4S SGN d1711      -8.343  -5.836 -23.540  0.00  0.00    -0.572 OA
ATOM    133  S1  SGN d1711     -13.578  -5.065 -30.891  0.00  0.00     0.156 S 
ATOM    134  C3  SGN d1711     -12.536  -7.121 -27.720  0.00  0.00     0.083 C 
ATOM    135  O2S SGN d1711     -12.509  -5.715 -31.585  0.00  0.00    -0.296 OA
ATOM    136  O3  SGN d1711     -12.044  -8.133 -28.605  0.00  0.00    -0.391 OA
ATOM    137  N   SGN d1711     -13.770  -5.903 -29.532  0.00  0.00    -0.210 NA
ATOM    138  C4  SGN d1711     -11.521  -6.859 -26.595  0.00  0.00     0.095 C 
ATOM    139  O4  SGN d1711     -11.596  -7.986 -25.695  0.00  0.00    -0.348 OA
ATOM    140  O6S SGN d1711      -7.699  -4.004 -24.889  0.00  0.00    -0.572 OA
ATOM    141  S2  SGN d1711      -8.739  -4.546 -24.116  0.00  0.00     0.251 S 
ATOM    142  O5  SGN d1711     -12.169  -4.546 -26.477  0.00  0.00    -0.349 OA
ATOM    143  C5  SGN d1711     -12.038  -5.726 -25.662  0.00  0.00     0.091 C 
ATOM    144  O1S SGN d1711     -13.319  -3.685 -30.532  0.00  0.00    -0.296 OA
ATOM    145  O6  SGN d1711      -9.909  -4.882 -25.066  0.00  0.00    -0.254 OA
ATOM    146  O5S SGN d1711      -9.353  -3.602 -22.989  0.00  0.00    -0.572 OA
ATOM    147  O3S SGN d1711     -14.988  -5.193 -31.620  0.00  0.00    -0.296 OA
ATOM    148  C1  SGN d1711     -13.148  -4.653 -27.505  0.00  0.00     0.150 C 
ATOM    149  C6  SGN d1711     -11.130  -5.333 -24.495  0.00  0.00     0.067 C 
ATOM    150  H   SGN d1711     -11.838  -5.566 -28.932  0.00  0.00     0.076 H 
ATOM    151  H   SGN d1711     -13.461  -7.474 -27.313  0.00  0.00     0.089 H 
ATOM    152  H   SGN d1711     -11.684  -5.598 -31.089  0.00  0.00     0.231 HD
ATOM    153  H   SGN d1711     -11.204  -7.843 -28.993  0.00  0.00     0.210 HD
ATOM    154  H   SGN d1711     -14.663  -5.615 -29.131  0.00  0.00     0.140 HD
ATOM    155  H   SGN d1711     -10.570  -6.655 -27.042  0.00  0.00     0.091 H 
ATOM    156  H   SGN d1711     -12.939  -6.103 -25.227  0.00  0.00     0.090 H 
ATOM    157  H   SGN d1711     -12.458  -3.621 -30.089  0.00  0.00     0.231 HD
ATOM    158  H   SGN d1711     -15.665  -4.733 -31.099  0.00  0.00     0.231 HD
ATOM    159  H   SGN d1711     -13.180  -3.701 -27.992  0.00  0.00     0.131 H 
ATOM    160  H   SGN d1711     -10.953  -6.179 -23.864  0.00  0.00     0.080 H 
ATOM    161  H   SGN d1711     -11.581  -4.571 -23.895  0.00  0.00     0.080 H 
ENDROOT
TORSDOF 50
ENDMDL
MODEL 8
REMARK VINA RESULT:      -9.4      3.267     15.310
REMARK  0 active torsions:
REMARK  status: ('A' for Active; 'I' for Inactive)
REMARK       I    between atoms: C2_1  and  O2_12 
REMARK       I    between atoms: C1_4  and  O4_37 
REMARK       I    between atoms: O2S_5  and  S1_43 
REMARK       I    between atoms: O2_11  and  C2_82 
REMARK       I    between atoms: O2_11  and  S_80 
REMARK       I    between atoms: O2_12  and  S_23 
REMARK       I    between atoms: C4_13  and  O4_37 
REMARK       I    between atoms: C2_14  and  N_39 
REMARK       I    between atoms: O1_18  and  C1_32 
REMARK       I    between atoms: C4_19  and  O4_53 
REMARK       I    between atoms: O6_20  and  C6_76 
REMARK       I    between atoms: O6_20  and  S2_95 
REMARK       I    between atoms: S1_21  and  N_39 
REMARK       I    between atoms: S1_21  and  O1S_79 
REMARK       I    between atoms: S1_21  and  O2S_30 
REMARK       I    between atoms: S1_21  and  O3S_94 
REMARK       I    between atoms: C3_24  and  O3_26 
REMARK       I    between atoms: C3_25  and  O3_36 
REMARK       I    between atoms: C6_27  and  C5_83 
REMARK       I    between atoms: C4_28  and  O4_51 
REMARK       I    between atoms: N_29  and  C2_40 
REMARK       I    between atoms: N_29  and  S1_71 
REMARK       I    between atoms: C5_31  and  C6_76 
REMARK       I    between atoms: O1S_35  and  S1_43 
REMARK       I    between atoms: O4_38  and  C4_93 
REMARK       I    between atoms: O4_38  and  C1_96 
REMARK       I    between atoms: O6_41  and  C6_54 
REMARK       I    between atoms: O6_41  and  S2_84 
REMARK       I    between atoms: C4_42  and  O4_49 
REMARK       I    between atoms: S1_43  and  N_47 
REMARK       I    between atoms: S1_43  and  O3S_69 
REMARK       I    between atoms: O2S_44  and  S1_71 
REMARK       I    between atoms: N_47  and  C2_56 
REMARK       I    between atoms: O2_48  and  C2_99 
REMARK       I    between atoms: O2_48  and  S_63 
REMARK       I    between atoms: O4_49  and  C1_57 
REMARK       I    between atoms: O4_51  and  C1_102 
REMARK       I    between atoms: O3S_52  and  S1_71 
REMARK       I    between atoms: O4_53  and  C1_105 
REMARK       I    between atoms: C6_54  and  C5_59 
REMARK       I    between atoms: O3_60  and  C3_100 
REMARK       I    between atoms: O1S_61  and  S1_71 
REMARK       I    between atoms: S2_62  and  O6_81 
REMARK       I    between atoms: C5_65  and  C6_89 
REMARK       I    between atoms: C6_67  and  C5_74 
REMARK       I    between atoms: C3_68  and  O3_104 
REMARK       I    between atoms: C3_70  and  O3_85 
REMARK       I    between atoms: C5_77  and  C6_101 
REMARK       I    between atoms: O6_81  and  C6_101 
REMARK       I    between atoms: C3_92  and  O3_98 
ROOT
ATOM      1  C2  IDS d1714      -4.077 -10.948 -27.678  0.00  0.00     0.132 C 
ATOM      2  O3S IDS d1714      -1.136 -10.895 -30.128  0.00  0.00    -0.572 OA
ATOM      3  C1  IDS d1714      -4.595 -12.219 -27.059  0.00  0.00     0.161 C 
ATOM      4  O2S IDS d1714      -2.760  -9.155 -29.627  0.00  0.00    -0.572 OA
ATOM      5  O2  IDS d1714      -2.925 -11.285 -28.468  0.00  0.00    -0.244 OA
ATOM      6  S   IDS d1714      -2.552 -10.616 -29.803  0.00  0.00     0.252 S 
ATOM      7  C6  IDS d1714      -2.550 -12.501 -23.971  0.00  0.00     0.203 C 
ATOM      8  O5  IDS d1714      -3.621 -12.686 -26.109  0.00  0.00    -0.343 OA
ATOM      9  C4  IDS d1714      -2.972 -10.411 -25.404  0.00  0.00    -0.005 C 
ATOM     10  O61 IDS d1714      -2.219 -13.693 -24.182  0.00  0.00    -0.646 OA
ATOM     11  C3  IDS d1714      -3.673  -9.884 -26.663  0.00  0.00     0.069 C 
ATOM     12  C5  IDS d1714      -3.426 -11.809 -25.002  0.00  0.00     0.127 C 
ATOM     13  O3  IDS d1714      -4.824  -9.101 -26.308  0.00  0.00    -0.393 OA
ATOM     14  O1S IDS d1714      -3.510 -11.160 -30.772  0.00  0.00    -0.572 OA
ATOM     15  O62 IDS d1714      -2.183 -11.881 -22.945  0.00  0.00    -0.646 OA
ATOM     16  H   IDS d1714      -4.872 -10.528 -28.257  0.00  0.00     0.097 H 
ATOM     17  H   IDS d1714      -4.749 -13.030 -27.741  0.00  0.00     0.133 H 
ATOM     18  H   IDS d1714      -3.179  -9.742 -24.595  0.00  0.00     0.041 H 
ATOM     19  H   IDS d1714      -1.927 -10.469 -25.623  0.00  0.00     0.041 H 
ATOM     20  H   IDS d1714      -2.934  -9.282 -27.151  0.00  0.00     0.087 H 
ATOM     21  H   IDS d1714      -4.370 -11.612 -24.540  0.00  0.00     0.100 H 
ATOM     22  H   IDS d1714      -5.477  -9.668 -25.869  0.00  0.00     0.210 HD
ATOM     23  O5  SGN d1709     -23.216  -5.626 -22.856  0.00  0.00    -0.350 OA
ATOM     24  O2S SGN d1709     -22.591  -3.706 -18.607  0.00  0.00    -0.296 OA
ATOM     25  O4S SGN d1709     -24.794  -7.578 -27.405  0.00  0.00    -0.572 OA
ATOM     26  O1  SGN d1709     -22.967  -3.357 -22.278  0.00  0.00    -0.369 OA
ATOM     27  O6  SGN d1709     -24.450  -6.369 -25.308  0.00  0.00    -0.254 OA
ATOM     28  C4  SGN d1709     -21.046  -5.888 -23.788  0.00  0.00     0.095 C 
ATOM     29  C5  SGN d1709     -22.513  -5.578 -24.098  0.00  0.00     0.091 C 
ATOM     30  C1  SGN d1709     -22.796  -4.705 -21.850  0.00  0.00     0.147 C 
ATOM     31  O5S SGN d1709     -26.817  -6.750 -26.107  0.00  0.00    -0.572 OA
ATOM     32  O1S SGN d1709     -20.270  -3.321 -18.204  0.00  0.00    -0.296 OA
ATOM     33  S1  SGN d1709     -21.246  -4.110 -18.923  0.00  0.00     0.156 S 
ATOM     34  N   SGN d1709     -20.908  -3.991 -20.476  0.00  0.00    -0.210 NA
ATOM     35  O4  SGN d1709     -20.376  -5.653 -25.037  0.00  0.00    -0.348 OA
ATOM     36  C2  SGN d1709     -21.338  -4.970 -21.467  0.00  0.00     0.081 C 
ATOM     37  C3  SGN d1709     -20.484  -4.943 -22.740  0.00  0.00     0.083 C 
ATOM     38  O3S SGN d1709     -21.090  -5.626 -18.569  0.00  0.00    -0.296 OA
ATOM     39  C6  SGN d1709     -23.107  -6.679 -24.984  0.00  0.00     0.067 C 
ATOM     40  S2  SGN d1709     -25.314  -7.406 -26.049  0.00  0.00     0.251 S 
ATOM     41  O6S SGN d1709     -25.365  -8.623 -25.225  0.00  0.00    -0.572 OA
ATOM     42  O3  SGN d1709     -19.167  -5.353 -22.369  0.00  0.00    -0.391 OA
ATOM     43  H   SGN d1709     -22.705  -2.766 -18.821  0.00  0.00     0.231 HD
ATOM     44  H   SGN d1709     -23.895  -3.208 -22.515  0.00  0.00     0.212 HD
ATOM     45  H   SGN d1709     -20.924  -6.880 -23.404  0.00  0.00     0.091 H 
ATOM     46  H   SGN d1709     -22.591  -4.630 -24.588  0.00  0.00     0.090 H 
ATOM     47  H   SGN d1709     -23.412  -4.851 -20.987  0.00  0.00     0.131 H 
ATOM     48  H   SGN d1709     -20.380  -2.385 -18.433  0.00  0.00     0.231 HD
ATOM     49  H   SGN d1709     -19.891  -3.957 -20.539  0.00  0.00     0.140 HD
ATOM     50  H   SGN d1709     -21.225  -5.935 -21.018  0.00  0.00     0.076 H 
ATOM     51  H   SGN d1709     -20.479  -3.961 -23.164  0.00  0.00     0.089 H 
ATOM     52  H   SGN d1709     -21.285  -5.761 -17.628  0.00  0.00     0.231 HD
ATOM     53  H   SGN d1709     -22.534  -6.757 -25.884  0.00  0.00     0.080 H 
ATOM     54  H   SGN d1709     -23.079  -7.608 -24.454  0.00  0.00     0.080 H 
ATOM     55  H   SGN d1709     -19.202  -6.245 -21.988  0.00  0.00     0.210 HD
ATOM     56  O1S IDS d1712      -8.053  -8.850 -22.345  0.00  0.00    -0.572 OA
ATOM     57  O2S IDS d1712     -10.342  -8.954 -21.456  0.00  0.00    -0.572 OA
ATOM     58  O61 IDS d1712     -12.047 -13.668 -27.340  0.00  0.00    -0.646 OA
ATOM     59  O5  IDS d1712     -11.059 -10.382 -26.344  0.00  0.00    -0.340 OA
ATOM     60  C4  IDS d1712     -11.231 -12.298 -24.885  0.00  0.00     0.103 C 
ATOM     61  O2  IDS d1712      -9.799  -9.713 -23.675  0.00  0.00    -0.244 OA
ATOM     62  O4  IDS d1712      -9.804 -12.418 -24.834  0.00  0.00    -0.348 OA
ATOM     63  C1  IDS d1712     -11.426  -9.407 -25.379  0.00  0.00     0.161 C 
ATOM     64  S   IDS d1712      -9.294  -9.627 -22.230  0.00  0.00     0.252 S 
ATOM     65  C5  IDS d1712     -11.702 -11.653 -26.194  0.00  0.00     0.152 C 
ATOM     66  O62 IDS d1712     -10.782 -12.167 -28.325  0.00  0.00    -0.646 OA
ATOM     67  O3S IDS d1712      -9.069 -11.030 -21.772  0.00  0.00    -0.572 OA
ATOM     68  C6  IDS d1712     -11.488 -12.549 -27.375  0.00  0.00     0.206 C 
ATOM     69  C3  IDS d1712     -11.652 -11.381 -23.745  0.00  0.00     0.094 C 
ATOM     70  O3  IDS d1712     -13.083 -11.389 -23.631  0.00  0.00    -0.390 OA
ATOM     71  C2  IDS d1712     -11.185  -9.922 -23.984  0.00  0.00     0.134 C 
ATOM     72  H   IDS d1712     -11.660 -13.276 -24.812  0.00  0.00     0.092 H 
ATOM     73  H   IDS d1712     -10.826  -8.538 -25.559  0.00  0.00     0.133 H 
ATOM     74  H   IDS d1712     -12.760 -11.498 -26.149  0.00  0.00     0.104 H 
ATOM     75  H   IDS d1712     -11.195 -11.744 -22.849  0.00  0.00     0.091 H 
ATOM     76  H   IDS d1712     -13.474 -11.056 -24.454  0.00  0.00     0.210 HD
ATOM     77  H   IDS d1712     -11.800  -9.369 -23.305  0.00  0.00     0.097 H 
ATOM     78  O62 IDS d1710     -16.407  -7.106 -23.266  0.00  0.00    -0.646 OA
ATOM     79  O2  IDS d1710     -18.861  -7.708 -27.634  0.00  0.00    -0.244 OA
ATOM     80  O1S IDS d1710     -19.146  -9.951 -28.640  0.00  0.00    -0.572 OA
ATOM     81  C3  IDS d1710     -18.220  -5.414 -27.229  0.00  0.00     0.094 C 
ATOM     82  O3  IDS d1710     -18.764  -4.107 -27.038  0.00  0.00    -0.390 OA
ATOM     83  O4  IDS d1710     -16.253  -6.751 -26.690  0.00  0.00    -0.348 OA
ATOM     84  O5  IDS d1710     -18.395  -6.904 -24.816  0.00  0.00    -0.340 OA
ATOM     85  C6  IDS d1710     -16.427  -5.985 -23.834  0.00  0.00     0.206 C 
ATOM     86  O2S IDS d1710     -20.897  -8.998 -27.228  0.00  0.00    -0.572 OA
ATOM     87  C5  IDS d1710     -17.504  -5.773 -24.866  0.00  0.00     0.152 C 
ATOM     88  S   IDS d1710     -19.871  -8.736 -28.258  0.00  0.00     0.252 S 
ATOM     89  C2  IDS d1710     -19.301  -6.486 -27.024  0.00  0.00     0.134 C 
ATOM     90  O3S IDS d1710     -20.422  -7.999 -29.400  0.00  0.00    -0.572 OA
ATOM     91  C4  IDS d1710     -17.009  -5.595 -26.309  0.00  0.00     0.103 C 
ATOM     92  C1  IDS d1710     -19.614  -6.763 -25.544  0.00  0.00     0.161 C 
ATOM     93  O61 IDS d1710     -15.603  -5.073 -23.602  0.00  0.00    -0.646 OA
ATOM     94  H   IDS d1710     -17.879  -5.529 -28.237  0.00  0.00     0.091 H 
ATOM     95  H   IDS d1710     -19.069  -4.014 -26.122  0.00  0.00     0.210 HD
ATOM     96  H   IDS d1710     -17.981  -4.849 -24.615  0.00  0.00     0.104 H 
ATOM     97  H   IDS d1710     -20.199  -6.115 -27.473  0.00  0.00     0.097 H 
ATOM     98  H   IDS d1710     -16.380  -4.732 -26.388  0.00  0.00     0.092 H 
ATOM     99  H   IDS d1710     -20.175  -7.667 -25.437  0.00  0.00     0.133 H 
ATOM    100  C4  SGN d1713      -6.636 -12.957 -26.035  0.00  0.00     0.095 C 
ATOM    101  N   SGN d1713      -8.354 -13.768 -22.811  0.00  0.00    -0.210 NA
ATOM    102  O4S SGN d1713      -5.455 -13.788 -30.329  0.00  0.00    -0.572 OA
ATOM    103  O4  SGN d1713      -5.849 -11.835 -26.467  0.00  0.00    -0.348 OA
ATOM    104  C2  SGN d1713      -8.014 -13.900 -24.207  0.00  0.00     0.081 C 
ATOM    105  O6  SGN d1713      -7.069 -14.415 -28.470  0.00  0.00    -0.254 OA
ATOM    106  O2S SGN d1713      -8.253 -16.125 -22.367  0.00  0.00    -0.296 OA
ATOM    107  O3S SGN d1713      -8.864 -14.553 -20.414  0.00  0.00    -0.296 OA
ATOM    108  C6  SGN d1713      -7.696 -13.132 -28.347  0.00  0.00     0.067 C 
ATOM    109  O5S SGN d1713      -7.685 -14.625 -30.925  0.00  0.00    -0.572 OA
ATOM    110  C5  SGN d1713      -7.919 -12.833 -26.896  0.00  0.00     0.091 C 
ATOM    111  O3  SGN d1713      -5.750 -13.240 -23.842  0.00  0.00    -0.391 OA
ATOM    112  O1S SGN d1713     -10.390 -15.031 -22.289  0.00  0.00    -0.296 OA
ATOM    113  S1  SGN d1713      -8.994 -14.965 -21.961  0.00  0.00     0.156 S 
ATOM    114  O5  SGN d1713      -8.881 -13.822 -26.464  0.00  0.00    -0.349 OA
ATOM    115  S2  SGN d1713      -6.478 -14.757 -29.883  0.00  0.00     0.251 S 
ATOM    116  O6S SGN d1713      -6.015 -16.118 -29.744  0.00  0.00    -0.572 OA
ATOM    117  C3  SGN d1713      -6.944 -12.878 -24.542  0.00  0.00     0.083 C 
ATOM    118  C1  SGN d1713      -9.249 -13.720 -25.097  0.00  0.00     0.150 C 
ATOM    119  H   SGN d1713      -6.139 -13.897 -26.160  0.00  0.00     0.091 H 
ATOM    120  H   SGN d1713      -9.015 -12.993 -22.753  0.00  0.00     0.140 HD
ATOM    121  H   SGN d1713      -7.639 -14.886 -24.391  0.00  0.00     0.076 H 
ATOM    122  H   SGN d1713      -7.322 -16.017 -22.117  0.00  0.00     0.231 HD
ATOM    123  H   SGN d1713      -7.927 -14.502 -20.171  0.00  0.00     0.231 HD
ATOM    124  H   SGN d1713      -8.635 -13.142 -28.860  0.00  0.00     0.080 H 
ATOM    125  H   SGN d1713      -7.068 -12.380 -28.778  0.00  0.00     0.080 H 
ATOM    126  H   SGN d1713      -8.246 -11.821 -26.774  0.00  0.00     0.090 H 
ATOM    127  H   SGN d1713      -5.050 -12.598 -24.043  0.00  0.00     0.210 HD
ATOM    128  H   SGN d1713     -10.492 -15.279 -23.222  0.00  0.00     0.231 HD
ATOM    129  H   SGN d1713      -7.277 -11.898 -24.273  0.00  0.00     0.089 H 
ATOM    130  H   SGN d1713      -9.971 -14.480 -24.884  0.00  0.00     0.131 H 
ATOM    131  C2  SGN d1711     -14.789  -7.665 -28.316  0.00  0.00     0.081 C 
ATOM    132  O4S SGN d1711      -9.575  -6.176 -24.507  0.00  0.00    -0.572 OA
ATOM    133  S1  SGN d1711     -16.125  -7.554 -30.609  0.00  0.00     0.156 S 
ATOM    134  C3  SGN d1711     -14.223  -8.767 -27.403  0.00  0.00     0.083 C 
ATOM    135  O2S SGN d1711     -15.116  -8.214 -31.379  0.00  0.00    -0.296 OA
ATOM    136  O3  SGN d1711     -13.756  -9.882 -28.169  0.00  0.00    -0.391 OA
ATOM    137  N   SGN d1711     -15.937  -8.102 -29.109  0.00  0.00    -0.210 NA
ATOM    138  C4  SGN d1711     -13.069  -8.163 -26.584  0.00  0.00     0.095 C 
ATOM    139  O4  SGN d1711     -12.809  -9.076 -25.496  0.00  0.00    -0.348 OA
ATOM    140  O6S SGN d1711      -9.472  -4.610 -26.275  0.00  0.00    -0.572 OA
ATOM    141  S2  SGN d1711     -10.259  -5.088 -25.216  0.00  0.00     0.251 S 
ATOM    142  O5  SGN d1711     -14.025  -5.964 -26.762  0.00  0.00    -0.349 OA
ATOM    143  C5  SGN d1711     -13.571  -6.923 -25.790  0.00  0.00     0.091 C 
ATOM    144  O1S SGN d1711     -16.014  -6.109 -30.574  0.00  0.00    -0.296 OA
ATOM    145  O6  SGN d1711     -11.519  -5.744 -25.820  0.00  0.00    -0.254 OA
ATOM    146  O5S SGN d1711     -10.791  -4.000 -24.179  0.00  0.00    -0.572 OA
ATOM    147  O3S SGN d1711     -17.610  -7.987 -30.989  0.00  0.00    -0.296 OA
ATOM    148  C1  SGN d1711     -15.148  -6.392 -27.524  0.00  0.00     0.150 C 
ATOM    149  C6  SGN d1711     -12.534  -6.196 -24.932  0.00  0.00     0.067 C 
ATOM    150  H   SGN d1711     -14.000  -7.436 -29.001  0.00  0.00     0.076 H 
ATOM    151  H   SGN d1711     -14.994  -9.126 -26.753  0.00  0.00     0.089 H 
ATOM    152  H   SGN d1711     -14.241  -7.905 -31.098  0.00  0.00     0.231 HD
ATOM    153  H   SGN d1711     -13.054  -9.590 -28.771  0.00  0.00     0.210 HD
ATOM    154  H   SGN d1711     -16.774  -7.836 -28.590  0.00  0.00     0.140 HD
ATOM    155  H   SGN d1711     -12.258  -7.955 -27.250  0.00  0.00     0.091 H 
ATOM    156  H   SGN d1711     -14.310  -7.296 -25.113  0.00  0.00     0.090 H 
ATOM    157  H   SGN d1711     -15.106  -5.859 -30.341  0.00  0.00     0.231 HD
ATOM    158  H   SGN d1711     -18.240  -7.504 -30.432  0.00  0.00     0.231 HD
ATOM    159  H   SGN d1711     -15.411  -5.574 -28.162  0.00  0.00     0.131 H 
ATOM    160  H   SGN d1711     -12.119  -6.864 -24.207  0.00  0.00     0.080 H 
ATOM    161  H   SGN d1711     -12.976  -5.378 -24.402  0.00  0.00     0.080 H 
ENDROOT
TORSDOF 50
ENDMDL
MODEL 9
REMARK VINA RESULT:      -9.2      2.959     15.313
REMARK  0 active torsions:
REMARK  status: ('A' for Active; 'I' for Inactive)
REMARK       I    between atoms: C2_1  and  O2_12 
REMARK       I    between atoms: C1_4  and  O4_37 
REMARK       I    between atoms: O2S_5  and  S1_43 
REMARK       I    between atoms: O2_11  and  C2_82 
REMARK       I    between atoms: O2_11  and  S_80 
REMARK       I    between atoms: O2_12  and  S_23 
REMARK       I    between atoms: C4_13  and  O4_37 
REMARK       I    between atoms: C2_14  and  N_39 
REMARK       I    between atoms: O1_18  and  C1_32 
REMARK       I    between atoms: C4_19  and  O4_53 
REMARK       I    between atoms: O6_20  and  C6_76 
REMARK       I    between atoms: O6_20  and  S2_95 
REMARK       I    between atoms: S1_21  and  N_39 
REMARK       I    between atoms: S1_21  and  O1S_79 
REMARK       I    between atoms: S1_21  and  O2S_30 
REMARK       I    between atoms: S1_21  and  O3S_94 
REMARK       I    between atoms: C3_24  and  O3_26 
REMARK       I    between atoms: C3_25  and  O3_36 
REMARK       I    between atoms: C6_27  and  C5_83 
REMARK       I    between atoms: C4_28  and  O4_51 
REMARK       I    between atoms: N_29  and  C2_40 
REMARK       I    between atoms: N_29  and  S1_71 
REMARK       I    between atoms: C5_31  and  C6_76 
REMARK       I    between atoms: O1S_35  and  S1_43 
REMARK       I    between atoms: O4_38  and  C4_93 
REMARK       I    between atoms: O4_38  and  C1_96 
REMARK       I    between atoms: O6_41  and  C6_54 
REMARK       I    between atoms: O6_41  and  S2_84 
REMARK       I    between atoms: C4_42  and  O4_49 
REMARK       I    between atoms: S1_43  and  N_47 
REMARK       I    between atoms: S1_43  and  O3S_69 
REMARK       I    between atoms: O2S_44  and  S1_71 
REMARK       I    between atoms: N_47  and  C2_56 
REMARK       I    between atoms: O2_48  and  C2_99 
REMARK       I    between atoms: O2_48  and  S_63 
REMARK       I    between atoms: O4_49  and  C1_57 
REMARK       I    between atoms: O4_51  and  C1_102 
REMARK       I    between atoms: O3S_52  and  S1_71 
REMARK       I    between atoms: O4_53  and  C1_105 
REMARK       I    between atoms: C6_54  and  C5_59 
REMARK       I    between atoms: O3_60  and  C3_100 
REMARK       I    between atoms: O1S_61  and  S1_71 
REMARK       I    between atoms: S2_62  and  O6_81 
REMARK       I    between atoms: C5_65  and  C6_89 
REMARK       I    between atoms: C6_67  and  C5_74 
REMARK       I    between atoms: C3_68  and  O3_104 
REMARK       I    between atoms: C3_70  and  O3_85 
REMARK       I    between atoms: C5_77  and  C6_101 
REMARK       I    between atoms: O6_81  and  C6_101 
REMARK       I    between atoms: C3_92  and  O3_98 
ROOT
ATOM      1  C2  IDS d1714      -3.958 -10.567 -29.336  0.00  0.00     0.132 C 
ATOM      2  O3S IDS d1714      -1.548 -11.407 -32.188  0.00  0.00    -0.572 OA
ATOM      3  C1  IDS d1714      -4.263 -11.532 -28.220  0.00  0.00     0.161 C 
ATOM      4  O2S IDS d1714      -3.160  -9.595 -32.013  0.00  0.00    -0.572 OA
ATOM      5  O2  IDS d1714      -2.958 -11.170 -30.173  0.00  0.00    -0.244 OA
ATOM      6  S   IDS d1714      -2.892 -11.023 -31.704  0.00  0.00     0.252 S 
ATOM      7  C6  IDS d1714      -1.653 -10.703 -25.710  0.00  0.00     0.203 C 
ATOM      8  O5  IDS d1714      -3.097 -11.634 -27.384  0.00  0.00    -0.343 OA
ATOM      9  C4  IDS d1714      -2.480  -9.260 -27.667  0.00  0.00    -0.005 C 
ATOM     10  O61 IDS d1714      -1.290 -11.894 -25.552  0.00  0.00    -0.646 OA
ATOM     11  C3  IDS d1714      -3.442  -9.213 -28.863  0.00  0.00     0.069 C 
ATOM     12  C5  IDS d1714      -2.754 -10.420 -26.719  0.00  0.00     0.127 C 
ATOM     13  O3  IDS d1714      -4.554  -8.350 -28.580  0.00  0.00    -0.393 OA
ATOM     14  O1S IDS d1714      -3.978 -11.872 -32.206  0.00  0.00    -0.572 OA
ATOM     15  O62 IDS d1714      -1.141  -9.759 -25.063  0.00  0.00    -0.646 OA
ATOM     16  H   IDS d1714      -4.876 -10.377 -29.853  0.00  0.00     0.097 H 
ATOM     17  H   IDS d1714      -4.489 -12.531 -28.528  0.00  0.00     0.133 H 
ATOM     18  H   IDS d1714      -2.574  -8.345 -27.121  0.00  0.00     0.041 H 
ATOM     19  H   IDS d1714      -1.494  -9.397 -28.058  0.00  0.00     0.041 H 
ATOM     20  H   IDS d1714      -2.852  -8.828 -29.668  0.00  0.00     0.087 H 
ATOM     21  H   IDS d1714      -3.605 -10.067 -26.174  0.00  0.00     0.100 H 
ATOM     22  H   IDS d1714      -5.073  -8.719 -27.848  0.00  0.00     0.210 HD
ATOM     23  O5  SGN d1709     -22.146  -3.779 -22.930  0.00  0.00    -0.350 OA
ATOM     24  O2S SGN d1709     -20.855  -0.472 -19.843  0.00  0.00    -0.296 OA
ATOM     25  O4S SGN d1709     -24.425  -7.218 -26.088  0.00  0.00    -0.572 OA
ATOM     26  O1  SGN d1709     -21.945  -1.454 -23.247  0.00  0.00    -0.369 OA
ATOM     27  O6  SGN d1709     -23.770  -5.342 -24.664  0.00  0.00    -0.254 OA
ATOM     28  C4  SGN d1709     -20.180  -4.367 -24.128  0.00  0.00     0.095 C 
ATOM     29  C5  SGN d1709     -21.697  -4.181 -24.225  0.00  0.00     0.091 C 
ATOM     30  C1  SGN d1709     -21.605  -2.562 -22.418  0.00  0.00     0.147 C 
ATOM     31  O5S SGN d1709     -26.215  -5.971 -24.784  0.00  0.00    -0.572 OA
ATOM     32  O1S SGN d1709     -18.531   0.019 -20.078  0.00  0.00    -0.296 OA
ATOM     33  S1  SGN d1709     -19.570  -0.969 -20.262  0.00  0.00     0.156 S 
ATOM     34  N   SGN d1709     -19.543  -1.414 -21.792  0.00  0.00    -0.210 NA
ATOM     35  O4  SGN d1709     -19.777  -4.597 -25.489  0.00  0.00    -0.348 OA
ATOM     36  C2  SGN d1709     -20.086  -2.680 -22.269  0.00  0.00     0.081 C 
ATOM     37  C3  SGN d1709     -19.494  -3.114 -23.615  0.00  0.00     0.083 C 
ATOM     38  O3S SGN d1709     -19.249  -2.260 -19.438  0.00  0.00    -0.296 OA
ATOM     39  C6  SGN d1709     -22.373  -5.522 -24.529  0.00  0.00     0.067 C 
ATOM     40  S2  SGN d1709     -24.688  -6.571 -24.804  0.00  0.00     0.251 S 
ATOM     41  O6S SGN d1709     -24.499  -7.413 -23.614  0.00  0.00    -0.572 OA
ATOM     42  O3  SGN d1709     -18.106  -3.371 -23.398  0.00  0.00    -0.391 OA
ATOM     43  H   SGN d1709     -21.070   0.330 -20.345  0.00  0.00     0.231 HD
ATOM     44  H   SGN d1709     -22.909  -1.395 -23.330  0.00  0.00     0.212 HD
ATOM     45  H   SGN d1709     -19.921  -5.157 -23.455  0.00  0.00     0.091 H 
ATOM     46  H   SGN d1709     -21.930  -3.470 -24.990  0.00  0.00     0.090 H 
ATOM     47  H   SGN d1709     -22.035  -2.387 -21.454  0.00  0.00     0.131 H 
ATOM     48  H   SGN d1709     -18.745   0.813 -20.594  0.00  0.00     0.231 HD
ATOM     49  H   SGN d1709     -18.561  -1.410 -22.067  0.00  0.00     0.140 HD
ATOM     50  H   SGN d1709     -19.825  -3.422 -21.543  0.00  0.00     0.076 H 
ATOM     51  H   SGN d1709     -19.636  -2.348 -24.348  0.00  0.00     0.089 H 
ATOM     52  H   SGN d1709     -19.252  -2.049 -18.491  0.00  0.00     0.231 HD
ATOM     53  H   SGN d1709     -21.978  -5.920 -25.441  0.00  0.00     0.080 H 
ATOM     54  H   SGN d1709     -22.182  -6.201 -23.725  0.00  0.00     0.080 H 
ATOM     55  H   SGN d1709     -18.008  -4.068 -22.730  0.00  0.00     0.210 HD
ATOM     56  O1S IDS d1712      -6.980  -6.685 -24.392  0.00  0.00    -0.572 OA
ATOM     57  O2S IDS d1712      -9.046  -6.453 -23.081  0.00  0.00    -0.572 OA
ATOM     58  O61 IDS d1712     -11.517 -12.948 -26.467  0.00  0.00    -0.646 OA
ATOM     59  O5  IDS d1712     -10.581  -9.528 -26.906  0.00  0.00    -0.340 OA
ATOM     60  C4  IDS d1712     -10.343 -10.796 -24.865  0.00  0.00     0.103 C 
ATOM     61  O2  IDS d1712      -8.885  -7.956 -24.954  0.00  0.00    -0.244 OA
ATOM     62  O4  IDS d1712      -8.928 -10.897 -25.064  0.00  0.00    -0.348 OA
ATOM     63  C1  IDS d1712     -10.824  -8.270 -26.292  0.00  0.00     0.161 C 
ATOM     64  S   IDS d1712      -8.122  -7.363 -23.764  0.00  0.00     0.252 S 
ATOM     65  C5  IDS d1712     -11.097 -10.658 -26.194  0.00  0.00     0.152 C 
ATOM     66  O62 IDS d1712     -10.566 -11.903 -28.148  0.00  0.00    -0.646 OA
ATOM     67  O3S IDS d1712      -7.720  -8.512 -22.899  0.00  0.00    -0.572 OA
ATOM     68  C6  IDS d1712     -11.052 -11.917 -27.003  0.00  0.00     0.206 C 
ATOM     69  C3  IDS d1712     -10.601  -9.531 -24.060  0.00  0.00     0.094 C 
ATOM     70  O3  IDS d1712     -11.980  -9.490 -23.664  0.00  0.00    -0.390 OA
ATOM     71  C2  IDS d1712     -10.287  -8.255 -24.884  0.00  0.00     0.134 C 
ATOM     72  H   IDS d1712     -10.684 -11.682 -24.370  0.00  0.00     0.092 H 
ATOM     73  H   IDS d1712     -10.329  -7.526 -26.881  0.00  0.00     0.133 H 
ATOM     74  H   IDS d1712     -12.135 -10.492 -25.993  0.00  0.00     0.104 H 
ATOM     75  H   IDS d1712      -9.959  -9.552 -23.205  0.00  0.00     0.091 H 
ATOM     76  H   IDS d1712     -12.542  -9.470 -24.454  0.00  0.00     0.210 HD
ATOM     77  H   IDS d1712     -10.798  -7.493 -24.332  0.00  0.00     0.097 H 
ATOM     78  O62 IDS d1710     -15.455  -5.342 -24.160  0.00  0.00    -0.646 OA
ATOM     79  O2  IDS d1710     -18.649  -7.451 -27.449  0.00  0.00    -0.244 OA
ATOM     80  O1S IDS d1710     -18.968  -9.904 -27.526  0.00  0.00    -0.572 OA
ATOM     81  C3  IDS d1710     -18.099  -5.166 -28.012  0.00  0.00     0.094 C 
ATOM     82  O3  IDS d1710     -18.683  -3.874 -28.186  0.00  0.00    -0.390 OA
ATOM     83  O4  IDS d1710     -15.979  -6.233 -27.447  0.00  0.00    -0.348 OA
ATOM     84  O5  IDS d1710     -17.710  -5.697 -25.248  0.00  0.00    -0.340 OA
ATOM     85  C6  IDS d1710     -15.658  -4.497 -25.069  0.00  0.00     0.206 C 
ATOM     86  O2S IDS d1710     -20.478  -8.501 -26.215  0.00  0.00    -0.572 OA
ATOM     87  C5  IDS d1710     -16.923  -4.662 -25.870  0.00  0.00     0.152 C 
ATOM     88  S   IDS d1710     -19.688  -8.629 -27.456  0.00  0.00     0.252 S 
ATOM     89  C2  IDS d1710     -19.046  -6.089 -27.231  0.00  0.00     0.134 C 
ATOM     90  O3S IDS d1710     -20.494  -8.345 -28.648  0.00  0.00    -0.572 OA
ATOM     91  C4  IDS d1710     -16.725  -5.013 -27.352  0.00  0.00     0.103 C 
ATOM     92  C1  IDS d1710     -19.053  -5.818 -25.717  0.00  0.00     0.161 C 
ATOM     93  O61 IDS d1710     -14.868  -3.567 -25.342  0.00  0.00    -0.646 OA
ATOM     94  H   IDS d1710     -17.949  -5.635 -28.962  0.00  0.00     0.091 H 
ATOM     95  H   IDS d1710     -18.814  -3.459 -27.319  0.00  0.00     0.210 HD
ATOM     96  H   IDS d1710     -17.405  -3.707 -25.868  0.00  0.00     0.104 H 
ATOM     97  H   IDS d1710     -20.036  -5.898 -27.590  0.00  0.00     0.097 H 
ATOM     98  H   IDS d1710     -16.183  -4.239 -27.853  0.00  0.00     0.092 H 
ATOM     99  H   IDS d1710     -19.521  -6.622 -25.190  0.00  0.00     0.133 H 
ATOM    100  C4  SGN d1713      -6.017 -11.845 -26.613  0.00  0.00     0.095 C 
ATOM    101  N   SGN d1713      -7.032 -11.443 -23.034  0.00  0.00    -0.210 NA
ATOM    102  O4S SGN d1713      -5.622 -14.159 -30.488  0.00  0.00    -0.572 OA
ATOM    103  O4  SGN d1713      -5.404 -10.955 -27.561  0.00  0.00    -0.348 OA
ATOM    104  C2  SGN d1713      -6.955 -12.067 -24.333  0.00  0.00     0.081 C 
ATOM    105  O6  SGN d1713      -6.806 -14.073 -28.242  0.00  0.00    -0.254 OA
ATOM    106  O2S SGN d1713      -6.690 -13.487 -21.822  0.00  0.00    -0.296 OA
ATOM    107  O3S SGN d1713      -7.023 -11.319 -20.464  0.00  0.00    -0.296 OA
ATOM    108  C6  SGN d1713      -7.483 -12.828 -28.453  0.00  0.00     0.067 C 
ATOM    109  O5S SGN d1713      -7.863 -15.143 -30.289  0.00  0.00    -0.572 OA
ATOM    110  C5  SGN d1713      -7.446 -12.030 -27.185  0.00  0.00     0.091 C 
ATOM    111  O3  SGN d1713      -4.713 -11.331 -24.688  0.00  0.00    -0.391 OA
ATOM    112  O1S SGN d1713      -8.842 -12.427 -21.703  0.00  0.00    -0.296 OA
ATOM    113  S1  SGN d1713      -7.417 -12.255 -21.708  0.00  0.00     0.156 S 
ATOM    114  O5  SGN d1713      -8.239 -12.795 -26.250  0.00  0.00    -0.349 OA
ATOM    115  S2  SGN d1713      -6.473 -14.900 -29.534  0.00  0.00     0.251 S 
ATOM    116  O6S SGN d1713      -5.901 -16.125 -29.023  0.00  0.00    -0.572 OA
ATOM    117  C3  SGN d1713      -6.041 -11.237 -25.213  0.00  0.00     0.083 C 
ATOM    118  C1  SGN d1713      -8.347 -12.210 -24.961  0.00  0.00     0.150 C 
ATOM    119  H   SGN d1713      -5.491 -12.770 -26.499  0.00  0.00     0.091 H 
ATOM    120  H   SGN d1713      -7.721 -10.696 -23.119  0.00  0.00     0.140 HD
ATOM    121  H   SGN d1713      -6.557 -13.055 -24.232  0.00  0.00     0.076 H 
ATOM    122  H   SGN d1713      -5.738 -13.302 -21.820  0.00  0.00     0.231 HD
ATOM    123  H   SGN d1713      -6.063 -11.189 -20.448  0.00  0.00     0.231 HD
ATOM    124  H   SGN d1713      -8.501 -13.016 -28.729  0.00  0.00     0.080 H 
ATOM    125  H   SGN d1713      -7.001 -12.282 -29.237  0.00  0.00     0.080 H 
ATOM    126  H   SGN d1713      -7.811 -11.039 -27.363  0.00  0.00     0.090 H 
ATOM    127  H   SGN d1713      -4.109 -10.807 -25.237  0.00  0.00     0.210 HD
ATOM    128  H   SGN d1713      -9.102 -12.991 -22.449  0.00  0.00     0.231 HD
ATOM    129  H   SGN d1713      -6.381 -10.224 -25.244  0.00  0.00     0.089 H 
ATOM    130  H   SGN d1713      -8.963 -12.840 -24.354  0.00  0.00     0.131 H 
ATOM    131  C2  SGN d1711     -14.794  -7.675 -28.909  0.00  0.00     0.081 C 
ATOM    132  O4S SGN d1711      -9.062  -4.950 -26.999  0.00  0.00    -0.572 OA
ATOM    133  S1  SGN d1711     -16.545  -8.382 -30.776  0.00  0.00     0.156 S 
ATOM    134  C3  SGN d1711     -13.991  -8.381 -27.802  0.00  0.00     0.083 C 
ATOM    135  O2S SGN d1711     -15.659  -9.278 -31.453  0.00  0.00    -0.296 OA
ATOM    136  O3  SGN d1711     -13.604  -9.699 -28.207  0.00  0.00    -0.391 OA
ATOM    137  N   SGN d1711     -16.039  -8.360 -29.250  0.00  0.00    -0.210 NA
ATOM    138  C4  SGN d1711     -12.746  -7.530 -27.498  0.00  0.00     0.095 C 
ATOM    139  O4  SGN d1711     -12.222  -7.997 -26.236  0.00  0.00    -0.348 OA
ATOM    140  O6S SGN d1711      -9.403  -4.119 -29.186  0.00  0.00    -0.572 OA
ATOM    141  S2  SGN d1711      -9.940  -4.184 -27.891  0.00  0.00     0.251 S 
ATOM    142  O5  SGN d1711     -13.864  -5.534 -28.239  0.00  0.00    -0.349 OA
ATOM    143  C5  SGN d1711     -13.169  -6.086 -27.105  0.00  0.00     0.091 C 
ATOM    144  O1S SGN d1711     -16.527  -7.020 -31.273  0.00  0.00    -0.296 OA
ATOM    145  O6  SGN d1711     -11.245  -5.005 -27.959  0.00  0.00    -0.254 OA
ATOM    146  O5S SGN d1711     -10.337  -2.795 -27.217  0.00  0.00    -0.572 OA
ATOM    147  O3S SGN d1711     -18.043  -8.915 -30.673  0.00  0.00    -0.296 OA
ATOM    148  C1  SGN d1711     -15.080  -6.201 -28.559  0.00  0.00     0.150 C 
ATOM    149  C6  SGN d1711     -12.040  -5.106 -26.784  0.00  0.00     0.067 C 
ATOM    150  H   SGN d1711     -14.166  -7.709 -29.775  0.00  0.00     0.076 H 
ATOM    151  H   SGN d1711     -14.598  -8.480 -26.926  0.00  0.00     0.089 H 
ATOM    152  H   SGN d1711     -14.770  -8.894 -31.480  0.00  0.00     0.231 HD
ATOM    153  H   SGN d1711     -13.051  -9.644 -29.001  0.00  0.00     0.210 HD
ATOM    154  H   SGN d1711     -16.777  -7.922 -28.700  0.00  0.00     0.140 HD
ATOM    155  H   SGN d1711     -12.092  -7.578 -28.344  0.00  0.00     0.091 H 
ATOM    156  H   SGN d1711     -13.740  -6.190 -26.206  0.00  0.00     0.090 H 
ATOM    157  H   SGN d1711     -15.611  -6.709 -31.331  0.00  0.00     0.231 HD
ATOM    158  H   SGN d1711     -18.587  -8.262 -30.205  0.00  0.00     0.231 HD
ATOM    159  H   SGN d1711     -15.514  -5.663 -29.376  0.00  0.00     0.131 H 
ATOM    160  H   SGN d1711     -11.451  -5.473 -25.971  0.00  0.00     0.080 H 
ATOM    161  H   SGN d1711     -12.427  -4.150 -26.497  0.00  0.00     0.080 H 
ENDROOT
TORSDOF 50
ENDMDL
MODEL 10
REMARK VINA RESULT:      -8.9      3.956     15.551
REMARK  0 active torsions:
REMARK  status: ('A' for Active; 'I' for Inactive)
REMARK       I    between atoms: C2_1  and  O2_12 
REMARK       I    between atoms: C1_4  and  O4_37 
REMARK       I    between atoms: O2S_5  and  S1_43 
REMARK       I    between atoms: O2_11  and  C2_82 
REMARK       I    between atoms: O2_11  and  S_80 
REMARK       I    between atoms: O2_12  and  S_23 
REMARK       I    between atoms: C4_13  and  O4_37 
REMARK       I    between atoms: C2_14  and  N_39 
REMARK       I    between atoms: O1_18  and  C1_32 
REMARK       I    between atoms: C4_19  and  O4_53 
REMARK       I    between atoms: O6_20  and  C6_76 
REMARK       I    between atoms: O6_20  and  S2_95 
REMARK       I    between atoms: S1_21  and  N_39 
REMARK       I    between atoms: S1_21  and  O1S_79 
REMARK       I    between atoms: S1_21  and  O2S_30 
REMARK       I    between atoms: S1_21  and  O3S_94 
REMARK       I    between atoms: C3_24  and  O3_26 
REMARK       I    between atoms: C3_25  and  O3_36 
REMARK       I    between atoms: C6_27  and  C5_83 
REMARK       I    between atoms: C4_28  and  O4_51 
REMARK       I    between atoms: N_29  and  C2_40 
REMARK       I    between atoms: N_29  and  S1_71 
REMARK       I    between atoms: C5_31  and  C6_76 
REMARK       I    between atoms: O1S_35  and  S1_43 
REMARK       I    between atoms: O4_38  and  C4_93 
REMARK       I    between atoms: O4_38  and  C1_96 
REMARK       I    between atoms: O6_41  and  C6_54 
REMARK       I    between atoms: O6_41  and  S2_84 
REMARK       I    between atoms: C4_42  and  O4_49 
REMARK       I    between atoms: S1_43  and  N_47 
REMARK       I    between atoms: S1_43  and  O3S_69 
REMARK       I    between atoms: O2S_44  and  S1_71 
REMARK       I    between atoms: N_47  and  C2_56 
REMARK       I    between atoms: O2_48  and  C2_99 
REMARK       I    between atoms: O2_48  and  S_63 
REMARK       I    between atoms: O4_49  and  C1_57 
REMARK       I    between atoms: O4_51  and  C1_102 
REMARK       I    between atoms: O3S_52  and  S1_71 
REMARK       I    between atoms: O4_53  and  C1_105 
REMARK       I    between atoms: C6_54  and  C5_59 
REMARK       I    between atoms: O3_60  and  C3_100 
REMARK       I    between atoms: O1S_61  and  S1_71 
REMARK       I    between atoms: S2_62  and  O6_81 
REMARK       I    between atoms: C5_65  and  C6_89 
REMARK       I    between atoms: C6_67  and  C5_74 
REMARK       I    between atoms: C3_68  and  O3_104 
REMARK       I    between atoms: C3_70  and  O3_85 
REMARK       I    between atoms: C5_77  and  C6_101 
REMARK       I    between atoms: O6_81  and  C6_101 
REMARK       I    between atoms: C3_92  and  O3_98 
ROOT
ATOM      1  C2  IDS d1714      -3.106 -11.979 -25.135  0.00  0.00     0.132 C 
ATOM      2  O3S IDS d1714       0.567 -12.765 -25.872  0.00  0.00    -0.572 OA
ATOM      3  C1  IDS d1714      -4.220 -12.945 -25.442  0.00  0.00     0.161 C 
ATOM      4  O2S IDS d1714      -0.477 -10.638 -25.320  0.00  0.00    -0.572 OA
ATOM      5  O2  IDS d1714      -1.865 -12.628 -25.456  0.00  0.00    -0.244 OA
ATOM      6  S   IDS d1714      -0.635 -11.922 -26.053  0.00  0.00     0.252 S 
ATOM      7  C6  IDS d1714      -4.444 -14.933 -22.312  0.00  0.00     0.203 C 
ATOM      8  O5  IDS d1714      -4.130 -14.044 -24.518  0.00  0.00    -0.343 OA
ATOM      9  C4  IDS d1714      -3.370 -12.624 -22.647  0.00  0.00    -0.005 C 
ATOM     10  O61 IDS d1714      -4.410 -16.042 -22.899  0.00  0.00    -0.646 OA
ATOM     11  C3  IDS d1714      -3.056 -11.532 -23.679  0.00  0.00     0.069 C 
ATOM     12  C5  IDS d1714      -4.348 -13.674 -23.158  0.00  0.00     0.127 C 
ATOM     13  O3  IDS d1714      -3.925 -10.403 -23.496  0.00  0.00    -0.393 OA
ATOM     14  O1S IDS d1714      -0.992 -11.675 -27.455  0.00  0.00    -0.572 OA
ATOM     15  O62 IDS d1714      -4.556 -14.843 -21.067  0.00  0.00    -0.646 OA
ATOM     16  H   IDS d1714      -3.279 -11.098 -25.717  0.00  0.00     0.097 H 
ATOM     17  H   IDS d1714      -4.190 -13.383 -26.419  0.00  0.00     0.133 H 
ATOM     18  H   IDS d1714      -3.792 -12.160 -21.780  0.00  0.00     0.041 H 
ATOM     19  H   IDS d1714      -2.451 -13.127 -22.428  0.00  0.00     0.041 H 
ATOM     20  H   IDS d1714      -2.037 -11.267 -23.490  0.00  0.00     0.087 H 
ATOM     21  H   IDS d1714      -5.285 -13.163 -23.079  0.00  0.00     0.100 H 
ATOM     22  H   IDS d1714      -4.842 -10.668 -23.673  0.00  0.00     0.210 HD
ATOM     23  O5  SGN d1709     -19.154   0.610 -26.514  0.00  0.00    -0.350 OA
ATOM     24  O2S SGN d1709     -20.500   0.875 -22.015  0.00  0.00    -0.296 OA
ATOM     25  O4S SGN d1709     -18.388   0.854 -31.647  0.00  0.00    -0.572 OA
ATOM     26  O1  SGN d1709     -18.634   2.250 -24.907  0.00  0.00    -0.369 OA
ATOM     27  O6  SGN d1709     -18.950   1.187 -29.292  0.00  0.00    -0.254 OA
ATOM     28  C4  SGN d1709     -17.020  -0.437 -26.505  0.00  0.00     0.095 C 
ATOM     29  C5  SGN d1709     -17.897   0.613 -27.193  0.00  0.00     0.091 C 
ATOM     30  C1  SGN d1709     -19.127   0.932 -25.125  0.00  0.00     0.147 C 
ATOM     31  O5S SGN d1709     -20.450   2.215 -31.047  0.00  0.00    -0.572 OA
ATOM     32  O1S SGN d1709     -18.812  -0.030 -20.589  0.00  0.00    -0.296 OA
ATOM     33  S1  SGN d1709     -19.394  -0.041 -21.913  0.00  0.00     0.156 S 
ATOM     34  N   SGN d1709     -18.226   0.275 -22.952  0.00  0.00    -0.210 NA
ATOM     35  O4  SGN d1709     -15.731  -0.260 -27.116  0.00  0.00    -0.348 OA
ATOM     36  C2  SGN d1709     -18.285  -0.094 -24.361  0.00  0.00     0.081 C 
ATOM     37  C3  SGN d1709     -16.900  -0.175 -25.014  0.00  0.00     0.083 C 
ATOM     38  O3S SGN d1709     -19.906  -1.475 -22.274  0.00  0.00    -0.296 OA
ATOM     39  C6  SGN d1709     -18.177   0.195 -28.641  0.00  0.00     0.067 C 
ATOM     40  S2  SGN d1709     -19.503   0.919 -30.704  0.00  0.00     0.251 S 
ATOM     41  O6S SGN d1709     -20.353  -0.278 -30.636  0.00  0.00    -0.572 OA
ATOM     42  O3  SGN d1709     -16.203  -1.250 -24.384  0.00  0.00    -0.391 OA
ATOM     43  H   SGN d1709     -20.199   1.771 -21.794  0.00  0.00     0.231 HD
ATOM     44  H   SGN d1709     -19.178   2.885 -25.397  0.00  0.00     0.212 HD
ATOM     45  H   SGN d1709     -17.425  -1.422 -26.612  0.00  0.00     0.091 H 
ATOM     46  H   SGN d1709     -17.411   1.566 -27.173  0.00  0.00     0.090 H 
ATOM     47  H   SGN d1709     -20.131   0.897 -24.756  0.00  0.00     0.131 H 
ATOM     48  H   SGN d1709     -18.501   0.865 -20.381  0.00  0.00     0.231 HD
ATOM     49  H   SGN d1709     -17.391  -0.176 -22.579  0.00  0.00     0.140 HD
ATOM     50  H   SGN d1709     -18.726  -1.068 -24.407  0.00  0.00     0.076 H 
ATOM     51  H   SGN d1709     -16.377   0.750 -24.893  0.00  0.00     0.089 H 
ATOM     52  H   SGN d1709     -20.623  -1.723 -21.670  0.00  0.00     0.231 HD
ATOM     53  H   SGN d1709     -17.250   0.071 -29.160  0.00  0.00     0.080 H 
ATOM     54  H   SGN d1709     -18.719  -0.728 -28.641  0.00  0.00     0.080 H 
ATOM     55  H   SGN d1709     -16.699  -2.074 -24.509  0.00  0.00     0.210 HD
ATOM     56  O1S IDS d1712      -8.584  -9.594 -21.537  0.00  0.00    -0.572 OA
ATOM     57  O2S IDS d1712     -10.891  -8.785 -21.798  0.00  0.00    -0.572 OA
ATOM     58  O61 IDS d1712     -10.267 -10.468 -29.317  0.00  0.00    -0.646 OA
ATOM     59  O5  IDS d1712      -9.116  -8.437 -26.612  0.00  0.00    -0.340 OA
ATOM     60  C4  IDS d1712     -10.617 -10.318 -26.414  0.00  0.00     0.103 C 
ATOM     61  O2  IDS d1712      -9.443  -9.142 -23.687  0.00  0.00    -0.244 OA
ATOM     62  O4  IDS d1712      -9.572 -11.125 -25.858  0.00  0.00    -0.348 OA
ATOM     63  C1  IDS d1712      -9.663  -7.676 -25.544  0.00  0.00     0.161 C 
ATOM     64  S   IDS d1712      -9.836  -9.669 -22.303  0.00  0.00     0.252 S 
ATOM     65  C5  IDS d1712     -10.064  -9.227 -27.339  0.00  0.00     0.152 C 
ATOM     66  O62 IDS d1712      -8.302  -9.583 -28.894  0.00  0.00    -0.646 OA
ATOM     67  O3S IDS d1712     -10.320 -11.068 -22.500  0.00  0.00    -0.572 OA
ATOM     68  C6  IDS d1712      -9.493  -9.793 -28.602  0.00  0.00     0.206 C 
ATOM     69  C3  IDS d1712     -11.321  -9.623 -25.257  0.00  0.00     0.094 C 
ATOM     70  O3  IDS d1712     -12.498  -8.961 -25.742  0.00  0.00    -0.390 OA
ATOM     71  C2  IDS d1712     -10.406  -8.567 -24.583  0.00  0.00     0.134 C 
ATOM     72  H   IDS d1712     -11.271 -10.947 -26.981  0.00  0.00     0.092 H 
ATOM     73  H   IDS d1712      -8.847  -7.195 -25.045  0.00  0.00     0.133 H 
ATOM     74  H   IDS d1712     -10.867  -8.593 -27.655  0.00  0.00     0.104 H 
ATOM     75  H   IDS d1712     -11.572 -10.369 -24.533  0.00  0.00     0.091 H 
ATOM     76  H   IDS d1712     -12.246  -8.290 -26.395  0.00  0.00     0.210 HD
ATOM     77  H   IDS d1712     -11.106  -7.971 -24.036  0.00  0.00     0.097 H 
ATOM     78  O62 IDS d1710     -14.058  -3.842 -24.800  0.00  0.00    -0.646 OA
ATOM     79  O2  IDS d1710     -13.688  -2.083 -29.515  0.00  0.00    -0.244 OA
ATOM     80  O1S IDS d1710     -13.988  -3.580 -31.463  0.00  0.00    -0.572 OA
ATOM     81  C3  IDS d1710     -12.760  -0.570 -27.876  0.00  0.00     0.094 C 
ATOM     82  O3  IDS d1710     -12.914   0.744 -27.338  0.00  0.00    -0.390 OA
ATOM     83  O4  IDS d1710     -11.917  -2.781 -27.282  0.00  0.00    -0.348 OA
ATOM     84  O5  IDS d1710     -14.675  -2.326 -26.728  0.00  0.00    -0.340 OA
ATOM     85  C6  IDS d1710     -13.434  -2.753 -24.738  0.00  0.00     0.206 C 
ATOM     86  O2S IDS d1710     -15.867  -2.275 -30.606  0.00  0.00    -0.572 OA
ATOM     87  C5  IDS d1710     -13.631  -1.799 -25.887  0.00  0.00     0.152 C 
ATOM     88  S   IDS d1710     -14.417  -2.301 -30.890  0.00  0.00     0.252 S 
ATOM     89  C2  IDS d1710     -14.022  -0.994 -28.643  0.00  0.00     0.134 C 
ATOM     90  O3S IDS d1710     -13.993  -1.136 -31.671  0.00  0.00    -0.572 OA
ATOM     91  C4  IDS d1710     -12.386  -1.537 -26.748  0.00  0.00     0.103 C 
ATOM     92  C1  IDS d1710     -15.174  -1.437 -27.726  0.00  0.00     0.161 C 
ATOM     93  O61 IDS d1710     -12.662  -2.446 -23.803  0.00  0.00    -0.646 OA
ATOM     94  H   IDS d1710     -11.963  -0.585 -28.590  0.00  0.00     0.091 H 
ATOM     95  H   IDS d1710     -13.638   0.746 -26.692  0.00  0.00     0.210 HD
ATOM     96  H   IDS d1710     -13.877  -0.853 -25.451  0.00  0.00     0.104 H 
ATOM     97  H   IDS d1710     -14.361  -0.136 -29.185  0.00  0.00     0.097 H 
ATOM     98  H   IDS d1710     -11.606  -1.099 -26.160  0.00  0.00     0.092 H 
ATOM     99  H   IDS d1710     -15.928  -1.949 -28.285  0.00  0.00     0.133 H 
ATOM    100  C4  SGN d1713      -6.591 -12.823 -25.790  0.00  0.00     0.095 C 
ATOM    101  N   SGN d1713      -9.966 -13.457 -24.303  0.00  0.00    -0.210 NA
ATOM    102  O4S SGN d1713      -3.505 -13.041 -29.099  0.00  0.00    -0.572 OA
ATOM    103  O4  SGN d1713      -5.416 -12.158 -25.298  0.00  0.00    -0.348 OA
ATOM    104  C2  SGN d1713      -8.957 -13.392 -25.332  0.00  0.00     0.081 C 
ATOM    105  O6  SGN d1713      -5.980 -13.238 -28.564  0.00  0.00    -0.254 OA
ATOM    106  O2S SGN d1713     -10.812 -15.592 -25.003  0.00  0.00    -0.296 OA
ATOM    107  O3S SGN d1713     -11.931 -14.455 -22.975  0.00  0.00    -0.296 OA
ATOM    108  C6  SGN d1713      -6.168 -11.887 -28.124  0.00  0.00     0.067 C 
ATOM    109  O5S SGN d1713      -5.143 -12.513 -30.850  0.00  0.00    -0.572 OA
ATOM    110  C5  SGN d1713      -7.070 -11.884 -26.927  0.00  0.00     0.091 C 
ATOM    111  O3  SGN d1713      -7.213 -14.028 -23.833  0.00  0.00    -0.391 OA
ATOM    112  O1S SGN d1713     -12.202 -13.654 -25.290  0.00  0.00    -0.296 OA
ATOM    113  S1  SGN d1713     -11.283 -14.358 -24.442  0.00  0.00     0.156 S 
ATOM    114  O5  SGN d1713      -8.343 -12.351 -27.428  0.00  0.00    -0.349 OA
ATOM    115  S2  SGN d1713      -4.827 -13.466 -29.604  0.00  0.00     0.251 S 
ATOM    116  O6S SGN d1713      -4.935 -14.867 -29.940  0.00  0.00    -0.572 OA
ATOM    117  C3  SGN d1713      -7.645 -12.973 -24.697  0.00  0.00     0.083 C 
ATOM    118  C1  SGN d1713      -9.366 -12.422 -26.447  0.00  0.00     0.150 C 
ATOM    119  H   SGN d1713      -6.405 -13.822 -26.126  0.00  0.00     0.091 H 
ATOM    120  H   SGN d1713     -10.291 -12.500 -24.163  0.00  0.00     0.140 HD
ATOM    121  H   SGN d1713      -8.845 -14.356 -25.784  0.00  0.00     0.076 H 
ATOM    122  H   SGN d1713     -10.198 -16.015 -24.383  0.00  0.00     0.231 HD
ATOM    123  H   SGN d1713     -11.325 -14.927 -22.385  0.00  0.00     0.231 HD
ATOM    124  H   SGN d1713      -6.614 -11.313 -28.910  0.00  0.00     0.080 H 
ATOM    125  H   SGN d1713      -5.223 -11.456 -27.865  0.00  0.00     0.080 H 
ATOM    126  H   SGN d1713      -7.102 -10.906 -26.493  0.00  0.00     0.090 H 
ATOM    127  H   SGN d1713      -6.373 -13.781 -23.414  0.00  0.00     0.210 HD
ATOM    128  H   SGN d1713     -11.829 -13.585 -26.183  0.00  0.00     0.231 HD
ATOM    129  H   SGN d1713      -7.774 -12.054 -24.163  0.00  0.00     0.089 H 
ATOM    130  H   SGN d1713     -10.264 -12.760 -26.920  0.00  0.00     0.131 H 
ATOM    131  C2  SGN d1711     -10.130  -3.860 -28.406  0.00  0.00     0.081 C 
ATOM    132  O4S SGN d1711      -7.788  -6.080 -22.618  0.00  0.00    -0.572 OA
ATOM    133  S1  SGN d1711      -9.850  -2.556 -30.702  0.00  0.00     0.156 S 
ATOM    134  C3  SGN d1711     -10.518  -5.284 -27.967  0.00  0.00     0.083 C 
ATOM    135  O2S SGN d1711      -8.824  -3.411 -31.214  0.00  0.00    -0.296 OA
ATOM    136  O3  SGN d1711     -10.045  -6.258 -28.903  0.00  0.00    -0.391 OA
ATOM    137  N   SGN d1711     -10.702  -3.474 -29.694  0.00  0.00    -0.210 NA
ATOM    138  C4  SGN d1711      -9.908  -5.539 -26.579  0.00  0.00     0.095 C 
ATOM    139  O4  SGN d1711     -10.577  -6.698 -26.037  0.00  0.00    -0.348 OA
ATOM    140  O6S SGN d1711      -6.268  -4.384 -23.250  0.00  0.00    -0.572 OA
ATOM    141  S2  SGN d1711      -7.610  -4.662 -22.948  0.00  0.00     0.251 S 
ATOM    142  O5  SGN d1711      -9.920  -3.186 -26.083  0.00  0.00    -0.349 OA
ATOM    143  C5  SGN d1711     -10.387  -4.450 -25.577  0.00  0.00     0.091 C 
ATOM    144  O1S SGN d1711      -9.369  -1.406 -29.961  0.00  0.00    -0.296 OA
ATOM    145  O6  SGN d1711      -8.439  -4.451 -24.234  0.00  0.00    -0.254 OA
ATOM    146  O5S SGN d1711      -8.293  -3.745 -21.837  0.00  0.00    -0.572 OA
ATOM    147  O3S SGN d1711     -10.914  -2.104 -31.798  0.00  0.00    -0.296 OA
ATOM    148  C1  SGN d1711     -10.488  -2.812 -27.334  0.00  0.00     0.150 C 
ATOM    149  C6  SGN d1711      -9.854  -4.554 -24.147  0.00  0.00     0.067 C 
ATOM    150  H   SGN d1711      -9.067  -3.884 -28.526  0.00  0.00     0.076 H 
ATOM    151  H   SGN d1711     -11.584  -5.369 -27.928  0.00  0.00     0.089 H 
ATOM    152  H   SGN d1711      -8.213  -3.646 -30.498  0.00  0.00     0.231 HD
ATOM    153  H   SGN d1711      -9.078  -6.207 -28.963  0.00  0.00     0.210 HD
ATOM    154  H   SGN d1711     -11.567  -2.971 -29.495  0.00  0.00     0.140 HD
ATOM    155  H   SGN d1711      -8.844  -5.596 -26.685  0.00  0.00     0.091 H 
ATOM    156  H   SGN d1711     -11.448  -4.569 -25.510  0.00  0.00     0.090 H 
ATOM    157  H   SGN d1711      -8.723  -1.695 -29.298  0.00  0.00     0.231 HD
ATOM    158  H   SGN d1711     -11.578  -1.529 -31.386  0.00  0.00     0.231 HD
ATOM    159  H   SGN d1711     -10.100  -1.842 -27.564  0.00  0.00     0.131 H 
ATOM    160  H   SGN d1711     -10.130  -5.494 -23.717  0.00  0.00     0.080 H 
ATOM    161  H   SGN d1711     -10.260  -3.783 -23.526  0.00  0.00     0.080 H 
ENDROOT
TORSDOF 50
ENDMDL
MODEL 11
REMARK VINA RESULT:      -8.8      3.941      7.961
REMARK  0 active torsions:
REMARK  status: ('A' for Active; 'I' for Inactive)
REMARK       I    between atoms: C2_1  and  O2_12 
REMARK       I    between atoms: C1_4  and  O4_37 
REMARK       I    between atoms: O2S_5  and  S1_43 
REMARK       I    between atoms: O2_11  and  C2_82 
REMARK       I    between atoms: O2_11  and  S_80 
REMARK       I    between atoms: O2_12  and  S_23 
REMARK       I    between atoms: C4_13  and  O4_37 
REMARK       I    between atoms: C2_14  and  N_39 
REMARK       I    between atoms: O1_18  and  C1_32 
REMARK       I    between atoms: C4_19  and  O4_53 
REMARK       I    between atoms: O6_20  and  C6_76 
REMARK       I    between atoms: O6_20  and  S2_95 
REMARK       I    between atoms: S1_21  and  N_39 
REMARK       I    between atoms: S1_21  and  O1S_79 
REMARK       I    between atoms: S1_21  and  O2S_30 
REMARK       I    between atoms: S1_21  and  O3S_94 
REMARK       I    between atoms: C3_24  and  O3_26 
REMARK       I    between atoms: C3_25  and  O3_36 
REMARK       I    between atoms: C6_27  and  C5_83 
REMARK       I    between atoms: C4_28  and  O4_51 
REMARK       I    between atoms: N_29  and  C2_40 
REMARK       I    between atoms: N_29  and  S1_71 
REMARK       I    between atoms: C5_31  and  C6_76 
REMARK       I    between atoms: O1S_35  and  S1_43 
REMARK       I    between atoms: O4_38  and  C4_93 
REMARK       I    between atoms: O4_38  and  C1_96 
REMARK       I    between atoms: O6_41  and  C6_54 
REMARK       I    between atoms: O6_41  and  S2_84 
REMARK       I    between atoms: C4_42  and  O4_49 
REMARK       I    between atoms: S1_43  and  N_47 
REMARK       I    between atoms: S1_43  and  O3S_69 
REMARK       I    between atoms: O2S_44  and  S1_71 
REMARK       I    between atoms: N_47  and  C2_56 
REMARK       I    between atoms: O2_48  and  C2_99 
REMARK       I    between atoms: O2_48  and  S_63 
REMARK       I    between atoms: O4_49  and  C1_57 
REMARK       I    between atoms: O4_51  and  C1_102 
REMARK       I    between atoms: O3S_52  and  S1_71 
REMARK       I    between atoms: O4_53  and  C1_105 
REMARK       I    between atoms: C6_54  and  C5_59 
REMARK       I    between atoms: O3_60  and  C3_100 
REMARK       I    between atoms: O1S_61  and  S1_71 
REMARK       I    between atoms: S2_62  and  O6_81 
REMARK       I    between atoms: C5_65  and  C6_89 
REMARK       I    between atoms: C6_67  and  C5_74 
REMARK       I    between atoms: C3_68  and  O3_104 
REMARK       I    between atoms: C3_70  and  O3_85 
REMARK       I    between atoms: C5_77  and  C6_101 
REMARK       I    between atoms: O6_81  and  C6_101 
REMARK       I    between atoms: C3_92  and  O3_98 
ROOT
ATOM      1  C2  IDS d1714     -24.786  -3.447 -22.224  0.00  0.00     0.132 C 
ATOM      2  O3S IDS d1714     -27.333  -4.663 -19.638  0.00  0.00    -0.572 OA
ATOM      3  C1  IDS d1714     -25.048  -3.498 -23.706  0.00  0.00     0.161 C 
ATOM      4  O2S IDS d1714     -24.974  -4.142 -19.355  0.00  0.00    -0.572 OA
ATOM      5  O2  IDS d1714     -25.977  -3.895 -21.555  0.00  0.00    -0.244 OA
ATOM      6  S   IDS d1714     -25.994  -4.730 -20.262  0.00  0.00     0.252 S 
ATOM      7  C6  IDS d1714     -26.656  -0.212 -24.351  0.00  0.00     0.203 C 
ATOM      8  O5  IDS d1714     -26.042  -2.507 -24.022  0.00  0.00    -0.343 OA
ATOM      9  C4  IDS d1714     -25.216  -0.901 -22.338  0.00  0.00    -0.005 C 
ATOM     10  O61 IDS d1714     -27.624  -0.701 -24.982  0.00  0.00    -0.646 OA
ATOM     11  C3  IDS d1714     -24.433  -2.058 -21.703  0.00  0.00     0.069 C 
ATOM     12  C5  IDS d1714     -25.618  -1.167 -23.783  0.00  0.00     0.127 C 
ATOM     13  O3  IDS d1714     -23.019  -1.843 -21.839  0.00  0.00    -0.393 OA
ATOM     14  O1S IDS d1714     -25.593  -6.077 -20.684  0.00  0.00    -0.572 OA
ATOM     15  O62 IDS d1714     -26.526   1.024 -24.184  0.00  0.00    -0.646 OA
ATOM     16  H   IDS d1714     -23.938  -4.069 -22.028  0.00  0.00     0.097 H 
ATOM     17  H   IDS d1714     -25.435  -4.427 -24.071  0.00  0.00     0.133 H 
ATOM     18  H   IDS d1714     -24.605  -0.023 -22.311  0.00  0.00     0.041 H 
ATOM     19  H   IDS d1714     -26.118  -0.783 -21.775  0.00  0.00     0.041 H 
ATOM     20  H   IDS d1714     -24.725  -2.050 -20.674  0.00  0.00     0.087 H 
ATOM     21  H   IDS d1714     -24.701  -0.990 -24.306  0.00  0.00     0.100 H 
ATOM     22  H   IDS d1714     -22.779  -1.855 -22.779  0.00  0.00     0.210 HD
ATOM     23  O5  SGN d1709      -5.766  -3.445 -29.716  0.00  0.00    -0.350 OA
ATOM     24  O2S SGN d1709      -4.870   1.168 -29.940  0.00  0.00    -0.296 OA
ATOM     25  O4S SGN d1709      -5.925  -8.637 -29.838  0.00  0.00    -0.572 OA
ATOM     26  O1  SGN d1709      -4.627  -2.080 -28.171  0.00  0.00    -0.369 OA
ATOM     27  O6  SGN d1709      -5.362  -6.260 -29.736  0.00  0.00    -0.254 OA
ATOM     28  C4  SGN d1709      -7.755  -3.670 -28.435  0.00  0.00     0.095 C 
ATOM     29  C5  SGN d1709      -6.402  -4.304 -28.769  0.00  0.00     0.091 C 
ATOM     30  C1  SGN d1709      -5.508  -2.108 -29.290  0.00  0.00     0.147 C 
ATOM     31  O5S SGN d1709      -3.705  -7.848 -30.795  0.00  0.00    -0.572 OA
ATOM     32  O1S SGN d1709      -6.514   2.392 -28.719  0.00  0.00    -0.296 OA
ATOM     33  S1  SGN d1709      -6.222   1.178 -29.447  0.00  0.00     0.156 S 
ATOM     34  N   SGN d1709      -6.541  -0.049 -28.480  0.00  0.00    -0.210 NA
ATOM     35  O4  SGN d1709      -8.257  -4.482 -27.361  0.00  0.00    -0.348 OA
ATOM     36  C2  SGN d1709      -6.824  -1.396 -28.961  0.00  0.00     0.081 C 
ATOM     37  C3  SGN d1709      -7.596  -2.242 -27.942  0.00  0.00     0.083 C 
ATOM     38  O3S SGN d1709      -7.192   1.023 -30.664  0.00  0.00    -0.296 OA
ATOM     39  C6  SGN d1709      -6.612  -5.652 -29.468  0.00  0.00     0.067 C 
ATOM     40  S2  SGN d1709      -5.305  -7.544 -30.585  0.00  0.00     0.251 S 
ATOM     41  O6S SGN d1709      -5.901  -7.246 -31.895  0.00  0.00    -0.572 OA
ATOM     42  O3  SGN d1709      -8.880  -1.636 -27.783  0.00  0.00    -0.391 OA
ATOM     43  H   SGN d1709      -4.254   1.263 -29.197  0.00  0.00     0.231 HD
ATOM     44  H   SGN d1709      -3.802  -2.535 -28.399  0.00  0.00     0.212 HD
ATOM     45  H   SGN d1709      -8.395  -3.630 -29.291  0.00  0.00     0.091 H 
ATOM     46  H   SGN d1709      -5.831  -4.440 -27.875  0.00  0.00     0.090 H 
ATOM     47  H   SGN d1709      -5.027  -1.590 -30.093  0.00  0.00     0.131 H 
ATOM     48  H   SGN d1709      -5.905   2.474 -27.969  0.00  0.00     0.231 HD
ATOM     49  H   SGN d1709      -7.357   0.230 -27.935  0.00  0.00     0.140 HD
ATOM     50  H   SGN d1709      -7.436  -1.292 -29.832  0.00  0.00     0.076 H 
ATOM     51  H   SGN d1709      -7.068  -2.281 -27.013  0.00  0.00     0.089 H 
ATOM     52  H   SGN d1709      -7.043   1.747 -31.292  0.00  0.00     0.231 HD
ATOM     53  H   SGN d1709      -7.190  -6.294 -28.836  0.00  0.00     0.080 H 
ATOM     54  H   SGN d1709      -7.130  -5.492 -30.391  0.00  0.00     0.080 H 
ATOM     55  H   SGN d1709      -9.335  -1.614 -28.640  0.00  0.00     0.210 HD
ATOM     56  O1S IDS d1712     -19.954   0.723 -25.035  0.00  0.00    -0.572 OA
ATOM     57  O2S IDS d1712     -18.081   0.748 -26.627  0.00  0.00    -0.572 OA
ATOM     58  O61 IDS d1712     -19.816  -6.608 -28.252  0.00  0.00    -0.646 OA
ATOM     59  O5  IDS d1712     -18.667  -4.291 -25.786  0.00  0.00    -0.340 OA
ATOM     60  C4  IDS d1712     -19.520  -3.709 -27.969  0.00  0.00     0.103 C 
ATOM     61  O2  IDS d1712     -19.119  -1.302 -25.909  0.00  0.00    -0.244 OA
ATOM     62  O4  IDS d1712     -20.750  -3.251 -27.393  0.00  0.00    -0.348 OA
ATOM     63  C1  IDS d1712     -17.739  -3.222 -25.681  0.00  0.00     0.161 C 
ATOM     64  S   IDS d1712     -19.377   0.166 -26.266  0.00  0.00     0.252 S 
ATOM     65  C5  IDS d1712     -18.860  -4.797 -27.112  0.00  0.00     0.152 C 
ATOM     66  O62 IDS d1712     -20.059  -6.565 -26.070  0.00  0.00    -0.646 OA
ATOM     67  O3S IDS d1712     -20.333   0.164 -27.414  0.00  0.00    -0.572 OA
ATOM     68  C6  IDS d1712     -19.633  -6.079 -27.133  0.00  0.00     0.206 C 
ATOM     69  C3  IDS d1712     -18.568  -2.522 -28.014  0.00  0.00     0.094 C 
ATOM     70  O3  IDS d1712     -17.397  -2.878 -28.762  0.00  0.00    -0.390 OA
ATOM     71  C2  IDS d1712     -18.130  -2.087 -26.591  0.00  0.00     0.134 C 
ATOM     72  H   IDS d1712     -19.725  -4.115 -28.938  0.00  0.00     0.092 H 
ATOM     73  H   IDS d1712     -17.743  -2.895 -24.662  0.00  0.00     0.133 H 
ATOM     74  H   IDS d1712     -17.904  -5.040 -27.529  0.00  0.00     0.104 H 
ATOM     75  H   IDS d1712     -19.084  -1.707 -28.476  0.00  0.00     0.091 H 
ATOM     76  H   IDS d1712     -16.945  -3.617 -28.324  0.00  0.00     0.210 HD
ATOM     77  H   IDS d1712     -17.262  -1.493 -26.788  0.00  0.00     0.097 H 
ATOM     78  O62 IDS d1710     -12.202  -2.150 -27.344  0.00  0.00    -0.646 OA
ATOM     79  O2  IDS d1710     -10.859  -6.999 -26.965  0.00  0.00    -0.244 OA
ATOM     80  O1S IDS d1710     -11.985  -8.745 -28.311  0.00  0.00    -0.572 OA
ATOM     81  C3  IDS d1710     -10.037  -5.655 -25.134  0.00  0.00     0.094 C 
ATOM     82  O3  IDS d1710      -8.831  -5.213 -24.510  0.00  0.00    -0.390 OA
ATOM     83  O4  IDS d1710     -12.371  -5.009 -25.429  0.00  0.00    -0.348 OA
ATOM     84  O5  IDS d1710     -10.575  -4.084 -27.439  0.00  0.00    -0.340 OA
ATOM     85  C6  IDS d1710     -11.584  -2.277 -26.256  0.00  0.00     0.206 C 
ATOM     86  O2S IDS d1710      -9.908  -7.726 -29.096  0.00  0.00    -0.572 OA
ATOM     87  C5  IDS d1710     -10.658  -3.459 -26.143  0.00  0.00     0.152 C 
ATOM     88  S   IDS d1710     -10.668  -8.224 -27.932  0.00  0.00     0.252 S 
ATOM     89  C2  IDS d1710      -9.755  -6.182 -26.548  0.00  0.00     0.134 C 
ATOM     90  O3S IDS d1710      -9.879  -9.157 -27.123  0.00  0.00    -0.572 OA
ATOM     91  C4  IDS d1710     -11.064  -4.518 -25.107  0.00  0.00     0.103 C 
ATOM     92  C1  IDS d1710      -9.552  -5.067 -27.587  0.00  0.00     0.161 C 
ATOM     93  O61 IDS d1710     -11.717  -1.498 -25.286  0.00  0.00    -0.646 OA
ATOM     94  H   IDS d1710     -10.454  -6.478 -24.591  0.00  0.00     0.091 H 
ATOM     95  H   IDS d1710      -8.462  -4.467 -25.010  0.00  0.00     0.210 HD
ATOM     96  H   IDS d1710      -9.720  -3.073 -25.800  0.00  0.00     0.104 H 
ATOM     97  H   IDS d1710      -8.841  -6.738 -26.498  0.00  0.00     0.097 H 
ATOM     98  H   IDS d1710     -11.088  -4.095 -24.125  0.00  0.00     0.092 H 
ATOM     99  H   IDS d1710      -9.605  -5.459 -28.581  0.00  0.00     0.133 H 
ATOM    100  C4  SGN d1713     -23.731  -3.492 -25.713  0.00  0.00     0.095 C 
ATOM    101  N   SGN d1713     -22.561  -1.461 -28.630  0.00  0.00    -0.210 NA
ATOM    102  O4S SGN d1713     -25.480  -7.199 -23.785  0.00  0.00    -0.572 OA
ATOM    103  O4  SGN d1713     -23.761  -3.241 -24.297  0.00  0.00    -0.348 OA
ATOM    104  C2  SGN d1713     -23.015  -2.633 -27.922  0.00  0.00     0.081 C 
ATOM    105  O6  SGN d1713     -24.389  -6.281 -25.886  0.00  0.00    -0.254 OA
ATOM    106  O2S SGN d1713     -23.963  -1.840 -30.542  0.00  0.00    -0.296 OA
ATOM    107  O3S SGN d1713     -22.422   0.229 -30.565  0.00  0.00    -0.296 OA
ATOM    108  C6  SGN d1713     -23.132  -5.934 -25.289  0.00  0.00     0.067 C 
ATOM    109  O5S SGN d1713     -24.183  -8.720 -25.210  0.00  0.00    -0.572 OA
ATOM    110  C5  SGN d1713     -22.675  -4.618 -25.843  0.00  0.00     0.091 C 
ATOM    111  O3  SGN d1713     -24.458  -1.367 -26.505  0.00  0.00    -0.391 OA
ATOM    112  O1S SGN d1713     -21.586  -2.077 -30.794  0.00  0.00    -0.296 OA
ATOM    113  S1  SGN d1713     -22.663  -1.321 -30.222  0.00  0.00     0.156 S 
ATOM    114  O5  SGN d1713     -22.425  -4.879 -27.243  0.00  0.00    -0.349 OA
ATOM    115  S2  SGN d1713     -25.169  -7.459 -25.205  0.00  0.00     0.251 S 
ATOM    116  O6S SGN d1713     -26.317  -7.654 -26.060  0.00  0.00    -0.572 OA
ATOM    117  C3  SGN d1713     -23.327  -2.242 -26.490  0.00  0.00     0.083 C 
ATOM    118  C1  SGN d1713     -21.968  -3.752 -27.974  0.00  0.00     0.150 C 
ATOM    119  H   SGN d1713     -24.684  -3.765 -26.115  0.00  0.00     0.091 H 
ATOM    120  H   SGN d1713     -21.573  -1.356 -28.399  0.00  0.00     0.140 HD
ATOM    121  H   SGN d1713     -23.899  -3.013 -28.390  0.00  0.00     0.076 H 
ATOM    122  H   SGN d1713     -24.642  -1.287 -30.127  0.00  0.00     0.231 HD
ATOM    123  H   SGN d1713     -23.140   0.759 -30.186  0.00  0.00     0.231 HD
ATOM    124  H   SGN d1713     -22.408  -6.689 -25.514  0.00  0.00     0.080 H 
ATOM    125  H   SGN d1713     -23.245  -5.859 -24.228  0.00  0.00     0.080 H 
ATOM    126  H   SGN d1713     -21.819  -4.270 -25.302  0.00  0.00     0.090 H 
ATOM    127  H   SGN d1713     -24.676  -1.103 -25.597  0.00  0.00     0.210 HD
ATOM    128  H   SGN d1713     -21.712  -3.019 -30.598  0.00  0.00     0.231 HD
ATOM    129  H   SGN d1713     -22.474  -1.775 -26.044  0.00  0.00     0.089 H 
ATOM    130  H   SGN d1713     -21.799  -4.052 -28.987  0.00  0.00     0.131 H 
ATOM    131  C2  SGN d1711     -14.207  -6.295 -24.655  0.00  0.00     0.081 C 
ATOM    132  O4S SGN d1711     -17.334  -0.761 -22.782  0.00  0.00    -0.572 OA
ATOM    133  S1  SGN d1711     -13.218  -8.710 -24.161  0.00  0.00     0.156 S 
ATOM    134  C3  SGN d1711     -15.235  -5.683 -25.623  0.00  0.00     0.083 C 
ATOM    135  O2S SGN d1711     -14.475  -9.296 -23.811  0.00  0.00    -0.296 OA
ATOM    136  O3  SGN d1711     -16.310  -6.593 -25.875  0.00  0.00    -0.391 OA
ATOM    137  N   SGN d1711     -13.578  -7.510 -25.169  0.00  0.00    -0.210 NA
ATOM    138  C4  SGN d1711     -15.771  -4.386 -24.993  0.00  0.00     0.095 C 
ATOM    139  O4  SGN d1711     -16.429  -3.652 -26.048  0.00  0.00    -0.348 OA
ATOM    140  O6S SGN d1711     -16.649  -1.758 -20.752  0.00  0.00    -0.572 OA
ATOM    141  S2  SGN d1711     -16.204  -1.234 -21.975  0.00  0.00     0.251 S 
ATOM    142  O5  SGN d1711     -13.743  -4.097 -23.733  0.00  0.00    -0.349 OA
ATOM    143  C5  SGN d1711     -14.594  -3.419 -24.677  0.00  0.00     0.091 C 
ATOM    144  O1S SGN d1711     -12.478  -8.151 -23.046  0.00  0.00    -0.296 OA
ATOM    145  O6  SGN d1711     -15.594  -2.392 -22.794  0.00  0.00    -0.254 OA
ATOM    146  O5S SGN d1711     -15.071  -0.115 -21.899  0.00  0.00    -0.572 OA
ATOM    147  O3S SGN d1711     -12.282  -9.666 -25.025  0.00  0.00    -0.296 OA
ATOM    148  C1  SGN d1711     -13.127  -5.274 -24.243  0.00  0.00     0.150 C 
ATOM    149  C6  SGN d1711     -14.961  -2.083 -24.029  0.00  0.00     0.067 C 
ATOM    150  H   SGN d1711     -14.768  -6.572 -23.787  0.00  0.00     0.076 H 
ATOM    151  H   SGN d1711     -14.765  -5.475 -26.561  0.00  0.00     0.089 H 
ATOM    152  H   SGN d1711     -14.992  -8.664 -23.288  0.00  0.00     0.231 HD
ATOM    153  H   SGN d1711     -16.759  -6.803 -25.042  0.00  0.00     0.210 HD
ATOM    154  H   SGN d1711     -12.705  -7.226 -25.613  0.00  0.00     0.140 HD
ATOM    155  H   SGN d1711     -16.362  -4.647 -24.140  0.00  0.00     0.091 H 
ATOM    156  H   SGN d1711     -14.156  -3.183 -25.623  0.00  0.00     0.090 H 
ATOM    157  H   SGN d1711     -13.059  -7.572 -22.530  0.00  0.00     0.231 HD
ATOM    158  H   SGN d1711     -11.451  -9.209 -25.226  0.00  0.00     0.231 HD
ATOM    159  H   SGN d1711     -12.489  -5.643 -23.467  0.00  0.00     0.131 H 
ATOM    160  H   SGN d1711     -15.631  -1.538 -24.661  0.00  0.00     0.080 H 
ATOM    161  H   SGN d1711     -14.094  -1.476 -23.877  0.00  0.00     0.080 H 
ENDROOT
TORSDOF 50
ENDMDL
MODEL 12
REMARK VINA RESULT:      -8.7      4.681      8.506
REMARK  0 active torsions:
REMARK  status: ('A' for Active; 'I' for Inactive)
REMARK       I    between atoms: C2_1  and  O2_12 
REMARK       I    between atoms: C1_4  and  O4_37 
REMARK       I    between atoms: O2S_5  and  S1_43 
REMARK       I    between atoms: O2_11  and  C2_82 
REMARK       I    between atoms: O2_11  and  S_80 
REMARK       I    between atoms: O2_12  and  S_23 
REMARK       I    between atoms: C4_13  and  O4_37 
REMARK       I    between atoms: C2_14  and  N_39 
REMARK       I    between atoms: O1_18  and  C1_32 
REMARK       I    between atoms: C4_19  and  O4_53 
REMARK       I    between atoms: O6_20  and  C6_76 
REMARK       I    between atoms: O6_20  and  S2_95 
REMARK       I    between atoms: S1_21  and  N_39 
REMARK       I    between atoms: S1_21  and  O1S_79 
REMARK       I    between atoms: S1_21  and  O2S_30 
REMARK       I    between atoms: S1_21  and  O3S_94 
REMARK       I    between atoms: C3_24  and  O3_26 
REMARK       I    between atoms: C3_25  and  O3_36 
REMARK       I    between atoms: C6_27  and  C5_83 
REMARK       I    between atoms: C4_28  and  O4_51 
REMARK       I    between atoms: N_29  and  C2_40 
REMARK       I    between atoms: N_29  and  S1_71 
REMARK       I    between atoms: C5_31  and  C6_76 
REMARK       I    between atoms: O1S_35  and  S1_43 
REMARK       I    between atoms: O4_38  and  C4_93 
REMARK       I    between atoms: O4_38  and  C1_96 
REMARK       I    between atoms: O6_41  and  C6_54 
REMARK       I    between atoms: O6_41  and  S2_84 
REMARK       I    between atoms: C4_42  and  O4_49 
REMARK       I    between atoms: S1_43  and  N_47 
REMARK       I    between atoms: S1_43  and  O3S_69 
REMARK       I    between atoms: O2S_44  and  S1_71 
REMARK       I    between atoms: N_47  and  C2_56 
REMARK       I    between atoms: O2_48  and  C2_99 
REMARK       I    between atoms: O2_48  and  S_63 
REMARK       I    between atoms: O4_49  and  C1_57 
REMARK       I    between atoms: O4_51  and  C1_102 
REMARK       I    between atoms: O3S_52  and  S1_71 
REMARK       I    between atoms: O4_53  and  C1_105 
REMARK       I    between atoms: C6_54  and  C5_59 
REMARK       I    between atoms: O3_60  and  C3_100 
REMARK       I    between atoms: O1S_61  and  S1_71 
REMARK       I    between atoms: S2_62  and  O6_81 
REMARK       I    between atoms: C5_65  and  C6_89 
REMARK       I    between atoms: C6_67  and  C5_74 
REMARK       I    between atoms: C3_68  and  O3_104 
REMARK       I    between atoms: C3_70  and  O3_85 
REMARK       I    between atoms: C5_77  and  C6_101 
REMARK       I    between atoms: O6_81  and  C6_101 
REMARK       I    between atoms: C3_92  and  O3_98 
ROOT
ATOM      1  C2  IDS d1714     -23.740  -4.087 -23.230  0.00  0.00     0.132 C 
ATOM      2  O3S IDS d1714     -26.219  -5.538 -20.701  0.00  0.00    -0.572 OA
ATOM      3  C1  IDS d1714     -23.908  -4.252 -24.718  0.00  0.00     0.161 C 
ATOM      4  O2S IDS d1714     -23.982  -4.655 -20.338  0.00  0.00    -0.572 OA
ATOM      5  O2  IDS d1714     -24.886  -4.674 -22.594  0.00  0.00    -0.244 OA
ATOM      6  S   IDS d1714     -24.852  -5.435 -21.256  0.00  0.00     0.252 S 
ATOM      7  C6  IDS d1714     -25.945  -1.282 -25.629  0.00  0.00     0.203 C 
ATOM      8  O5  IDS d1714     -25.018  -3.439 -25.138  0.00  0.00    -0.343 OA
ATOM      9  C4  IDS d1714     -24.533  -1.644 -23.514  0.00  0.00    -0.005 C 
ATOM     10  O61 IDS d1714     -26.794  -1.942 -26.276  0.00  0.00    -0.646 OA
ATOM     11  C3  IDS d1714     -23.625  -2.636 -22.776  0.00  0.00     0.069 C 
ATOM     12  C5  IDS d1714     -24.811  -2.040 -24.958  0.00  0.00     0.127 C 
ATOM     13  O3  IDS d1714     -22.253  -2.218 -22.857  0.00  0.00    -0.393 OA
ATOM     14  O1S IDS d1714     -24.235  -6.727 -21.579  0.00  0.00    -0.572 OA
ATOM     15  O62 IDS d1714     -26.008  -0.034 -25.529  0.00  0.00    -0.646 OA
ATOM     16  H   IDS d1714     -22.821  -4.563 -22.959  0.00  0.00     0.097 H 
ATOM     17  H   IDS d1714     -24.134  -5.245 -25.046  0.00  0.00     0.133 H 
ATOM     18  H   IDS d1714     -24.061  -0.684 -23.510  0.00  0.00     0.041 H 
ATOM     19  H   IDS d1714     -25.473  -1.634 -23.002  0.00  0.00     0.041 H 
ATOM     20  H   IDS d1714     -23.972  -2.619 -21.764  0.00  0.00     0.087 H 
ATOM     21  H   IDS d1714     -23.903  -1.755 -25.446  0.00  0.00     0.100 H 
ATOM     22  H   IDS d1714     -21.962  -2.242 -23.782  0.00  0.00     0.210 HD
ATOM     23  O5  SGN d1709      -4.541  -1.608 -29.801  0.00  0.00    -0.350 OA
ATOM     24  O2S SGN d1709      -4.324   3.070 -30.252  0.00  0.00    -0.296 OA
ATOM     25  O4S SGN d1709      -3.926  -6.764 -29.625  0.00  0.00    -0.572 OA
ATOM     26  O1  SGN d1709      -3.704  -0.011 -28.286  0.00  0.00    -0.369 OA
ATOM     27  O6  SGN d1709      -3.726  -4.327 -29.636  0.00  0.00    -0.254 OA
ATOM     28  C4  SGN d1709      -6.544  -2.063 -28.604  0.00  0.00     0.095 C 
ATOM     29  C5  SGN d1709      -5.095  -2.503 -28.836  0.00  0.00     0.091 C 
ATOM     30  C1  SGN d1709      -4.508  -0.227 -29.442  0.00  0.00     0.147 C 
ATOM     31  O5S SGN d1709      -1.797  -5.700 -30.520  0.00  0.00    -0.572 OA
ATOM     32  O1S SGN d1709      -6.196   4.094 -29.183  0.00  0.00    -0.296 OA
ATOM     33  S1  SGN d1709      -5.688   2.902 -29.824  0.00  0.00     0.156 S 
ATOM     34  N   SGN d1709      -5.876   1.692 -28.803  0.00  0.00    -0.210 NA
ATOM     35  O4  SGN d1709      -6.979  -2.886 -27.509  0.00  0.00    -0.348 OA
ATOM     36  C2  SGN d1709      -5.930   0.295 -29.217  0.00  0.00     0.081 C 
ATOM     37  C3  SGN d1709      -6.625  -0.605 -28.189  0.00  0.00     0.083 C 
ATOM     38  O3S SGN d1709      -6.556   2.541 -31.075  0.00  0.00    -0.296 OA
ATOM     39  C6  SGN d1709      -5.065  -3.901 -29.464  0.00  0.00     0.067 C 
ATOM     40  S2  SGN d1709      -3.433  -5.629 -30.405  0.00  0.00     0.251 S 
ATOM     41  O6S SGN d1709      -3.993  -5.492 -31.756  0.00  0.00    -0.572 OA
ATOM     42  O3  SGN d1709      -7.990  -0.191 -28.126  0.00  0.00    -0.391 OA
ATOM     43  H   SGN d1709      -3.771   3.294 -29.486  0.00  0.00     0.231 HD
ATOM     44  H   SGN d1709      -2.809  -0.347 -28.447  0.00  0.00     0.212 HD
ATOM     45  H   SGN d1709      -7.134  -2.164 -29.491  0.00  0.00     0.091 H 
ATOM     46  H   SGN d1709      -4.561  -2.506 -27.909  0.00  0.00     0.090 H 
ATOM     47  H   SGN d1709      -4.064   0.316 -30.250  0.00  0.00     0.131 H 
ATOM     48  H   SGN d1709      -5.648   4.305 -28.411  0.00  0.00     0.231 HD
ATOM     49  H   SGN d1709      -6.753   1.872 -28.315  0.00  0.00     0.140 HD
ATOM     50  H   SGN d1709      -6.502   0.261 -30.121  0.00  0.00     0.076 H 
ATOM     51  H   SGN d1709      -6.149  -0.517 -27.235  0.00  0.00     0.089 H 
ATOM     52  H   SGN d1709      -6.480   3.247 -31.736  0.00  0.00     0.231 HD
ATOM     53  H   SGN d1709      -5.576  -4.589 -28.823  0.00  0.00     0.080 H 
ATOM     54  H   SGN d1709      -5.548  -3.867 -30.418  0.00  0.00     0.080 H 
ATOM     55  H   SGN d1709      -8.395  -0.281 -29.003  0.00  0.00     0.210 HD
ATOM     56  O1S IDS d1712     -19.427   0.614 -26.049  0.00  0.00    -0.572 OA
ATOM     57  O2S IDS d1712     -17.492   0.838 -27.549  0.00  0.00    -0.572 OA
ATOM     58  O61 IDS d1712     -18.030  -6.767 -28.821  0.00  0.00    -0.646 OA
ATOM     59  O5  IDS d1712     -17.375  -4.182 -26.443  0.00  0.00    -0.340 OA
ATOM     60  C4  IDS d1712     -18.182  -3.846 -28.694  0.00  0.00     0.103 C 
ATOM     61  O2  IDS d1712     -18.255  -1.305 -26.762  0.00  0.00    -0.244 OA
ATOM     62  O4  IDS d1712     -19.495  -3.550 -28.205  0.00  0.00    -0.348 OA
ATOM     63  C1  IDS d1712     -16.621  -2.982 -26.357  0.00  0.00     0.161 C 
ATOM     64  S   IDS d1712     -18.707   0.087 -27.216  0.00  0.00     0.252 S 
ATOM     65  C5  IDS d1712     -17.417  -4.778 -27.745  0.00  0.00     0.152 C 
ATOM     66  O62 IDS d1712     -18.398  -6.650 -26.659  0.00  0.00    -0.646 OA
ATOM     67  O3S IDS d1712     -19.586  -0.116 -28.406  0.00  0.00    -0.572 OA
ATOM     68  C6  IDS d1712     -17.990  -6.161 -27.727  0.00  0.00     0.206 C 
ATOM     69  C3  IDS d1712     -17.414  -2.534 -28.763  0.00  0.00     0.094 C 
ATOM     70  O3  IDS d1712     -16.163  -2.747 -29.433  0.00  0.00    -0.390 OA
ATOM     71  C2  IDS d1712     -17.125  -1.966 -27.349  0.00  0.00     0.134 C 
ATOM     72  H   IDS d1712     -18.271  -4.327 -29.646  0.00  0.00     0.092 H 
ATOM     73  H   IDS d1712     -16.731  -2.607 -25.360  0.00  0.00     0.133 H 
ATOM     74  H   IDS d1712     -16.414  -4.895 -28.101  0.00  0.00     0.104 H 
ATOM     75  H   IDS d1712     -18.018  -1.830 -29.297  0.00  0.00     0.091 H 
ATOM     76  H   IDS d1712     -15.633  -3.386 -28.932  0.00  0.00     0.210 HD
ATOM     77  H   IDS d1712     -16.344  -1.259 -27.540  0.00  0.00     0.097 H 
ATOM     78  O62 IDS d1710     -11.219  -1.175 -27.816  0.00  0.00    -0.646 OA
ATOM     79  O2  IDS d1710      -9.199  -5.742 -27.090  0.00  0.00    -0.244 OA
ATOM     80  O1S IDS d1710      -9.979  -7.703 -28.383  0.00  0.00    -0.572 OA
ATOM     81  C3  IDS d1710      -8.688  -4.199 -25.304  0.00  0.00     0.094 C 
ATOM     82  O3  IDS d1710      -7.596  -3.549 -24.650  0.00  0.00    -0.390 OA
ATOM     83  O4  IDS d1710     -11.072  -3.927 -25.747  0.00  0.00    -0.348 OA
ATOM     84  O5  IDS d1710      -9.323  -2.846 -27.720  0.00  0.00    -0.340 OA
ATOM     85  C6  IDS d1710     -10.651  -1.152 -26.695  0.00  0.00     0.206 C 
ATOM     86  O2S IDS d1710      -8.034  -6.426 -29.128  0.00  0.00    -0.572 OA
ATOM     87  C5  IDS d1710      -9.568  -2.175 -26.468  0.00  0.00     0.152 C 
ATOM     88  S   IDS d1710      -8.777  -6.972 -27.973  0.00  0.00     0.252 S 
ATOM     89  C2  IDS d1710      -8.253  -4.749 -26.670  0.00  0.00     0.134 C 
ATOM     90  O3S IDS d1710      -7.905  -7.733 -27.074  0.00  0.00    -0.572 OA
ATOM     91  C4  IDS d1710      -9.871  -3.229 -25.393  0.00  0.00     0.103 C 
ATOM     92  C1  IDS d1710      -8.159  -3.670 -27.762  0.00  0.00     0.161 C 
ATOM     93  O61 IDS d1710     -10.951  -0.355 -25.779  0.00  0.00    -0.646 OA
ATOM     94  H   IDS d1710      -9.009  -5.046 -24.734  0.00  0.00     0.091 H 
ATOM     95  H   IDS d1710      -7.315  -2.783 -25.175  0.00  0.00     0.210 HD
ATOM     96  H   IDS d1710      -8.719  -1.636 -26.105  0.00  0.00     0.104 H 
ATOM     97  H   IDS d1710      -7.271  -5.158 -26.545  0.00  0.00     0.097 H 
ATOM     98  H   IDS d1710     -10.012  -2.764 -24.439  0.00  0.00     0.092 H 
ATOM     99  H   IDS d1710      -8.098  -4.115 -28.732  0.00  0.00     0.133 H 
ATOM    100  C4  SGN d1713     -22.497  -4.150 -26.657  0.00  0.00     0.095 C 
ATOM    101  N   SGN d1713     -21.479  -2.117 -29.629  0.00  0.00    -0.210 NA
ATOM    102  O4S SGN d1713     -23.785  -7.975 -24.600  0.00  0.00    -0.572 OA
ATOM    103  O4  SGN d1713     -22.643  -3.835 -25.262  0.00  0.00    -0.348 OA
ATOM    104  C2  SGN d1713     -21.794  -3.307 -28.876  0.00  0.00     0.081 C 
ATOM    105  O6  SGN d1713     -22.726  -7.011 -26.697  0.00  0.00    -0.254 OA
ATOM    106  O2S SGN d1713     -22.701  -2.799 -31.580  0.00  0.00    -0.296 OA
ATOM    107  O3S SGN d1713     -21.483  -0.526 -31.651  0.00  0.00    -0.296 OA
ATOM    108  C6  SGN d1713     -21.570  -6.450 -26.063  0.00  0.00     0.067 C 
ATOM    109  O5S SGN d1713     -22.201  -9.355 -25.871  0.00  0.00    -0.572 OA
ATOM    110  C5  SGN d1713     -21.281  -5.110 -26.671  0.00  0.00     0.091 C 
ATOM    111  O3  SGN d1713     -23.485  -2.202 -27.606  0.00  0.00    -0.391 OA
ATOM    112  O1S SGN d1713     -20.305  -2.689 -31.705  0.00  0.00    -0.296 OA
ATOM    113  S1  SGN d1713     -21.512  -2.076 -31.230  0.00  0.00     0.156 S 
ATOM    114  O5  SGN d1713     -20.918  -5.401 -28.039  0.00  0.00    -0.349 OA
ATOM    115  S2  SGN d1713     -23.360  -8.258 -25.987  0.00  0.00     0.251 S 
ATOM    116  O6S SGN d1713     -24.418  -8.666 -26.882  0.00  0.00    -0.572 OA
ATOM    117  C3  SGN d1713     -22.239  -2.895 -27.486  0.00  0.00     0.083 C 
ATOM    118  C1  SGN d1713     -20.592  -4.257 -28.813  0.00  0.00     0.150 C 
ATOM    119  H   SGN d1713     -23.376  -4.583 -27.087  0.00  0.00     0.091 H 
ATOM    120  H   SGN d1713     -20.532  -1.854 -29.358  0.00  0.00     0.140 HD
ATOM    121  H   SGN d1713     -22.585  -3.839 -29.363  0.00  0.00     0.076 H 
ATOM    122  H   SGN d1713     -23.477  -2.334 -31.231  0.00  0.00     0.231 HD
ATOM    123  H   SGN d1713     -22.292  -0.091 -31.339  0.00  0.00     0.231 HD
ATOM    124  H   SGN d1713     -20.731  -7.098 -26.209  0.00  0.00     0.080 H 
ATOM    125  H   SGN d1713     -21.751  -6.338 -25.014  0.00  0.00     0.080 H 
ATOM    126  H   SGN d1713     -20.517  -4.610 -26.112  0.00  0.00     0.090 H 
ATOM    127  H   SGN d1713     -23.789  -1.928 -26.726  0.00  0.00     0.210 HD
ATOM    128  H   SGN d1713     -20.302  -3.628 -31.461  0.00  0.00     0.231 HD
ATOM    129  H   SGN d1713     -21.490  -2.283 -27.028  0.00  0.00     0.089 H 
ATOM    130  H   SGN d1713     -20.324  -4.580 -29.797  0.00  0.00     0.131 H 
ATOM    131  C2  SGN d1711     -12.737  -5.432 -24.986  0.00  0.00     0.081 C 
ATOM    132  O4S SGN d1711     -16.746  -0.343 -23.592  0.00  0.00    -0.572 OA
ATOM    133  S1  SGN d1711     -11.432  -7.643 -24.305  0.00  0.00     0.156 S 
ATOM    134  C3  SGN d1711     -13.789  -5.032 -26.036  0.00  0.00     0.083 C 
ATOM    135  O2S SGN d1711     -12.607  -8.393 -23.982  0.00  0.00    -0.296 OA
ATOM    136  O3  SGN d1711     -14.703  -6.105 -26.286  0.00  0.00    -0.391 OA
ATOM    137  N   SGN d1711     -11.909  -6.564 -25.398  0.00  0.00    -0.210 NA
ATOM    138  C4  SGN d1711     -14.545  -3.800 -25.509  0.00  0.00     0.095 C 
ATOM    139  O4  SGN d1711     -15.244  -3.228 -26.636  0.00  0.00    -0.348 OA
ATOM    140  O6S SGN d1711     -16.035  -1.122 -21.476  0.00  0.00    -0.572 OA
ATOM    141  S2  SGN d1711     -15.605  -0.599 -22.706  0.00  0.00     0.251 S 
ATOM    142  O5  SGN d1711     -12.655  -3.146 -24.174  0.00  0.00    -0.349 OA
ATOM    143  C5  SGN d1711     -13.543  -2.653 -25.195  0.00  0.00     0.091 C 
ATOM    144  O1S SGN d1711     -10.846  -6.924 -23.192  0.00  0.00    -0.296 OA
ATOM    145  O6  SGN d1711     -14.787  -1.693 -23.425  0.00  0.00    -0.254 OA
ATOM    146  O5S SGN d1711     -14.656   0.679 -22.641  0.00  0.00    -0.572 OA
ATOM    147  O3S SGN d1711     -10.319  -8.490 -25.067  0.00  0.00    -0.296 OA
ATOM    148  C1  SGN d1711     -11.844  -4.242 -24.585  0.00  0.00     0.150 C 
ATOM    149  C6  SGN d1711     -14.139  -1.356 -24.645  0.00  0.00     0.067 C 
ATOM    150  H   SGN d1711     -13.300  -5.746 -24.132  0.00  0.00     0.076 H 
ATOM    151  H   SGN d1711     -13.303  -4.804 -26.962  0.00  0.00     0.089 H 
ATOM    152  H   SGN d1711     -13.240  -7.820 -23.522  0.00  0.00     0.231 HD
ATOM    153  H   SGN d1711     -15.162  -6.337 -25.463  0.00  0.00     0.210 HD
ATOM    154  H   SGN d1711     -11.064  -6.174 -25.816  0.00  0.00     0.140 HD
ATOM    155  H   SGN d1711     -15.138  -4.103 -24.672  0.00  0.00     0.091 H 
ATOM    156  H   SGN d1711     -13.092  -2.402 -26.132  0.00  0.00     0.090 H 
ATOM    157  H   SGN d1711     -11.534  -6.412 -22.738  0.00  0.00     0.231 HD
ATOM    158  H   SGN d1711      -9.555  -7.924 -25.254  0.00  0.00     0.231 HD
ATOM    159  H   SGN d1711     -11.204  -4.470 -23.759  0.00  0.00     0.131 H 
ATOM    160  H   SGN d1711     -14.845  -0.950 -25.339  0.00  0.00     0.080 H 
ATOM    161  H   SGN d1711     -13.380  -0.618 -24.488  0.00  0.00     0.080 H 
ENDROOT
TORSDOF 50
ENDMDL
MODEL 13
REMARK VINA RESULT:      -8.6      3.107     15.398
REMARK  0 active torsions:
REMARK  status: ('A' for Active; 'I' for Inactive)
REMARK       I    between atoms: C2_1  and  O2_12 
REMARK       I    between atoms: C1_4  and  O4_37 
REMARK       I    between atoms: O2S_5  and  S1_43 
REMARK       I    between atoms: O2_11  and  C2_82 
REMARK       I    between atoms: O2_11  and  S_80 
REMARK       I    between atoms: O2_12  and  S_23 
REMARK       I    between atoms: C4_13  and  O4_37 
REMARK       I    between atoms: C2_14  and  N_39 
REMARK       I    between atoms: O1_18  and  C1_32 
REMARK       I    between atoms: C4_19  and  O4_53 
REMARK       I    between atoms: O6_20  and  C6_76 
REMARK       I    between atoms: O6_20  and  S2_95 
REMARK       I    between atoms: S1_21  and  N_39 
REMARK       I    between atoms: S1_21  and  O1S_79 
REMARK       I    between atoms: S1_21  and  O2S_30 
REMARK       I    between atoms: S1_21  and  O3S_94 
REMARK       I    between atoms: C3_24  and  O3_26 
REMARK       I    between atoms: C3_25  and  O3_36 
REMARK       I    between atoms: C6_27  and  C5_83 
REMARK       I    between atoms: C4_28  and  O4_51 
REMARK       I    between atoms: N_29  and  C2_40 
REMARK       I    between atoms: N_29  and  S1_71 
REMARK       I    between atoms: C5_31  and  C6_76 
REMARK       I    between atoms: O1S_35  and  S1_43 
REMARK       I    between atoms: O4_38  and  C4_93 
REMARK       I    between atoms: O4_38  and  C1_96 
REMARK       I    between atoms: O6_41  and  C6_54 
REMARK       I    between atoms: O6_41  and  S2_84 
REMARK       I    between atoms: C4_42  and  O4_49 
REMARK       I    between atoms: S1_43  and  N_47 
REMARK       I    between atoms: S1_43  and  O3S_69 
REMARK       I    between atoms: O2S_44  and  S1_71 
REMARK       I    between atoms: N_47  and  C2_56 
REMARK       I    between atoms: O2_48  and  C2_99 
REMARK       I    between atoms: O2_48  and  S_63 
REMARK       I    between atoms: O4_49  and  C1_57 
REMARK       I    between atoms: O4_51  and  C1_102 
REMARK       I    between atoms: O3S_52  and  S1_71 
REMARK       I    between atoms: O4_53  and  C1_105 
REMARK       I    between atoms: C6_54  and  C5_59 
REMARK       I    between atoms: O3_60  and  C3_100 
REMARK       I    between atoms: O1S_61  and  S1_71 
REMARK       I    between atoms: S2_62  and  O6_81 
REMARK       I    between atoms: C5_65  and  C6_89 
REMARK       I    between atoms: C6_67  and  C5_74 
REMARK       I    between atoms: C3_68  and  O3_104 
REMARK       I    between atoms: C3_70  and  O3_85 
REMARK       I    between atoms: C5_77  and  C6_101 
REMARK       I    between atoms: O6_81  and  C6_101 
REMARK       I    between atoms: C3_92  and  O3_98 
ROOT
ATOM      1  C2  IDS d1714      -3.805 -11.444 -29.114  0.00  0.00     0.132 C 
ATOM      2  O3S IDS d1714      -1.079 -12.283 -31.666  0.00  0.00    -0.572 OA
ATOM      3  C1  IDS d1714      -4.594 -12.505 -28.391  0.00  0.00     0.161 C 
ATOM      4  O2S IDS d1714      -2.182 -10.161 -31.227  0.00  0.00    -0.572 OA
ATOM      5  O2  IDS d1714      -2.818 -12.109 -29.920  0.00  0.00    -0.244 OA
ATOM      6  S   IDS d1714      -2.359 -11.634 -31.311  0.00  0.00     0.252 S 
ATOM      7  C6  IDS d1714      -2.526 -13.123 -25.367  0.00  0.00     0.203 C 
ATOM      8  O5  IDS d1714      -3.721 -13.150 -27.447  0.00  0.00    -0.343 OA
ATOM      9  C4  IDS d1714      -2.483 -11.079 -26.923  0.00  0.00    -0.005 C 
ATOM     10  O61 IDS d1714      -2.519 -14.370 -25.509  0.00  0.00    -0.646 OA
ATOM     11  C3  IDS d1714      -3.093 -10.463 -28.189  0.00  0.00     0.069 C 
ATOM     12  C5  IDS d1714      -3.253 -12.290 -26.411  0.00  0.00     0.127 C 
ATOM     13  O3  IDS d1714      -3.989  -9.394 -27.847  0.00  0.00    -0.393 OA
ATOM     14  O1S IDS d1714      -3.473 -11.970 -32.205  0.00  0.00    -0.572 OA
ATOM     15  O62 IDS d1714      -1.962 -12.560 -24.400  0.00  0.00    -0.646 OA
ATOM     16  H   IDS d1714      -4.498 -10.869 -29.691  0.00  0.00     0.097 H 
ATOM     17  H   IDS d1714      -4.983 -13.286 -29.010  0.00  0.00     0.133 H 
ATOM     18  H   IDS d1714      -2.471 -10.335 -26.155  0.00  0.00     0.041 H 
ATOM     19  H   IDS d1714      -1.498 -11.414 -27.176  0.00  0.00     0.041 H 
ATOM     20  H   IDS d1714      -2.253 -10.098 -28.743  0.00  0.00     0.087 H 
ATOM     21  H   IDS d1714      -4.091 -11.833 -25.929  0.00  0.00     0.100 H 
ATOM     22  H   IDS d1714      -4.740  -9.749 -27.347  0.00  0.00     0.210 HD
ATOM     23  O5  SGN d1709     -20.702  -1.152 -23.972  0.00  0.00    -0.350 OA
ATOM     24  O2S SGN d1709     -19.391   0.783 -19.890  0.00  0.00    -0.296 OA
ATOM     25  O4S SGN d1709     -22.958  -2.892 -28.317  0.00  0.00    -0.572 OA
ATOM     26  O1  SGN d1709     -19.858   1.008 -23.560  0.00  0.00    -0.369 OA
ATOM     27  O6  SGN d1709     -22.210  -1.694 -26.322  0.00  0.00    -0.254 OA
ATOM     28  C4  SGN d1709     -18.720  -2.012 -24.963  0.00  0.00     0.095 C 
ATOM     29  C5  SGN d1709     -20.076  -1.355 -25.240  0.00  0.00     0.091 C 
ATOM     30  C1  SGN d1709     -20.011  -0.313 -23.048  0.00  0.00     0.147 C 
ATOM     31  O5S SGN d1709     -24.636  -1.502 -27.006  0.00  0.00    -0.572 OA
ATOM     32  O1S SGN d1709     -17.030   0.585 -19.599  0.00  0.00    -0.296 OA
ATOM     33  S1  SGN d1709     -18.209   0.031 -20.226  0.00  0.00     0.156 S 
ATOM     34  N   SGN d1709     -17.934  -0.028 -21.795  0.00  0.00    -0.210 NA
ATOM     35  O4  SGN d1709     -18.079  -2.026 -26.249  0.00  0.00    -0.348 OA
ATOM     36  C2  SGN d1709     -18.649  -0.920 -22.701  0.00  0.00     0.081 C 
ATOM     37  C3  SGN d1709     -17.884  -1.183 -24.003  0.00  0.00     0.083 C 
ATOM     38  O3S SGN d1709     -18.423  -1.451 -19.776  0.00  0.00    -0.296 OA
ATOM     39  C6  SGN d1709     -20.974  -2.317 -26.026  0.00  0.00     0.067 C 
ATOM     40  S2  SGN d1709     -23.346  -2.516 -26.959  0.00  0.00     0.251 S 
ATOM     41  O6S SGN d1709     -23.658  -3.631 -26.053  0.00  0.00    -0.572 OA
ATOM     42  O3  SGN d1709     -16.696  -1.894 -23.653  0.00  0.00    -0.391 OA
ATOM     43  H   SGN d1709     -19.275   1.707 -20.163  0.00  0.00     0.231 HD
ATOM     44  H   SGN d1709     -20.730   1.375 -23.773  0.00  0.00     0.212 HD
ATOM     45  H   SGN d1709     -18.832  -2.978 -24.517  0.00  0.00     0.091 H 
ATOM     46  H   SGN d1709     -19.937  -0.448 -25.790  0.00  0.00     0.090 H 
ATOM     47  H   SGN d1709     -20.598  -0.248 -22.155  0.00  0.00     0.131 H 
ATOM     48  H   SGN d1709     -16.911   1.504 -19.887  0.00  0.00     0.231 HD
ATOM     49  H   SGN d1709     -16.946  -0.258 -21.897  0.00  0.00     0.140 HD
ATOM     50  H   SGN d1709     -18.760  -1.854 -22.192  0.00  0.00     0.076 H 
ATOM     51  H   SGN d1709     -17.654  -0.261 -24.493  0.00  0.00     0.089 H 
ATOM     52  H   SGN d1709     -18.596  -1.478 -18.822  0.00  0.00     0.231 HD
ATOM     53  H   SGN d1709     -20.487  -2.590 -26.939  0.00  0.00     0.080 H 
ATOM     54  H   SGN d1709     -21.153  -3.191 -25.436  0.00  0.00     0.080 H 
ATOM     55  H   SGN d1709     -16.934  -2.725 -23.211  0.00  0.00     0.210 HD
ATOM     56  O1S IDS d1712      -6.837  -8.104 -23.795  0.00  0.00    -0.572 OA
ATOM     57  O2S IDS d1712      -9.029  -7.569 -22.818  0.00  0.00    -0.572 OA
ATOM     58  O61 IDS d1712     -12.174 -12.018 -28.302  0.00  0.00    -0.646 OA
ATOM     59  O5  IDS d1712     -10.338  -9.042 -27.568  0.00  0.00    -0.340 OA
ATOM     60  C4  IDS d1712     -10.911 -10.765 -25.976  0.00  0.00     0.103 C 
ATOM     61  O2  IDS d1712      -8.812  -8.566 -24.999  0.00  0.00    -0.244 OA
ATOM     62  O4  IDS d1712      -9.560 -11.242 -25.969  0.00  0.00    -0.348 OA
ATOM     63  C1  IDS d1712     -10.397  -7.952 -26.660  0.00  0.00     0.161 C 
ATOM     64  S   IDS d1712      -8.227  -8.530 -23.583  0.00  0.00     0.252 S 
ATOM     65  C5  IDS d1712     -11.272 -10.096 -27.309  0.00  0.00     0.152 C 
ATOM     66  O62 IDS d1712     -10.625 -10.947 -29.432  0.00  0.00    -0.646 OA
ATOM     67  O3S IDS d1712      -8.339  -9.916 -23.038  0.00  0.00    -0.572 OA
ATOM     68  C6  IDS d1712     -11.353 -11.082 -28.432  0.00  0.00     0.206 C 
ATOM     69  C3  IDS d1712     -11.027  -9.708 -24.888  0.00  0.00     0.094 C 
ATOM     70  O3  IDS d1712     -12.405  -9.343 -24.721  0.00  0.00    -0.390 OA
ATOM     71  C2  IDS d1712     -10.220  -8.432 -25.242  0.00  0.00     0.134 C 
ATOM     72  H   IDS d1712     -11.569 -11.595 -25.822  0.00  0.00     0.092 H 
ATOM     73  H   IDS d1712      -9.607  -7.277 -26.920  0.00  0.00     0.133 H 
ATOM     74  H   IDS d1712     -12.253  -9.674 -27.236  0.00  0.00     0.104 H 
ATOM     75  H   IDS d1712     -10.630 -10.124 -23.986  0.00  0.00     0.091 H 
ATOM     76  H   IDS d1712     -12.743  -8.969 -25.550  0.00  0.00     0.210 HD
ATOM     77  H   IDS d1712     -10.639  -7.702 -24.580  0.00  0.00     0.097 H 
ATOM     78  O62 IDS d1710     -14.518  -4.341 -24.528  0.00  0.00    -0.646 OA
ATOM     79  O2  IDS d1710     -17.270  -4.543 -28.753  0.00  0.00    -0.244 OA
ATOM     80  O1S IDS d1710     -18.164  -6.693 -29.592  0.00  0.00    -0.572 OA
ATOM     81  C3  IDS d1710     -16.051  -2.470 -28.529  0.00  0.00     0.094 C 
ATOM     82  O3  IDS d1710     -16.236  -1.058 -28.408  0.00  0.00    -0.390 OA
ATOM     83  O4  IDS d1710     -14.459  -4.232 -27.971  0.00  0.00    -0.348 OA
ATOM     84  O5  IDS d1710     -16.469  -3.727 -26.016  0.00  0.00    -0.340 OA
ATOM     85  C6  IDS d1710     -14.284  -3.285 -25.170  0.00  0.00     0.206 C 
ATOM     86  O2S IDS d1710     -19.541  -5.247 -28.186  0.00  0.00    -0.572 OA
ATOM     87  C5  IDS d1710     -15.325  -2.865 -26.174  0.00  0.00     0.152 C 
ATOM     88  S   IDS d1710     -18.539  -5.314 -29.269  0.00  0.00     0.252 S 
ATOM     89  C2  IDS d1710     -17.355  -3.217 -28.212  0.00  0.00     0.134 C 
ATOM     90  O3S IDS d1710     -18.944  -4.526 -30.437  0.00  0.00    -0.572 OA
ATOM     91  C4  IDS d1710     -14.878  -2.901 -27.644  0.00  0.00     0.103 C 
ATOM     92  C1  IDS d1710     -17.650  -3.320 -26.706  0.00  0.00     0.161 C 
ATOM     93  O61 IDS d1710     -13.245  -2.603 -25.031  0.00  0.00    -0.646 OA
ATOM     94  H   IDS d1710     -15.804  -2.725 -29.538  0.00  0.00     0.091 H 
ATOM     95  H   IDS d1710     -16.460  -0.839 -27.489  0.00  0.00     0.210 HD
ATOM     96  H   IDS d1710     -15.540  -1.837 -25.970  0.00  0.00     0.104 H 
ATOM     97  H   IDS d1710     -18.153  -2.655 -28.652  0.00  0.00     0.097 H 
ATOM     98  H   IDS d1710     -14.057  -2.234 -27.804  0.00  0.00     0.092 H 
ATOM     99  H   IDS d1710     -18.414  -4.045 -26.518  0.00  0.00     0.133 H 
ATOM    100  C4  SGN d1713      -6.698 -12.638 -27.245  0.00  0.00     0.095 C 
ATOM    101  N   SGN d1713      -8.393 -12.800 -23.913  0.00  0.00    -0.210 NA
ATOM    102  O4S SGN d1713      -5.992 -13.985 -31.513  0.00  0.00    -0.572 OA
ATOM    103  O4  SGN d1713      -5.677 -11.780 -27.782  0.00  0.00    -0.348 OA
ATOM    104  C2  SGN d1713      -8.171 -13.093 -25.308  0.00  0.00     0.081 C 
ATOM    105  O6  SGN d1713      -7.612 -14.073 -29.558  0.00  0.00    -0.254 OA
ATOM    106  O2S SGN d1713      -8.867 -15.075 -23.313  0.00  0.00    -0.296 OA
ATOM    107  O3S SGN d1713      -8.959 -13.291 -21.452  0.00  0.00    -0.296 OA
ATOM    108  C6  SGN d1713      -7.888 -12.667 -29.501  0.00  0.00     0.067 C 
ATOM    109  O5S SGN d1713      -8.390 -14.258 -31.969  0.00  0.00    -0.572 OA
ATOM    110  C5  SGN d1713      -7.952 -12.240 -28.065  0.00  0.00     0.091 C 
ATOM    111  O3  SGN d1713      -5.798 -13.013 -25.072  0.00  0.00    -0.391 OA
ATOM    112  O1S SGN d1713     -10.652 -13.470 -23.233  0.00  0.00    -0.296 OA
ATOM    113  S1  SGN d1713      -9.269 -13.743 -22.961  0.00  0.00     0.156 S 
ATOM    114  O5  SGN d1713      -9.108 -12.925 -27.533  0.00  0.00    -0.349 OA
ATOM    115  S2  SGN d1713      -7.201 -14.634 -30.965  0.00  0.00     0.251 S 
ATOM    116  O6S SGN d1713      -7.090 -16.058 -30.751  0.00  0.00    -0.572 OA
ATOM    117  C3  SGN d1713      -6.898 -12.399 -25.751  0.00  0.00     0.083 C 
ATOM    118  C1  SGN d1713      -9.366 -12.655 -26.163  0.00  0.00     0.150 C 
ATOM    119  H   SGN d1713      -6.462 -13.679 -27.324  0.00  0.00     0.091 H 
ATOM    120  H   SGN d1713      -8.834 -11.880 -23.884  0.00  0.00     0.140 HD
ATOM    121  H   SGN d1713      -8.067 -14.151 -25.439  0.00  0.00     0.076 H 
ATOM    122  H   SGN d1713      -7.927 -15.194 -23.106  0.00  0.00     0.231 HD
ATOM    123  H   SGN d1713      -8.028 -13.467 -21.247  0.00  0.00     0.231 HD
ATOM    124  H   SGN d1713      -8.825 -12.466 -29.977  0.00  0.00     0.080 H 
ATOM    125  H   SGN d1713      -7.114 -12.126 -30.004  0.00  0.00     0.080 H 
ATOM    126  H   SGN d1713      -8.006 -11.173 -28.002  0.00  0.00     0.090 H 
ATOM    127  H   SGN d1713      -4.971 -12.583 -25.342  0.00  0.00     0.210 HD
ATOM    128  H   SGN d1713     -10.862 -13.736 -24.142  0.00  0.00     0.231 HD
ATOM    129  H   SGN d1713      -6.958 -11.352 -25.538  0.00  0.00     0.089 H 
ATOM    130  H   SGN d1713     -10.245 -13.192 -25.873  0.00  0.00     0.131 H 
ATOM    131  C2  SGN d1711     -13.361  -5.580 -29.584  0.00  0.00     0.081 C 
ATOM    132  O4S SGN d1711      -7.747  -5.256 -26.077  0.00  0.00    -0.572 OA
ATOM    133  S1  SGN d1711     -14.744  -5.261 -31.829  0.00  0.00     0.156 S 
ATOM    134  C3  SGN d1711     -13.044  -6.736 -28.619  0.00  0.00     0.083 C 
ATOM    135  O2S SGN d1711     -13.976  -6.199 -32.589  0.00  0.00    -0.296 OA
ATOM    136  O3  SGN d1711     -12.914  -7.975 -29.324  0.00  0.00    -0.391 OA
ATOM    137  N   SGN d1711     -14.622  -5.753 -30.303  0.00  0.00    -0.210 NA
ATOM    138  C4  SGN d1711     -11.734  -6.401 -27.886  0.00  0.00     0.095 C 
ATOM    139  O4  SGN d1711     -11.655  -7.287 -26.749  0.00  0.00    -0.348 OA
ATOM    140  O6S SGN d1711      -7.345  -3.872 -27.951  0.00  0.00    -0.572 OA
ATOM    141  S2  SGN d1711      -8.170  -4.072 -26.833  0.00  0.00     0.251 S 
ATOM    142  O5  SGN d1711     -12.111  -4.044 -28.178  0.00  0.00    -0.349 OA
ATOM    143  C5  SGN d1711     -11.863  -5.031 -27.160  0.00  0.00     0.091 C 
ATOM    144  O1S SGN d1711     -14.270  -3.893 -31.897  0.00  0.00    -0.296 OA
ATOM    145  O6  SGN d1711      -9.585  -4.417 -27.345  0.00  0.00    -0.254 OA
ATOM    146  O5S SGN d1711      -8.356  -2.828 -25.855  0.00  0.00    -0.572 OA
ATOM    147  O3S SGN d1711     -16.308  -5.322 -32.125  0.00  0.00    -0.296 OA
ATOM    148  C1  SGN d1711     -13.345  -4.214 -28.868  0.00  0.00     0.150 C 
ATOM    149  C6  SGN d1711     -10.633  -4.544 -26.392  0.00  0.00     0.067 C 
ATOM    150  H   SGN d1711     -12.577  -5.598 -30.311  0.00  0.00     0.076 H 
ATOM    151  H   SGN d1711     -13.845  -6.849 -27.918  0.00  0.00     0.089 H 
ATOM    152  H   SGN d1711     -13.038  -6.108 -32.361  0.00  0.00     0.231 HD
ATOM    153  H   SGN d1711     -12.194  -7.906 -29.969  0.00  0.00     0.210 HD
ATOM    154  H   SGN d1711     -15.336  -5.254 -29.773  0.00  0.00     0.140 HD
ATOM    155  H   SGN d1711     -10.933  -6.445 -28.594  0.00  0.00     0.091 H 
ATOM    156  H   SGN d1711     -12.637  -5.164 -26.433  0.00  0.00     0.090 H 
ATOM    157  H   SGN d1711     -13.318  -3.871 -31.715  0.00  0.00     0.231 HD
ATOM    158  H   SGN d1711     -16.766  -4.664 -31.579  0.00  0.00     0.231 HD
ATOM    159  H   SGN d1711     -13.426  -3.393 -29.550  0.00  0.00     0.131 H 
ATOM    160  H   SGN d1711     -10.363  -5.254 -25.639  0.00  0.00     0.080 H 
ATOM    161  H   SGN d1711     -10.826  -3.612 -25.904  0.00  0.00     0.080 H 
ENDROOT
TORSDOF 50
ENDMDL
MODEL 14
REMARK VINA RESULT:      -8.4      4.039     16.009
REMARK  0 active torsions:
REMARK  status: ('A' for Active; 'I' for Inactive)
REMARK       I    between atoms: C2_1  and  O2_12 
REMARK       I    between atoms: C1_4  and  O4_37 
REMARK       I    between atoms: O2S_5  and  S1_43 
REMARK       I    between atoms: O2_11  and  C2_82 
REMARK       I    between atoms: O2_11  and  S_80 
REMARK       I    between atoms: O2_12  and  S_23 
REMARK       I    between atoms: C4_13  and  O4_37 
REMARK       I    between atoms: C2_14  and  N_39 
REMARK       I    between atoms: O1_18  and  C1_32 
REMARK       I    between atoms: C4_19  and  O4_53 
REMARK       I    between atoms: O6_20  and  C6_76 
REMARK       I    between atoms: O6_20  and  S2_95 
REMARK       I    between atoms: S1_21  and  N_39 
REMARK       I    between atoms: S1_21  and  O1S_79 
REMARK       I    between atoms: S1_21  and  O2S_30 
REMARK       I    between atoms: S1_21  and  O3S_94 
REMARK       I    between atoms: C3_24  and  O3_26 
REMARK       I    between atoms: C3_25  and  O3_36 
REMARK       I    between atoms: C6_27  and  C5_83 
REMARK       I    between atoms: C4_28  and  O4_51 
REMARK       I    between atoms: N_29  and  C2_40 
REMARK       I    between atoms: N_29  and  S1_71 
REMARK       I    between atoms: C5_31  and  C6_76 
REMARK       I    between atoms: O1S_35  and  S1_43 
REMARK       I    between atoms: O4_38  and  C4_93 
REMARK       I    between atoms: O4_38  and  C1_96 
REMARK       I    between atoms: O6_41  and  C6_54 
REMARK       I    between atoms: O6_41  and  S2_84 
REMARK       I    between atoms: C4_42  and  O4_49 
REMARK       I    between atoms: S1_43  and  N_47 
REMARK       I    between atoms: S1_43  and  O3S_69 
REMARK       I    between atoms: O2S_44  and  S1_71 
REMARK       I    between atoms: N_47  and  C2_56 
REMARK       I    between atoms: O2_48  and  C2_99 
REMARK       I    between atoms: O2_48  and  S_63 
REMARK       I    between atoms: O4_49  and  C1_57 
REMARK       I    between atoms: O4_51  and  C1_102 
REMARK       I    between atoms: O3S_52  and  S1_71 
REMARK       I    between atoms: O4_53  and  C1_105 
REMARK       I    between atoms: C6_54  and  C5_59 
REMARK       I    between atoms: O3_60  and  C3_100 
REMARK       I    between atoms: O1S_61  and  S1_71 
REMARK       I    between atoms: S2_62  and  O6_81 
REMARK       I    between atoms: C5_65  and  C6_89 
REMARK       I    between atoms: C6_67  and  C5_74 
REMARK       I    between atoms: C3_68  and  O3_104 
REMARK       I    between atoms: C3_70  and  O3_85 
REMARK       I    between atoms: C5_77  and  C6_101 
REMARK       I    between atoms: O6_81  and  C6_101 
REMARK       I    between atoms: C3_92  and  O3_98 
ROOT
ATOM      1  C2  IDS d1714      -2.151 -10.690 -25.606  0.00  0.00     0.132 C 
ATOM      2  O3S IDS d1714       1.625 -10.884 -25.011  0.00  0.00    -0.572 OA
ATOM      3  C1  IDS d1714      -2.824 -11.361 -26.775  0.00  0.00     0.161 C 
ATOM      4  O2S IDS d1714      -0.024  -9.409 -24.000  0.00  0.00    -0.572 OA
ATOM      5  O2  IDS d1714      -0.758 -11.040 -25.644  0.00  0.00    -0.244 OA
ATOM      6  S   IDS d1714       0.394 -10.099 -25.248  0.00  0.00     0.252 S 
ATOM      7  C6  IDS d1714      -3.626 -14.724 -25.416  0.00  0.00     0.203 C 
ATOM      8  O5  IDS d1714      -2.796 -12.782 -26.554  0.00  0.00    -0.343 OA
ATOM      9  C4  IDS d1714      -3.091 -12.577 -24.112  0.00  0.00    -0.005 C 
ATOM     10  O61 IDS d1714      -3.126 -15.342 -26.388  0.00  0.00    -0.646 OA
ATOM     11  C3  IDS d1714      -2.715 -11.095 -24.249  0.00  0.00     0.069 C 
ATOM     12  C5  IDS d1714      -3.550 -13.206 -25.421  0.00  0.00     0.127 C 
ATOM     13  O3  IDS d1714      -3.838 -10.259 -23.930  0.00  0.00    -0.393 OA
ATOM     14  O1S IDS d1714       0.493  -9.144 -26.357  0.00  0.00    -0.572 OA
ATOM     15  O62 IDS d1714      -4.178 -15.320 -24.461  0.00  0.00    -0.646 OA
ATOM     16  H   IDS d1714      -2.320  -9.638 -25.702  0.00  0.00     0.097 H 
ATOM     17  H   IDS d1714      -2.355 -11.204 -27.724  0.00  0.00     0.133 H 
ATOM     18  H   IDS d1714      -3.884 -12.660 -23.398  0.00  0.00     0.041 H 
ATOM     19  H   IDS d1714      -2.212 -13.100 -23.800  0.00  0.00     0.041 H 
ATOM     20  H   IDS d1714      -1.918 -10.953 -23.549  0.00  0.00     0.087 H 
ATOM     21  H   IDS d1714      -4.551 -12.836 -25.507  0.00  0.00     0.100 H 
ATOM     22  H   IDS d1714      -4.545 -10.405 -24.577  0.00  0.00     0.210 HD
ATOM     23  O5  SGN d1709     -19.270   0.348 -27.339  0.00  0.00    -0.350 OA
ATOM     24  O2S SGN d1709     -22.104  -1.875 -24.313  0.00  0.00    -0.296 OA
ATOM     25  O4S SGN d1709     -16.868   3.330 -30.851  0.00  0.00    -0.572 OA
ATOM     26  O1  SGN d1709     -19.746   0.876 -25.094  0.00  0.00    -0.369 OA
ATOM     27  O6  SGN d1709     -18.268   2.332 -29.113  0.00  0.00    -0.254 OA
ATOM     28  C4  SGN d1709     -17.085  -0.498 -26.941  0.00  0.00     0.095 C 
ATOM     29  C5  SGN d1709     -17.897   0.741 -27.333  0.00  0.00     0.091 C 
ATOM     30  C1  SGN d1709     -19.802  -0.128 -26.104  0.00  0.00     0.147 C 
ATOM     31  O5S SGN d1709     -19.273   4.113 -30.598  0.00  0.00    -0.572 OA
ATOM     32  O1S SGN d1709     -20.846  -3.371 -22.944  0.00  0.00    -0.296 OA
ATOM     33  S1  SGN d1709     -20.915  -2.680 -24.212  0.00  0.00     0.156 S 
ATOM     34  N   SGN d1709     -19.574  -1.832 -24.369  0.00  0.00    -0.210 NA
ATOM     35  O4  SGN d1709     -15.748   0.006 -26.785  0.00  0.00    -0.348 OA
ATOM     36  C2  SGN d1709     -19.054  -1.387 -25.656  0.00  0.00     0.081 C 
ATOM     37  C3  SGN d1709     -17.553  -1.076 -25.617  0.00  0.00     0.083 C 
ATOM     38  O3S SGN d1709     -20.910  -3.704 -25.395  0.00  0.00    -0.296 OA
ATOM     39  C6  SGN d1709     -17.552   1.161 -28.766  0.00  0.00     0.067 C 
ATOM     40  S2  SGN d1709     -18.220   2.855 -30.561  0.00  0.00     0.251 S 
ATOM     41  O6S SGN d1709     -18.726   1.793 -31.441  0.00  0.00    -0.572 OA
ATOM     42  O3  SGN d1709     -16.878  -2.307 -25.357  0.00  0.00    -0.391 OA
ATOM     43  H   SGN d1709     -22.123  -1.233 -23.586  0.00  0.00     0.231 HD
ATOM     44  H   SGN d1709     -20.225   1.664 -25.395  0.00  0.00     0.212 HD
ATOM     45  H   SGN d1709     -17.178  -1.278 -27.667  0.00  0.00     0.091 H 
ATOM     46  H   SGN d1709     -17.692   1.542 -26.655  0.00  0.00     0.090 H 
ATOM     47  H   SGN d1709     -20.832  -0.374 -26.258  0.00  0.00     0.131 H 
ATOM     48  H   SGN d1709     -20.850  -2.723 -22.222  0.00  0.00     0.231 HD
ATOM     49  H   SGN d1709     -18.836  -2.396 -23.949  0.00  0.00     0.140 HD
ATOM     50  H   SGN d1709     -19.203  -2.191 -26.346  0.00  0.00     0.076 H 
ATOM     51  H   SGN d1709     -17.342  -0.351 -24.859  0.00  0.00     0.089 H 
ATOM     52  H   SGN d1709     -21.710  -4.253 -25.351  0.00  0.00     0.231 HD
ATOM     53  H   SGN d1709     -16.502   1.355 -28.836  0.00  0.00     0.080 H 
ATOM     54  H   SGN d1709     -17.821   0.373 -29.437  0.00  0.00     0.080 H 
ATOM     55  H   SGN d1709     -17.086  -2.945 -26.058  0.00  0.00     0.210 HD
ATOM     56  O1S IDS d1712      -8.935 -10.721 -23.987  0.00  0.00    -0.572 OA
ATOM     57  O2S IDS d1712     -11.133  -9.945 -24.766  0.00  0.00    -0.572 OA
ATOM     58  O61 IDS d1712      -7.574  -7.307 -31.100  0.00  0.00    -0.646 OA
ATOM     59  O5  IDS d1712      -7.950  -7.028 -27.558  0.00  0.00    -0.340 OA
ATOM     60  C4  IDS d1712      -8.927  -8.749 -28.941  0.00  0.00     0.103 C 
ATOM     61  O2  IDS d1712      -9.083  -9.201 -25.784  0.00  0.00    -0.244 OA
ATOM     62  O4  IDS d1712      -7.976  -9.707 -28.463  0.00  0.00    -0.348 OA
ATOM     63  C1  IDS d1712      -8.996  -6.971 -26.600  0.00  0.00     0.161 C 
ATOM     64  S   IDS d1712      -9.789 -10.398 -25.137  0.00  0.00     0.252 S 
ATOM     65  C5  IDS d1712      -8.369  -7.321 -28.896  0.00  0.00     0.152 C 
ATOM     66  O62 IDS d1712      -6.149  -6.750 -29.525  0.00  0.00    -0.646 OA
ATOM     67  O3S IDS d1712      -9.824 -11.480 -26.165  0.00  0.00    -0.572 OA
ATOM     68  C6  IDS d1712      -7.280  -7.107 -29.901  0.00  0.00     0.206 C 
ATOM     69  C3  IDS d1712     -10.131  -8.799 -28.011  0.00  0.00     0.094 C 
ATOM     70  O3  IDS d1712     -11.192  -8.004 -28.560  0.00  0.00    -0.390 OA
ATOM     71  C2  IDS d1712      -9.787  -8.254 -26.601  0.00  0.00     0.134 C 
ATOM     72  H   IDS d1712      -9.174  -8.987 -29.955  0.00  0.00     0.092 H 
ATOM     73  H   IDS d1712      -8.544  -6.819 -25.642  0.00  0.00     0.133 H 
ATOM     74  H   IDS d1712      -9.142  -6.633 -29.171  0.00  0.00     0.104 H 
ATOM     75  H   IDS d1712     -10.429  -9.822 -27.919  0.00  0.00     0.091 H 
ATOM     76  H   IDS d1712     -10.900  -7.082 -28.634  0.00  0.00     0.210 HD
ATOM     77  H   IDS d1712     -10.754  -8.060 -26.186  0.00  0.00     0.097 H 
ATOM     78  O62 IDS d1710     -14.164  -4.227 -26.025  0.00  0.00    -0.646 OA
ATOM     79  O2  IDS d1710     -12.628  -0.201 -28.652  0.00  0.00    -0.244 OA
ATOM     80  O1S IDS d1710     -11.870  -0.420 -30.998  0.00  0.00    -0.572 OA
ATOM     81  C3  IDS d1710     -12.715   0.211 -26.273  0.00  0.00     0.094 C 
ATOM     82  O3  IDS d1710     -13.357   1.026 -25.291  0.00  0.00    -0.390 OA
ATOM     83  O4  IDS d1710     -11.622  -1.955 -26.526  0.00  0.00    -0.348 OA
ATOM     84  O5  IDS d1710     -14.425  -1.924 -27.038  0.00  0.00    -0.340 OA
ATOM     85  C6  IDS d1710     -13.881  -3.329 -25.191  0.00  0.00     0.206 C 
ATOM     86  O2S IDS d1710     -14.185   0.181 -30.498  0.00  0.00    -0.572 OA
ATOM     87  C5  IDS d1710     -13.894  -1.911 -25.699  0.00  0.00     0.152 C 
ATOM     88  S   IDS d1710     -12.765   0.340 -30.121  0.00  0.00     0.252 S 
ATOM     89  C2  IDS d1710     -13.494   0.242 -27.596  0.00  0.00     0.134 C 
ATOM     90  O3S IDS d1710     -12.392   1.751 -29.983  0.00  0.00    -0.572 OA
ATOM     91  C4  IDS d1710     -12.531  -1.203 -25.713  0.00  0.00     0.103 C 
ATOM     92  C1  IDS d1710     -14.749  -0.647 -27.587  0.00  0.00     0.161 C 
ATOM     93  O61 IDS d1710     -13.577  -3.559 -24.000  0.00  0.00    -0.646 OA
ATOM     94  H   IDS d1710     -11.742   0.598 -26.496  0.00  0.00     0.091 H 
ATOM     95  H   IDS d1710     -14.237   0.666 -25.097  0.00  0.00     0.210 HD
ATOM     96  H   IDS d1710     -14.495  -1.353 -25.012  0.00  0.00     0.104 H 
ATOM     97  H   IDS d1710     -13.822   1.250 -27.743  0.00  0.00     0.097 H 
ATOM     98  H   IDS d1710     -12.131  -1.135 -24.723  0.00  0.00     0.092 H 
ATOM     99  H   IDS d1710     -15.118  -0.793 -28.580  0.00  0.00     0.133 H 
ATOM    100  C4  SGN d1713      -4.885 -11.117 -27.979  0.00  0.00     0.095 C 
ATOM    101  N   SGN d1713      -8.307 -12.518 -28.555  0.00  0.00    -0.210 NA
ATOM    102  O4S SGN d1713      -0.893  -9.461 -29.335  0.00  0.00    -0.572 OA
ATOM    103  O4  SGN d1713      -4.148 -10.799 -26.786  0.00  0.00    -0.348 OA
ATOM    104  C2  SGN d1713      -7.053 -11.889 -28.892  0.00  0.00     0.081 C 
ATOM    105  O6  SGN d1713      -3.276  -9.963 -30.057  0.00  0.00    -0.254 OA
ATOM    106  O2S SGN d1713      -8.321 -13.957 -30.476  0.00  0.00    -0.296 OA
ATOM    107  O3S SGN d1713     -10.308 -14.111 -28.838  0.00  0.00    -0.296 OA
ATOM    108  C6  SGN d1713      -3.923  -9.064 -29.147  0.00  0.00     0.067 C 
ATOM    109  O5S SGN d1713      -1.904  -8.106 -31.116  0.00  0.00    -0.572 OA
ATOM    110  C5  SGN d1713      -5.155  -9.723 -28.602  0.00  0.00     0.091 C 
ATOM    111  O3  SGN d1713      -5.833 -13.198 -27.313  0.00  0.00    -0.391 OA
ATOM    112  O1S SGN d1713      -9.950 -12.197 -30.347  0.00  0.00    -0.296 OA
ATOM    113  S1  SGN d1713      -9.238 -13.228 -29.648  0.00  0.00     0.156 S 
ATOM    114  O5  SGN d1713      -6.024  -9.873 -29.747  0.00  0.00    -0.349 OA
ATOM    115  S2  SGN d1713      -1.817  -9.573 -30.482  0.00  0.00     0.251 S 
ATOM    116  O6S SGN d1713      -1.462 -10.576 -31.461  0.00  0.00    -0.572 OA
ATOM    117  C3  SGN d1713      -6.182 -11.852 -27.651  0.00  0.00     0.083 C 
ATOM    118  C1  SGN d1713      -7.274 -10.480 -29.455  0.00  0.00     0.150 C 
ATOM    119  H   SGN d1713      -4.360 -11.775 -28.639  0.00  0.00     0.091 H 
ATOM    120  H   SGN d1713      -8.880 -11.792 -28.123  0.00  0.00     0.140 HD
ATOM    121  H   SGN d1713      -6.564 -12.456 -29.657  0.00  0.00     0.076 H 
ATOM    122  H   SGN d1713      -7.874 -14.635 -29.945  0.00  0.00     0.231 HD
ATOM    123  H   SGN d1713      -9.847 -14.815 -28.356  0.00  0.00     0.231 HD
ATOM    124  H   SGN d1713      -4.195  -8.166 -29.662  0.00  0.00     0.080 H 
ATOM    125  H   SGN d1713      -3.259  -8.822 -28.344  0.00  0.00     0.080 H 
ATOM    126  H   SGN d1713      -5.568  -9.133 -27.811  0.00  0.00     0.090 H 
ATOM    127  H   SGN d1713      -5.275 -13.198 -26.520  0.00  0.00     0.210 HD
ATOM    128  H   SGN d1713      -9.321 -11.650 -30.845  0.00  0.00     0.231 HD
ATOM    129  H   SGN d1713      -6.703 -11.367 -26.852  0.00  0.00     0.089 H 
ATOM    130  H   SGN d1713      -7.845 -10.528 -30.358  0.00  0.00     0.131 H 
ATOM    131  C2  SGN d1711      -9.354  -2.225 -27.161  0.00  0.00     0.081 C 
ATOM    132  O4S SGN d1711      -8.686  -7.164 -22.793  0.00  0.00    -0.572 OA
ATOM    133  S1  SGN d1711      -8.624   0.115 -28.183  0.00  0.00     0.156 S 
ATOM    134  C3  SGN d1711      -9.514  -3.669 -27.672  0.00  0.00     0.083 C 
ATOM    135  O2S SGN d1711      -7.310  -0.311 -28.558  0.00  0.00    -0.296 OA
ATOM    136  O3  SGN d1711      -8.528  -3.977 -28.663  0.00  0.00    -0.391 OA
ATOM    137  N   SGN d1711      -9.523  -1.218 -28.207  0.00  0.00    -0.210 NA
ATOM    138  C4  SGN d1711      -9.377  -4.618 -26.470  0.00  0.00     0.095 C 
ATOM    139  O4  SGN d1711      -9.891  -5.900 -26.892  0.00  0.00    -0.348 OA
ATOM    140  O6S SGN d1711      -7.497  -5.364 -21.825  0.00  0.00    -0.572 OA
ATOM    141  S2  SGN d1711      -8.753  -5.787 -22.290  0.00  0.00     0.251 S 
ATOM    142  O5  SGN d1711     -10.125  -2.902 -24.961  0.00  0.00    -0.349 OA
ATOM    143  C5  SGN d1711     -10.419  -4.249 -25.376  0.00  0.00     0.091 C 
ATOM    144  O1S SGN d1711      -8.719   0.695 -26.858  0.00  0.00    -0.296 OA
ATOM    145  O6  SGN d1711      -9.113  -4.934 -23.525  0.00  0.00    -0.254 OA
ATOM    146  O5S SGN d1711      -9.975  -5.625 -21.280  0.00  0.00    -0.572 OA
ATOM    147  O3S SGN d1711      -9.321   1.064 -29.255  0.00  0.00    -0.296 OA
ATOM    148  C1  SGN d1711     -10.300  -1.925 -25.982  0.00  0.00     0.150 C 
ATOM    149  C6  SGN d1711     -10.402  -5.095 -24.101  0.00  0.00     0.067 C 
ATOM    150  H   SGN d1711      -8.343  -2.160 -26.819  0.00  0.00     0.076 H 
ATOM    151  H   SGN d1711     -10.475  -3.783 -28.130  0.00  0.00     0.089 H 
ATOM    152  H   SGN d1711      -6.946  -0.882 -27.864  0.00  0.00     0.231 HD
ATOM    153  H   SGN d1711      -7.643  -3.883 -28.279  0.00  0.00     0.210 HD
ATOM    154  H   SGN d1711     -10.497  -0.918 -28.175  0.00  0.00     0.140 HD
ATOM    155  H   SGN d1711      -8.362  -4.589 -26.133  0.00  0.00     0.091 H 
ATOM    156  H   SGN d1711     -11.376  -4.406 -25.827  0.00  0.00     0.090 H 
ATOM    157  H   SGN d1711      -8.291   0.107 -26.216  0.00  0.00     0.231 HD
ATOM    158  H   SGN d1711     -10.203   1.314 -28.940  0.00  0.00     0.231 HD
ATOM    159  H   SGN d1711     -10.102  -0.976 -25.529  0.00  0.00     0.131 H 
ATOM    160  H   SGN d1711     -10.575  -6.124 -24.339  0.00  0.00     0.080 H 
ATOM    161  H   SGN d1711     -11.170  -4.788 -23.423  0.00  0.00     0.080 H 
ENDROOT
TORSDOF 50
ENDMDL
MODEL 15
REMARK VINA RESULT:      -8.3      5.479     13.796
REMARK  0 active torsions:
REMARK  status: ('A' for Active; 'I' for Inactive)
REMARK       I    between atoms: C2_1  and  O2_12 
REMARK       I    between atoms: C1_4  and  O4_37 
REMARK       I    between atoms: O2S_5  and  S1_43 
REMARK       I    between atoms: O2_11  and  C2_82 
REMARK       I    between atoms: O2_11  and  S_80 
REMARK       I    between atoms: O2_12  and  S_23 
REMARK       I    between atoms: C4_13  and  O4_37 
REMARK       I    between atoms: C2_14  and  N_39 
REMARK       I    between atoms: O1_18  and  C1_32 
REMARK       I    between atoms: C4_19  and  O4_53 
REMARK       I    between atoms: O6_20  and  C6_76 
REMARK       I    between atoms: O6_20  and  S2_95 
REMARK       I    between atoms: S1_21  and  N_39 
REMARK       I    between atoms: S1_21  and  O1S_79 
REMARK       I    between atoms: S1_21  and  O2S_30 
REMARK       I    between atoms: S1_21  and  O3S_94 
REMARK       I    between atoms: C3_24  and  O3_26 
REMARK       I    between atoms: C3_25  and  O3_36 
REMARK       I    between atoms: C6_27  and  C5_83 
REMARK       I    between atoms: C4_28  and  O4_51 
REMARK       I    between atoms: N_29  and  C2_40 
REMARK       I    between atoms: N_29  and  S1_71 
REMARK       I    between atoms: C5_31  and  C6_76 
REMARK       I    between atoms: O1S_35  and  S1_43 
REMARK       I    between atoms: O4_38  and  C4_93 
REMARK       I    between atoms: O4_38  and  C1_96 
REMARK       I    between atoms: O6_41  and  C6_54 
REMARK       I    between atoms: O6_41  and  S2_84 
REMARK       I    between atoms: C4_42  and  O4_49 
REMARK       I    between atoms: S1_43  and  N_47 
REMARK       I    between atoms: S1_43  and  O3S_69 
REMARK       I    between atoms: O2S_44  and  S1_71 
REMARK       I    between atoms: N_47  and  C2_56 
REMARK       I    between atoms: O2_48  and  C2_99 
REMARK       I    between atoms: O2_48  and  S_63 
REMARK       I    between atoms: O4_49  and  C1_57 
REMARK       I    between atoms: O4_51  and  C1_102 
REMARK       I    between atoms: O3S_52  and  S1_71 
REMARK       I    between atoms: O4_53  and  C1_105 
REMARK       I    between atoms: C6_54  and  C5_59 
REMARK       I    between atoms: O3_60  and  C3_100 
REMARK       I    between atoms: O1S_61  and  S1_71 
REMARK       I    between atoms: S2_62  and  O6_81 
REMARK       I    between atoms: C5_65  and  C6_89 
REMARK       I    between atoms: C6_67  and  C5_74 
REMARK       I    between atoms: C3_68  and  O3_104 
REMARK       I    between atoms: C3_70  and  O3_85 
REMARK       I    between atoms: C5_77  and  C6_101 
REMARK       I    between atoms: O6_81  and  C6_101 
REMARK       I    between atoms: C3_92  and  O3_98 
ROOT
ATOM      1  C2  IDS d1714      -9.104   2.015 -29.400  0.00  0.00     0.132 C 
ATOM      2  O3S IDS d1714      -7.298   3.943 -32.171  0.00  0.00    -0.572 OA
ATOM      3  C1  IDS d1714      -8.494   0.823 -28.712  0.00  0.00     0.161 C 
ATOM      4  O2S IDS d1714      -9.637   4.020 -31.508  0.00  0.00    -0.572 OA
ATOM      5  O2  IDS d1714      -8.125   2.539 -30.313  0.00  0.00    -0.244 OA
ATOM      6  S   IDS d1714      -8.448   3.147 -31.690  0.00  0.00     0.252 S 
ATOM      7  C6  IDS d1714      -6.670   2.380 -25.875  0.00  0.00     0.203 C 
ATOM      8  O5  IDS d1714      -7.421   1.287 -27.874  0.00  0.00    -0.343 OA
ATOM      9  C4  IDS d1714      -8.575   3.386 -27.274  0.00  0.00    -0.005 C 
ATOM     10  O61 IDS d1714      -5.595   1.777 -26.108  0.00  0.00    -0.646 OA
ATOM     11  C3  IDS d1714      -9.526   3.131 -28.451  0.00  0.00     0.069 C 
ATOM     12  C5  IDS d1714      -7.845   2.133 -26.807  0.00  0.00     0.127 C 
ATOM     13  O3  IDS d1714     -10.857   2.875 -27.976  0.00  0.00    -0.393 OA
ATOM     14  O1S IDS d1714      -8.779   1.995 -32.537  0.00  0.00    -0.572 OA
ATOM     15  O62 IDS d1714      -6.796   3.164 -24.905  0.00  0.00    -0.646 OA
ATOM     16  H   IDS d1714      -9.994   1.680 -29.889  0.00  0.00     0.097 H 
ATOM     17  H   IDS d1714      -8.060   0.091 -29.361  0.00  0.00     0.133 H 
ATOM     18  H   IDS d1714      -9.145   3.772 -26.455  0.00  0.00     0.041 H 
ATOM     19  H   IDS d1714      -7.832   4.078 -27.611  0.00  0.00     0.041 H 
ATOM     20  H   IDS d1714      -9.491   4.032 -29.027  0.00  0.00     0.087 H 
ATOM     21  H   IDS d1714      -8.602   1.631 -26.241  0.00  0.00     0.100 H 
ATOM     22  H   IDS d1714     -10.864   2.054 -27.458  0.00  0.00     0.210 HD
ATOM     23  O5  SGN d1709     -25.741  -7.641 -22.482  0.00  0.00    -0.350 OA
ATOM     24  O2S SGN d1709     -26.405  -5.482 -18.356  0.00  0.00    -0.296 OA
ATOM     25  O4S SGN d1709     -25.729 -10.534 -26.798  0.00  0.00    -0.572 OA
ATOM     26  O1  SGN d1709     -27.174  -5.845 -21.963  0.00  0.00    -0.369 OA
ATOM     27  O6  SGN d1709     -26.221  -9.262 -24.769  0.00  0.00    -0.254 OA
ATOM     28  C4  SGN d1709     -24.129  -6.345 -23.653  0.00  0.00     0.095 C 
ATOM     29  C5  SGN d1709     -25.382  -7.215 -23.798  0.00  0.00     0.091 C 
ATOM     30  C1  SGN d1709     -26.050  -6.613 -21.543  0.00  0.00     0.147 C 
ATOM     31  O5S SGN d1709     -27.625 -11.300 -25.287  0.00  0.00    -0.572 OA
ATOM     32  O1S SGN d1709     -25.064  -3.511 -18.226  0.00  0.00    -0.296 OA
ATOM     33  S1  SGN d1709     -25.212  -4.822 -18.819  0.00  0.00     0.156 S 
ATOM     34  N   SGN d1709     -25.176  -4.638 -20.402  0.00  0.00    -0.210 NA
ATOM     35  O4  SGN d1709     -23.928  -5.815 -24.974  0.00  0.00    -0.348 OA
ATOM     36  C2  SGN d1709     -24.831  -5.712 -21.325  0.00  0.00     0.081 C 
ATOM     37  C3  SGN d1709     -24.355  -5.195 -22.688  0.00  0.00     0.083 C 
ATOM     38  O3S SGN d1709     -23.982  -5.722 -18.468  0.00  0.00    -0.296 OA
ATOM     39  C6  SGN d1709     -25.053  -8.481 -24.596  0.00  0.00     0.067 C 
ATOM     40  S2  SGN d1709     -26.114 -10.666 -25.394  0.00  0.00     0.251 S 
ATOM     41  O6S SGN d1709     -25.210 -11.466 -24.556  0.00  0.00    -0.572 OA
ATOM     42  O3  SGN d1709     -23.129  -4.497 -22.466  0.00  0.00    -0.391 OA
ATOM     43  H   SGN d1709     -27.178  -4.935 -18.566  0.00  0.00     0.231 HD
ATOM     44  H   SGN d1709     -27.935  -6.431 -22.095  0.00  0.00     0.212 HD
ATOM     45  H   SGN d1709     -23.300  -6.906 -23.275  0.00  0.00     0.091 H 
ATOM     46  H   SGN d1709     -26.156  -6.662 -24.287  0.00  0.00     0.090 H 
ATOM     47  H   SGN d1709     -26.306  -7.077 -20.613  0.00  0.00     0.131 H 
ATOM     48  H   SGN d1709     -25.834  -2.965 -18.452  0.00  0.00     0.231 HD
ATOM     49  H   SGN d1709     -24.507  -3.889 -20.581  0.00  0.00     0.140 HD
ATOM     50  H   SGN d1709     -24.023  -6.255 -20.881  0.00  0.00     0.076 H 
ATOM     51  H   SGN d1709     -25.093  -4.554 -23.122  0.00  0.00     0.089 H 
ATOM     52  H   SGN d1709     -23.952  -5.870 -17.509  0.00  0.00     0.231 HD
ATOM     53  H   SGN d1709     -24.667  -8.205 -25.555  0.00  0.00     0.080 H 
ATOM     54  H   SGN d1709     -24.323  -9.053 -24.063  0.00  0.00     0.080 H 
ATOM     55  H   SGN d1709     -22.479  -5.102 -22.073  0.00  0.00     0.210 HD
ATOM     56  O1S IDS d1712     -12.973   1.086 -23.673  0.00  0.00    -0.572 OA
ATOM     57  O2S IDS d1712     -14.405  -0.550 -22.526  0.00  0.00    -0.572 OA
ATOM     58  O61 IDS d1712     -12.573  -5.559 -28.121  0.00  0.00    -0.646 OA
ATOM     59  O5  IDS d1712     -14.206  -2.494 -27.283  0.00  0.00    -0.340 OA
ATOM     60  C4  IDS d1712     -12.832  -3.805 -25.791  0.00  0.00     0.103 C 
ATOM     61  O2  IDS d1712     -13.640  -0.885 -24.784  0.00  0.00    -0.244 OA
ATOM     62  O4  IDS d1712     -11.764  -2.857 -25.902  0.00  0.00    -0.348 OA
ATOM     63  C1  IDS d1712     -15.097  -1.998 -26.294  0.00  0.00     0.161 C 
ATOM     64  S   IDS d1712     -13.254  -0.331 -23.407  0.00  0.00     0.252 S 
ATOM     65  C5  IDS d1712     -13.715  -3.818 -27.046  0.00  0.00     0.152 C 
ATOM     66  O62 IDS d1712     -12.862  -3.704 -29.261  0.00  0.00    -0.646 OA
ATOM     67  O3S IDS d1712     -12.050  -1.094 -22.962  0.00  0.00    -0.572 OA
ATOM     68  C6  IDS d1712     -13.003  -4.389 -28.232  0.00  0.00     0.206 C 
ATOM     69  C3  IDS d1712     -13.706  -3.373 -24.622  0.00  0.00     0.094 C 
ATOM     70  O3  IDS d1712     -14.673  -4.396 -24.345  0.00  0.00    -0.390 OA
ATOM     71  C2  IDS d1712     -14.460  -2.053 -24.930  0.00  0.00     0.134 C 
ATOM     72  H   IDS d1712     -12.413  -4.781 -25.659  0.00  0.00     0.092 H 
ATOM     73  H   IDS d1712     -15.327  -0.985 -26.552  0.00  0.00     0.133 H 
ATOM     74  H   IDS d1712     -14.549  -4.468 -26.881  0.00  0.00     0.104 H 
ATOM     75  H   IDS d1712     -13.066  -3.213 -23.779  0.00  0.00     0.091 H 
ATOM     76  H   IDS d1712     -15.241  -4.523 -25.121  0.00  0.00     0.210 HD
ATOM     77  H   IDS d1712     -15.234  -2.052 -24.191  0.00  0.00     0.097 H 
ATOM     78  O62 IDS d1710     -20.030  -3.802 -23.652  0.00  0.00    -0.646 OA
ATOM     79  O2  IDS d1710     -21.583  -6.378 -27.703  0.00  0.00    -0.244 OA
ATOM     80  O1S IDS d1710     -20.224  -8.220 -28.643  0.00  0.00    -0.572 OA
ATOM     81  C3  IDS d1710     -22.778  -4.300 -27.401  0.00  0.00     0.094 C 
ATOM     82  O3  IDS d1710     -24.084  -3.773 -27.164  0.00  0.00    -0.390 OA
ATOM     83  O4  IDS d1710     -20.422  -3.758 -27.075  0.00  0.00    -0.348 OA
ATOM     84  O5  IDS d1710     -21.648  -5.233 -24.967  0.00  0.00    -0.340 OA
ATOM     85  C6  IDS d1710     -20.896  -3.095 -24.227  0.00  0.00     0.206 C 
ATOM     86  O2S IDS d1710     -22.015  -8.694 -27.051  0.00  0.00    -0.572 OA
ATOM     87  C5  IDS d1710     -21.860  -3.817 -25.131  0.00  0.00     0.152 C 
ATOM     88  S   IDS d1710     -21.575  -7.870 -28.196  0.00  0.00     0.252 S 
ATOM     89  C2  IDS d1710     -22.728  -5.797 -27.061  0.00  0.00     0.134 C 
ATOM     90  O3S IDS d1710     -22.567  -7.862 -29.275  0.00  0.00    -0.572 OA
ATOM     91  C4  IDS d1710     -21.751  -3.470 -26.624  0.00  0.00     0.103 C 
ATOM     92  C1  IDS d1710     -22.637  -6.078 -25.552  0.00  0.00     0.161 C 
ATOM     93  O61 IDS d1710     -20.975  -1.853 -24.101  0.00  0.00    -0.646 OA
ATOM     94  H   IDS d1710     -22.532  -4.226 -28.439  0.00  0.00     0.091 H 
ATOM     95  H   IDS d1710     -24.296  -3.845 -26.220  0.00  0.00     0.210 HD
ATOM     96  H   IDS d1710     -22.839  -3.501 -24.838  0.00  0.00     0.104 H 
ATOM     97  H   IDS d1710     -23.644  -6.228 -27.408  0.00  0.00     0.097 H 
ATOM     98  H   IDS d1710     -21.951  -2.431 -26.784  0.00  0.00     0.092 H 
ATOM     99  H   IDS d1710     -22.359  -7.095 -25.371  0.00  0.00     0.133 H 
ATOM    100  C4  SGN d1713      -9.286  -1.060 -27.452  0.00  0.00     0.095 C 
ATOM    101  N   SGN d1713      -9.649  -2.561 -24.043  0.00  0.00    -0.210 NA
ATOM    102  O4S SGN d1713      -8.177  -1.174 -31.843  0.00  0.00    -0.572 OA
ATOM    103  O4  SGN d1713      -9.590   0.240 -27.985  0.00  0.00    -0.348 OA
ATOM    104  C2  SGN d1713      -9.419  -2.534 -25.467  0.00  0.00     0.081 C 
ATOM    105  O6  SGN d1713      -8.698  -2.597 -29.804  0.00  0.00    -0.254 OA
ATOM    106  O2S SGN d1713      -7.841  -4.072 -23.586  0.00  0.00    -0.296 OA
ATOM    107  O3S SGN d1713      -9.262  -3.251 -21.595  0.00  0.00    -0.296 OA
ATOM    108  C6  SGN d1713     -10.049  -2.153 -29.626  0.00  0.00     0.067 C 
ATOM    109  O5S SGN d1713      -9.141  -3.409 -32.170  0.00  0.00    -0.572 OA
ATOM    110  C5  SGN d1713     -10.316  -1.975 -28.161  0.00  0.00     0.091 C 
ATOM    111  O3  SGN d1713      -8.319  -0.419 -25.372  0.00  0.00    -0.391 OA
ATOM    112  O1S SGN d1713     -10.093  -4.847 -23.277  0.00  0.00    -0.296 OA
ATOM    113  S1  SGN d1713      -9.161  -3.769 -23.112  0.00  0.00     0.156 S 
ATOM    114  O5  SGN d1713     -10.229  -3.309 -27.611  0.00  0.00    -0.349 OA
ATOM    115  S2  SGN d1713      -8.145  -2.536 -31.271  0.00  0.00     0.251 S 
ATOM    116  O6S SGN d1713      -6.831  -3.129 -31.171  0.00  0.00    -0.572 OA
ATOM    117  C3  SGN d1713      -9.449  -1.092 -25.935  0.00  0.00     0.083 C 
ATOM    118  C1  SGN d1713     -10.459  -3.379 -26.212  0.00  0.00     0.150 C 
ATOM    119  H   SGN d1713      -8.274  -1.362 -27.622  0.00  0.00     0.091 H 
ATOM    120  H   SGN d1713     -10.660  -2.498 -23.919  0.00  0.00     0.140 HD
ATOM    121  H   SGN d1713      -8.460  -2.961 -25.682  0.00  0.00     0.076 H 
ATOM    122  H   SGN d1713      -7.264  -3.306 -23.446  0.00  0.00     0.231 HD
ATOM    123  H   SGN d1713      -8.639  -2.520 -21.461  0.00  0.00     0.231 HD
ATOM    124  H   SGN d1713     -10.722  -2.882 -30.028  0.00  0.00     0.080 H 
ATOM    125  H   SGN d1713     -10.194  -1.222 -30.134  0.00  0.00     0.080 H 
ATOM    126  H   SGN d1713     -11.265  -1.502 -28.016  0.00  0.00     0.090 H 
ATOM    127  H   SGN d1713      -8.319   0.508 -25.659  0.00  0.00     0.210 HD
ATOM    128  H   SGN d1713     -10.049  -5.176 -24.189  0.00  0.00     0.231 HD
ATOM    129  H   SGN d1713     -10.369  -0.631 -25.641  0.00  0.00     0.089 H 
ATOM    130  H   SGN d1713     -10.388  -4.403 -25.909  0.00  0.00     0.131 H 
ATOM    131  C2  SGN d1711     -18.871  -3.484 -28.847  0.00  0.00     0.081 C 
ATOM    132  O4S SGN d1711     -16.107   1.638 -25.677  0.00  0.00    -0.572 OA
ATOM    133  S1  SGN d1711     -20.029  -4.576 -30.973  0.00  0.00     0.156 S 
ATOM    134  C3  SGN d1711     -17.620  -3.753 -27.991  0.00  0.00     0.083 C 
ATOM    135  O2S SGN d1711     -18.914  -4.375 -31.846  0.00  0.00    -0.296 OA
ATOM    136  O3  SGN d1711     -16.546  -4.255 -28.793  0.00  0.00    -0.391 OA
ATOM    137  N   SGN d1711     -19.397  -4.682 -29.498  0.00  0.00    -0.210 NA
ATOM    138  C4  SGN d1711     -17.209  -2.432 -27.318  0.00  0.00     0.095 C 
ATOM    139  O4  SGN d1711     -16.292  -2.775 -26.256  0.00  0.00    -0.348 OA
ATOM    140  O6S SGN d1711     -17.296   2.630 -27.464  0.00  0.00    -0.572 OA
ATOM    141  S2  SGN d1711     -17.414   1.832 -26.316  0.00  0.00     0.251 S 
ATOM    142  O5  SGN d1711     -19.470  -1.620 -27.411  0.00  0.00    -0.349 OA
ATOM    143  C5  SGN d1711     -18.395  -1.866 -26.485  0.00  0.00     0.091 C 
ATOM    144  O1S SGN d1711     -20.997  -3.497 -30.968  0.00  0.00    -0.296 OA
ATOM    145  O6  SGN d1711     -17.846   0.419 -26.764  0.00  0.00    -0.254 OA
ATOM    146  O5S SGN d1711     -18.494   2.293 -25.238  0.00  0.00    -0.572 OA
ATOM    147  O3S SGN d1711     -20.760  -5.976 -31.176  0.00  0.00    -0.296 OA
ATOM    148  C1  SGN d1711     -19.984  -2.792 -28.034  0.00  0.00     0.150 C 
ATOM    149  C6  SGN d1711     -18.151  -0.541 -25.761  0.00  0.00     0.067 C 
ATOM    150  H   SGN d1711     -18.545  -2.820 -29.620  0.00  0.00     0.076 H 
ATOM    151  H   SGN d1711     -17.842  -4.495 -27.253  0.00  0.00     0.089 H 
ATOM    152  H   SGN d1711     -18.518  -3.507 -31.670  0.00  0.00     0.231 HD
ATOM    153  H   SGN d1711     -16.319  -3.604 -29.475  0.00  0.00     0.210 HD
ATOM    154  H   SGN d1711     -20.127  -5.053 -28.890  0.00  0.00     0.140 HD
ATOM    155  H   SGN d1711     -16.850  -1.767 -28.075  0.00  0.00     0.091 H 
ATOM    156  H   SGN d1711     -18.584  -2.594 -25.724  0.00  0.00     0.090 H 
ATOM    157  H   SGN d1711     -20.539  -2.651 -30.844  0.00  0.00     0.231 HD
ATOM    158  H   SGN d1711     -21.502  -6.046 -30.556  0.00  0.00     0.231 HD
ATOM    159  H   SGN d1711     -20.802  -2.475 -28.647  0.00  0.00     0.131 H 
ATOM    160  H   SGN d1711     -17.332  -0.638 -25.080  0.00  0.00     0.080 H 
ATOM    161  H   SGN d1711     -19.010  -0.247 -25.193  0.00  0.00     0.080 H 
ENDROOT
TORSDOF 50
ENDMDL
MODEL 16
REMARK VINA RESULT:      -8.3      3.247      6.417
REMARK  0 active torsions:
REMARK  status: ('A' for Active; 'I' for Inactive)
REMARK       I    between atoms: C2_1  and  O2_12 
REMARK       I    between atoms: C1_4  and  O4_37 
REMARK       I    between atoms: O2S_5  and  S1_43 
REMARK       I    between atoms: O2_11  and  C2_82 
REMARK       I    between atoms: O2_11  and  S_80 
REMARK       I    between atoms: O2_12  and  S_23 
REMARK       I    between atoms: C4_13  and  O4_37 
REMARK       I    between atoms: C2_14  and  N_39 
REMARK       I    between atoms: O1_18  and  C1_32 
REMARK       I    between atoms: C4_19  and  O4_53 
REMARK       I    between atoms: O6_20  and  C6_76 
REMARK       I    between atoms: O6_20  and  S2_95 
REMARK       I    between atoms: S1_21  and  N_39 
REMARK       I    between atoms: S1_21  and  O1S_79 
REMARK       I    between atoms: S1_21  and  O2S_30 
REMARK       I    between atoms: S1_21  and  O3S_94 
REMARK       I    between atoms: C3_24  and  O3_26 
REMARK       I    between atoms: C3_25  and  O3_36 
REMARK       I    between atoms: C6_27  and  C5_83 
REMARK       I    between atoms: C4_28  and  O4_51 
REMARK       I    between atoms: N_29  and  C2_40 
REMARK       I    between atoms: N_29  and  S1_71 
REMARK       I    between atoms: C5_31  and  C6_76 
REMARK       I    between atoms: O1S_35  and  S1_43 
REMARK       I    between atoms: O4_38  and  C4_93 
REMARK       I    between atoms: O4_38  and  C1_96 
REMARK       I    between atoms: O6_41  and  C6_54 
REMARK       I    between atoms: O6_41  and  S2_84 
REMARK       I    between atoms: C4_42  and  O4_49 
REMARK       I    between atoms: S1_43  and  N_47 
REMARK       I    between atoms: S1_43  and  O3S_69 
REMARK       I    between atoms: O2S_44  and  S1_71 
REMARK       I    between atoms: N_47  and  C2_56 
REMARK       I    between atoms: O2_48  and  C2_99 
REMARK       I    between atoms: O2_48  and  S_63 
REMARK       I    between atoms: O4_49  and  C1_57 
REMARK       I    between atoms: O4_51  and  C1_102 
REMARK       I    between atoms: O3S_52  and  S1_71 
REMARK       I    between atoms: O4_53  and  C1_105 
REMARK       I    between atoms: C6_54  and  C5_59 
REMARK       I    between atoms: O3_60  and  C3_100 
REMARK       I    between atoms: O1S_61  and  S1_71 
REMARK       I    between atoms: S2_62  and  O6_81 
REMARK       I    between atoms: C5_65  and  C6_89 
REMARK       I    between atoms: C6_67  and  C5_74 
REMARK       I    between atoms: C3_68  and  O3_104 
REMARK       I    between atoms: C3_70  and  O3_85 
REMARK       I    between atoms: C5_77  and  C6_101 
REMARK       I    between atoms: O6_81  and  C6_101 
REMARK       I    between atoms: C3_92  and  O3_98 
ROOT
ATOM      1  C2  IDS d1714     -22.999  -2.877 -28.286  0.00  0.00     0.132 C 
ATOM      2  O3S IDS d1714     -24.926   0.421 -28.524  0.00  0.00    -0.572 OA
ATOM      3  C1  IDS d1714     -23.389  -3.978 -27.335  0.00  0.00     0.161 C 
ATOM      4  O2S IDS d1714     -22.733  -0.152 -29.405  0.00  0.00    -0.572 OA
ATOM      5  O2  IDS d1714     -23.981  -1.835 -28.173  0.00  0.00    -0.244 OA
ATOM      6  S   IDS d1714     -23.677  -0.329 -28.271  0.00  0.00     0.252 S 
ATOM      7  C6  IDS d1714     -25.763  -5.987 -29.366  0.00  0.00     0.203 C 
ATOM      8  O5  IDS d1714     -24.610  -4.571 -27.811  0.00  0.00    -0.343 OA
ATOM      9  C4  IDS d1714     -24.009  -4.301 -30.191  0.00  0.00    -0.005 C 
ATOM     10  O61 IDS d1714     -26.652  -6.010 -28.481  0.00  0.00    -0.646 OA
ATOM     11  C3  IDS d1714     -22.922  -3.314 -29.745  0.00  0.00     0.069 C 
ATOM     12  C5  IDS d1714     -24.483  -5.222 -29.073  0.00  0.00     0.127 C 
ATOM     13  O3  IDS d1714     -21.617  -3.848 -30.015  0.00  0.00    -0.393 OA
ATOM     14  O1S IDS d1714     -23.023   0.002 -27.000  0.00  0.00    -0.572 OA
ATOM     15  O62 IDS d1714     -25.904  -6.574 -30.465  0.00  0.00    -0.646 OA
ATOM     16  H   IDS d1714     -22.015  -2.555 -28.014  0.00  0.00     0.097 H 
ATOM     17  H   IDS d1714     -23.588  -3.666 -26.331  0.00  0.00     0.133 H 
ATOM     18  H   IDS d1714     -23.617  -4.903 -30.983  0.00  0.00     0.041 H 
ATOM     19  H   IDS d1714     -24.854  -3.723 -30.503  0.00  0.00     0.041 H 
ATOM     20  H   IDS d1714     -23.104  -2.432 -30.323  0.00  0.00     0.087 H 
ATOM     21  H   IDS d1714     -23.688  -5.936 -29.021  0.00  0.00     0.100 H 
ATOM     22  H   IDS d1714     -21.475  -4.645 -29.480  0.00  0.00     0.210 HD
ATOM     23  O5  SGN d1709      -5.335 -12.969 -26.272  0.00  0.00    -0.350 OA
ATOM     24  O2S SGN d1709      -5.546 -15.924 -29.926  0.00  0.00    -0.296 OA
ATOM     25  O4S SGN d1709      -4.313 -10.125 -22.046  0.00  0.00    -0.572 OA
ATOM     26  O1  SGN d1709      -4.390 -12.743 -28.417  0.00  0.00    -0.369 OA
ATOM     27  O6  SGN d1709      -4.302 -11.496 -24.070  0.00  0.00    -0.254 OA
ATOM     28  C4  SGN d1709      -7.081 -11.390 -26.598  0.00  0.00     0.095 C 
ATOM     29  C5  SGN d1709      -5.659 -11.593 -26.067  0.00  0.00     0.091 C 
ATOM     30  C1  SGN d1709      -5.349 -13.433 -27.621  0.00  0.00     0.147 C 
ATOM     31  O5S SGN d1709      -2.440 -11.810 -22.390  0.00  0.00    -0.572 OA
ATOM     32  O1S SGN d1709      -7.297 -15.279 -31.415  0.00  0.00    -0.296 OA
ATOM     33  S1  SGN d1709      -6.809 -15.244 -30.054  0.00  0.00     0.156 S 
ATOM     34  N   SGN d1709      -6.740 -13.715 -29.609  0.00  0.00    -0.210 NA
ATOM     35  O4  SGN d1709      -7.273  -9.967 -26.523  0.00  0.00    -0.348 OA
ATOM     36  C2  SGN d1709      -6.753 -13.284 -28.216  0.00  0.00     0.081 C 
ATOM     37  C3  SGN d1709      -7.205 -11.829 -28.046  0.00  0.00     0.083 C 
ATOM     38  O3S SGN d1709      -7.835 -15.922 -29.087  0.00  0.00    -0.296 OA
ATOM     39  C6  SGN d1709      -5.624 -11.353 -24.554  0.00  0.00     0.067 C 
ATOM     40  S2  SGN d1709      -4.037 -11.468 -22.553  0.00  0.00     0.251 S 
ATOM     41  O6S SGN d1709      -4.814 -12.554 -21.940  0.00  0.00    -0.572 OA
ATOM     42  O3  SGN d1709      -8.570 -11.765 -28.461  0.00  0.00    -0.391 OA
ATOM     43  H   SGN d1709      -4.897 -15.515 -30.520  0.00  0.00     0.231 HD
ATOM     44  H   SGN d1709      -3.509 -12.848 -28.026  0.00  0.00     0.212 HD
ATOM     45  H   SGN d1709      -7.796 -11.959 -26.042  0.00  0.00     0.091 H 
ATOM     46  H   SGN d1709      -4.985 -10.925 -26.561  0.00  0.00     0.090 H 
ATOM     47  H   SGN d1709      -5.083 -14.469 -27.620  0.00  0.00     0.131 H 
ATOM     48  H   SGN d1709      -6.650 -14.856 -32.001  0.00  0.00     0.231 HD
ATOM     49  H   SGN d1709      -7.539 -13.259 -30.050  0.00  0.00     0.140 HD
ATOM     50  H   SGN d1709      -7.457 -13.907 -27.706  0.00  0.00     0.076 H 
ATOM     51  H   SGN d1709      -6.591 -11.178 -28.632  0.00  0.00     0.089 H 
ATOM     52  H   SGN d1709      -7.919 -16.862 -29.312  0.00  0.00     0.231 HD
ATOM     53  H   SGN d1709      -5.973 -10.363 -24.344  0.00  0.00     0.080 H 
ATOM     54  H   SGN d1709      -6.255 -12.069 -24.070  0.00  0.00     0.080 H 
ATOM     55  H   SGN d1709      -9.102 -12.365 -27.913  0.00  0.00     0.210 HD
ATOM     56  O1S IDS d1712     -19.558  -8.502 -30.557  0.00  0.00    -0.572 OA
ATOM     57  O2S IDS d1712     -17.909 -10.193 -29.873  0.00  0.00    -0.572 OA
ATOM     58  O61 IDS d1712     -18.067  -7.001 -22.835  0.00  0.00    -0.646 OA
ATOM     59  O5  IDS d1712     -17.238  -6.572 -26.284  0.00  0.00    -0.340 OA
ATOM     60  C4  IDS d1712     -18.417  -8.461 -25.348  0.00  0.00     0.103 C 
ATOM     61  O2  IDS d1712     -18.373  -8.247 -28.534  0.00  0.00    -0.244 OA
ATOM     62  O4  IDS d1712     -19.654  -7.992 -25.897  0.00  0.00    -0.348 OA
ATOM     63  C1  IDS d1712     -16.573  -7.287 -27.315  0.00  0.00     0.161 C 
ATOM     64  S   IDS d1712     -18.995  -9.299 -29.459  0.00  0.00     0.252 S 
ATOM     65  C5  IDS d1712     -17.442  -7.308 -25.072  0.00  0.00     0.152 C 
ATOM     66  O62 IDS d1712     -18.094  -5.226 -24.129  0.00  0.00    -0.646 OA
ATOM     67  O3S IDS d1712     -20.035 -10.010 -28.657  0.00  0.00    -0.572 OA
ATOM     68  C6  IDS d1712     -17.899  -6.441 -23.941  0.00  0.00     0.206 C 
ATOM     69  C3  IDS d1712     -17.771  -9.366 -26.388  0.00  0.00     0.094 C 
ATOM     70  O3  IDS d1712     -16.631 -10.018 -25.811  0.00  0.00    -0.390 OA
ATOM     71  C2  IDS d1712     -17.304  -8.566 -27.631  0.00  0.00     0.134 C 
ATOM     72  H   IDS d1712     -18.619  -8.965 -24.426  0.00  0.00     0.092 H 
ATOM     73  H   IDS d1712     -16.551  -6.654 -28.178  0.00  0.00     0.133 H 
ATOM     74  H   IDS d1712     -16.503  -7.711 -24.754  0.00  0.00     0.104 H 
ATOM     75  H   IDS d1712     -18.504 -10.081 -26.697  0.00  0.00     0.091 H 
ATOM     76  H   IDS d1712     -15.981  -9.351 -25.539  0.00  0.00     0.210 HD
ATOM     77  H   IDS d1712     -16.619  -9.244 -28.098  0.00  0.00     0.097 H 
ATOM     78  O62 IDS d1710     -11.625 -10.410 -27.889  0.00  0.00    -0.646 OA
ATOM     79  O2  IDS d1710      -9.176  -7.681 -24.422  0.00  0.00    -0.244 OA
ATOM     80  O1S IDS d1710     -10.002  -7.538 -22.093  0.00  0.00    -0.572 OA
ATOM     81  C3  IDS d1710      -8.505  -7.145 -26.680  0.00  0.00     0.094 C 
ATOM     82  O3  IDS d1710      -7.375  -7.154 -27.554  0.00  0.00    -0.390 OA
ATOM     83  O4  IDS d1710     -10.942  -7.240 -26.723  0.00  0.00    -0.348 OA
ATOM     84  O5  IDS d1710      -9.617  -9.753 -26.499  0.00  0.00    -0.340 OA
ATOM     85  C6  IDS d1710     -10.888  -9.602 -28.510  0.00  0.00     0.206 C 
ATOM     86  O2S IDS d1710      -8.302  -9.184 -22.703  0.00  0.00    -0.572 OA
ATOM     87  C5  IDS d1710      -9.710  -9.049 -27.753  0.00  0.00     0.152 C 
ATOM     88  S   IDS d1710      -8.808  -7.810 -22.900  0.00  0.00     0.252 S 
ATOM     89  C2  IDS d1710      -8.252  -8.043 -25.459  0.00  0.00     0.134 C 
ATOM     90  O3S IDS d1710      -7.749  -6.810 -22.736  0.00  0.00    -0.572 OA
ATOM     91  C4  IDS d1710      -9.756  -7.539 -27.471  0.00  0.00     0.103 C 
ATOM     92  C1  IDS d1710      -8.415  -9.542 -25.759  0.00  0.00     0.161 C 
ATOM     93  O61 IDS d1710     -11.099  -9.233 -29.686  0.00  0.00    -0.646 OA
ATOM     94  H   IDS d1710      -8.665  -6.161 -26.293  0.00  0.00     0.091 H 
ATOM     95  H   IDS d1710      -7.239  -8.050 -27.899  0.00  0.00     0.210 HD
ATOM     96  H   IDS d1710      -8.856  -9.193 -28.382  0.00  0.00     0.104 H 
ATOM     97  H   IDS d1710      -7.236  -7.888 -25.162  0.00  0.00     0.097 H 
ATOM     98  H   IDS d1710      -9.778  -6.986 -28.386  0.00  0.00     0.092 H 
ATOM     99  H   IDS d1710      -8.477 -10.106 -24.852  0.00  0.00     0.133 H 
ATOM    100  C4  SGN d1713     -22.317  -5.870 -26.321  0.00  0.00     0.095 C 
ATOM    101  N   SGN d1713     -21.942  -9.593 -26.361  0.00  0.00    -0.210 NA
ATOM    102  O4S SGN d1713     -22.968  -1.875 -24.287  0.00  0.00    -0.572 OA
ATOM    103  O4  SGN d1713     -22.261  -4.872 -27.353  0.00  0.00    -0.348 OA
ATOM    104  C2  SGN d1713     -22.042  -8.273 -25.788  0.00  0.00     0.081 C 
ATOM    105  O6  SGN d1713     -22.332  -4.306 -23.914  0.00  0.00    -0.254 OA
ATOM    106  O2S SGN d1713     -23.404 -10.609 -24.750  0.00  0.00    -0.296 OA
ATOM    107  O3S SGN d1713     -22.389 -12.118 -26.580  0.00  0.00    -0.296 OA
ATOM    108  C6  SGN d1713     -21.135  -4.293 -24.703  0.00  0.00     0.067 C 
ATOM    109  O5S SGN d1713     -21.507  -2.443 -22.397  0.00  0.00    -0.572 OA
ATOM    110  C5  SGN d1713     -21.049  -5.571 -25.481  0.00  0.00     0.091 C 
ATOM    111  O3  SGN d1713     -23.588  -7.537 -27.452  0.00  0.00    -0.391 OA
ATOM    112  O1S SGN d1713     -21.074 -11.190 -24.714  0.00  0.00    -0.296 OA
ATOM    113  S1  SGN d1713     -22.233 -10.923 -25.517  0.00  0.00     0.156 S 
ATOM    114  O5  SGN d1713     -20.888  -6.599 -24.477  0.00  0.00    -0.349 OA
ATOM    115  S2  SGN d1713     -22.749  -2.933 -23.279  0.00  0.00     0.251 S 
ATOM    116  O6S SGN d1713     -23.903  -3.260 -22.472  0.00  0.00    -0.572 OA
ATOM    117  C3  SGN d1713     -22.290  -7.279 -26.907  0.00  0.00     0.083 C 
ATOM    118  C1  SGN d1713     -20.777  -7.914 -25.000  0.00  0.00     0.150 C 
ATOM    119  H   SGN d1713     -23.217  -5.834 -25.744  0.00  0.00     0.091 H 
ATOM    120  H   SGN d1713     -20.986  -9.680 -26.706  0.00  0.00     0.140 HD
ATOM    121  H   SGN d1713     -22.858  -8.244 -25.096  0.00  0.00     0.076 H 
ATOM    122  H   SGN d1713     -24.147 -10.440 -25.350  0.00  0.00     0.231 HD
ATOM    123  H   SGN d1713     -23.167 -11.957 -27.135  0.00  0.00     0.231 HD
ATOM    124  H   SGN d1713     -20.284  -4.206 -24.060  0.00  0.00     0.080 H 
ATOM    125  H   SGN d1713     -21.155  -3.462 -25.376  0.00  0.00     0.080 H 
ATOM    126  H   SGN d1713     -20.246  -5.518 -26.187  0.00  0.00     0.090 H 
ATOM    127  H   SGN d1713     -23.767  -6.911 -28.171  0.00  0.00     0.210 HD
ATOM    128  H   SGN d1713     -20.961 -10.479 -24.064  0.00  0.00     0.231 HD
ATOM    129  H   SGN d1713     -21.526  -7.367 -27.651  0.00  0.00     0.089 H 
ATOM    130  H   SGN d1713     -20.646  -8.592 -24.183  0.00  0.00     0.131 H 
ATOM    131  C2  SGN d1711     -12.347  -5.506 -25.924  0.00  0.00     0.081 C 
ATOM    132  O4S SGN d1711     -16.455  -6.433 -31.041  0.00  0.00    -0.572 OA
ATOM    133  S1  SGN d1711     -10.787  -3.971 -24.419  0.00  0.00     0.156 S 
ATOM    134  C3  SGN d1711     -13.580  -6.402 -25.708  0.00  0.00     0.083 C 
ATOM    135  O2S SGN d1711     -11.835  -3.092 -24.000  0.00  0.00    -0.296 OA
ATOM    136  O3  SGN d1711     -14.438  -5.862 -24.698  0.00  0.00    -0.391 OA
ATOM    137  N   SGN d1711     -11.511  -5.372 -24.733  0.00  0.00    -0.210 NA
ATOM    138  C4  SGN d1711     -14.333  -6.508 -27.045  0.00  0.00     0.095 C 
ATOM    139  O4  SGN d1711     -15.244  -7.622 -26.922  0.00  0.00    -0.348 OA
ATOM    140  O6S SGN d1711     -15.359  -4.398 -31.535  0.00  0.00    -0.572 OA
ATOM    141  S2  SGN d1711     -15.171  -5.766 -31.285  0.00  0.00     0.251 S 
ATOM    142  O5  SGN d1711     -12.309  -6.099 -28.278  0.00  0.00    -0.349 OA
ATOM    143  C5  SGN d1711     -13.383  -7.050 -28.152  0.00  0.00     0.091 C 
ATOM    144  O1S SGN d1711     -10.086  -3.552 -25.617  0.00  0.00    -0.296 OA
ATOM    145  O6  SGN d1711     -14.398  -5.904 -29.956  0.00  0.00    -0.254 OA
ATOM    146  O5S SGN d1711     -14.323  -6.575 -32.365  0.00  0.00    -0.572 OA
ATOM    147  O3S SGN d1711      -9.748  -4.329 -23.266  0.00  0.00    -0.296 OA
ATOM    148  C1  SGN d1711     -11.494  -5.981 -27.118  0.00  0.00     0.150 C 
ATOM    149  C6  SGN d1711     -13.980  -7.201 -29.552  0.00  0.00     0.067 C 
ATOM    150  H   SGN d1711     -12.740  -4.536 -26.145  0.00  0.00     0.076 H 
ATOM    151  H   SGN d1711     -13.266  -7.370 -25.379  0.00  0.00     0.089 H 
ATOM    152  H   SGN d1711     -12.427  -2.916 -24.747  0.00  0.00     0.231 HD
ATOM    153  H   SGN d1711     -14.741  -4.981 -24.967  0.00  0.00     0.210 HD
ATOM    154  H   SGN d1711     -10.776  -6.075 -24.807  0.00  0.00     0.140 HD
ATOM    155  H   SGN d1711     -14.760  -5.552 -27.267  0.00  0.00     0.091 H 
ATOM    156  H   SGN d1711     -13.107  -8.034 -27.836  0.00  0.00     0.090 H 
ATOM    157  H   SGN d1711     -10.730  -3.338 -26.311  0.00  0.00     0.231 HD
ATOM    158  H   SGN d1711      -9.068  -4.925 -23.617  0.00  0.00     0.231 HD
ATOM    159  H   SGN d1711     -10.714  -5.291 -27.364  0.00  0.00     0.131 H 
ATOM    160  H   SGN d1711     -14.816  -7.868 -29.528  0.00  0.00     0.080 H 
ATOM    161  H   SGN d1711     -13.263  -7.606 -30.236  0.00  0.00     0.080 H 
ENDROOT
TORSDOF 50
ENDMDL
MODEL 17
REMARK VINA RESULT:      -8.1      3.902     15.936
REMARK  0 active torsions:
REMARK  status: ('A' for Active; 'I' for Inactive)
REMARK       I    between atoms: C2_1  and  O2_12 
REMARK       I    between atoms: C1_4  and  O4_37 
REMARK       I    between atoms: O2S_5  and  S1_43 
REMARK       I    between atoms: O2_11  and  C2_82 
REMARK       I    between atoms: O2_11  and  S_80 
REMARK       I    between atoms: O2_12  and  S_23 
REMARK       I    between atoms: C4_13  and  O4_37 
REMARK       I    between atoms: C2_14  and  N_39 
REMARK       I    between atoms: O1_18  and  C1_32 
REMARK       I    between atoms: C4_19  and  O4_53 
REMARK       I    between atoms: O6_20  and  C6_76 
REMARK       I    between atoms: O6_20  and  S2_95 
REMARK       I    between atoms: S1_21  and  N_39 
REMARK       I    between atoms: S1_21  and  O1S_79 
REMARK       I    between atoms: S1_21  and  O2S_30 
REMARK       I    between atoms: S1_21  and  O3S_94 
REMARK       I    between atoms: C3_24  and  O3_26 
REMARK       I    between atoms: C3_25  and  O3_36 
REMARK       I    between atoms: C6_27  and  C5_83 
REMARK       I    between atoms: C4_28  and  O4_51 
REMARK       I    between atoms: N_29  and  C2_40 
REMARK       I    between atoms: N_29  and  S1_71 
REMARK       I    between atoms: C5_31  and  C6_76 
REMARK       I    between atoms: O1S_35  and  S1_43 
REMARK       I    between atoms: O4_38  and  C4_93 
REMARK       I    between atoms: O4_38  and  C1_96 
REMARK       I    between atoms: O6_41  and  C6_54 
REMARK       I    between atoms: O6_41  and  S2_84 
REMARK       I    between atoms: C4_42  and  O4_49 
REMARK       I    between atoms: S1_43  and  N_47 
REMARK       I    between atoms: S1_43  and  O3S_69 
REMARK       I    between atoms: O2S_44  and  S1_71 
REMARK       I    between atoms: N_47  and  C2_56 
REMARK       I    between atoms: O2_48  and  C2_99 
REMARK       I    between atoms: O2_48  and  S_63 
REMARK       I    between atoms: O4_49  and  C1_57 
REMARK       I    between atoms: O4_51  and  C1_102 
REMARK       I    between atoms: O3S_52  and  S1_71 
REMARK       I    between atoms: O4_53  and  C1_105 
REMARK       I    between atoms: C6_54  and  C5_59 
REMARK       I    between atoms: O3_60  and  C3_100 
REMARK       I    between atoms: O1S_61  and  S1_71 
REMARK       I    between atoms: S2_62  and  O6_81 
REMARK       I    between atoms: C5_65  and  C6_89 
REMARK       I    between atoms: C6_67  and  C5_74 
REMARK       I    between atoms: C3_68  and  O3_104 
REMARK       I    between atoms: C3_70  and  O3_85 
REMARK       I    between atoms: C5_77  and  C6_101 
REMARK       I    between atoms: O6_81  and  C6_101 
REMARK       I    between atoms: C3_92  and  O3_98 
ROOT
ATOM      1  C2  IDS d1714      -2.113 -11.020 -26.520  0.00  0.00     0.132 C 
ATOM      2  O3S IDS d1714       1.625 -11.290 -25.741  0.00  0.00    -0.572 OA
ATOM      3  C1  IDS d1714      -2.678 -11.295 -27.889  0.00  0.00     0.161 C 
ATOM      4  O2S IDS d1714      -0.155 -10.269 -24.435  0.00  0.00    -0.572 OA
ATOM      5  O2  IDS d1714      -0.704 -11.300 -26.566  0.00  0.00    -0.244 OA
ATOM      6  S   IDS d1714       0.372 -10.506 -25.804  0.00  0.00     0.252 S 
ATOM      7  C6  IDS d1714      -3.390 -14.938 -27.746  0.00  0.00     0.203 C 
ATOM      8  O5  IDS d1714      -2.592 -12.710 -28.135  0.00  0.00    -0.343 OA
ATOM      9  C4  IDS d1714      -3.046 -13.315 -25.785  0.00  0.00    -0.005 C 
ATOM     10  O61 IDS d1714      -2.802 -15.194 -28.825  0.00  0.00    -0.646 OA
ATOM     11  C3  IDS d1714      -2.737 -11.859 -25.411  0.00  0.00     0.069 C 
ATOM     12  C5  IDS d1714      -3.392 -13.499 -27.257  0.00  0.00     0.127 C 
ATOM     13  O3  IDS d1714      -3.918 -11.203 -24.924  0.00  0.00    -0.393 OA
ATOM     14  O1S IDS d1714       0.491  -9.241 -26.537  0.00  0.00    -0.572 OA
ATOM     15  O62 IDS d1714      -3.969 -15.826 -27.077  0.00  0.00    -0.646 OA
ATOM     16  H   IDS d1714      -2.328  -9.999 -26.286  0.00  0.00     0.097 H 
ATOM     17  H   IDS d1714      -2.161 -10.826 -28.700  0.00  0.00     0.133 H 
ATOM     18  H   IDS d1714      -3.876 -13.648 -25.197  0.00  0.00     0.041 H 
ATOM     19  H   IDS d1714      -2.162 -13.886 -25.594  0.00  0.00     0.041 H 
ATOM     20  H   IDS d1714      -1.993 -11.929 -24.645  0.00  0.00     0.087 H 
ATOM     21  H   IDS d1714      -4.402 -13.150 -27.294  0.00  0.00     0.100 H 
ATOM     22  H   IDS d1714      -4.576 -11.152 -25.635  0.00  0.00     0.210 HD
ATOM     23  O5  SGN d1709     -19.630  -0.502 -25.879  0.00  0.00    -0.350 OA
ATOM     24  O2S SGN d1709     -22.528  -3.664 -23.947  0.00  0.00    -0.296 OA
ATOM     25  O4S SGN d1709     -17.171   3.523 -28.058  0.00  0.00    -0.572 OA
ATOM     26  O1  SGN d1709     -20.268  -0.744 -23.625  0.00  0.00    -0.369 OA
ATOM     27  O6  SGN d1709     -18.623   1.977 -26.842  0.00  0.00    -0.254 OA
ATOM     28  C4  SGN d1709     -17.433  -1.370 -25.613  0.00  0.00     0.095 C 
ATOM     29  C5  SGN d1709     -18.281  -0.094 -25.645  0.00  0.00     0.091 C 
ATOM     30  C1  SGN d1709     -20.211  -1.367 -24.905  0.00  0.00     0.147 C 
ATOM     31  O5S SGN d1709     -19.625   4.114 -27.747  0.00  0.00    -0.572 OA
ATOM     32  O1S SGN d1709     -21.281  -5.487 -23.041  0.00  0.00    -0.296 OA
ATOM     33  S1  SGN d1709     -21.307  -4.424 -24.022  0.00  0.00     0.156 S 
ATOM     34  N   SGN d1709     -20.004  -3.534 -23.798  0.00  0.00    -0.210 NA
ATOM     35  O4  SGN d1709     -16.135  -0.906 -25.205  0.00  0.00    -0.348 OA
ATOM     36  C2  SGN d1709     -19.429  -2.682 -24.832  0.00  0.00     0.081 C 
ATOM     37  C3  SGN d1709     -17.951  -2.358 -24.583  0.00  0.00     0.083 C 
ATOM     38  O3S SGN d1709     -21.179  -5.010 -25.467  0.00  0.00    -0.296 OA
ATOM     39  C6  SGN d1709     -17.871   0.778 -26.838  0.00  0.00     0.067 C 
ATOM     40  S2  SGN d1709     -18.513   2.942 -28.037  0.00  0.00     0.251 S 
ATOM     41  O6S SGN d1709     -18.910   2.209 -29.248  0.00  0.00    -0.572 OA
ATOM     42  O3  SGN d1709     -17.232  -3.588 -24.683  0.00  0.00    -0.391 OA
ATOM     43  H   SGN d1709     -22.623  -3.293 -23.055  0.00  0.00     0.231 HD
ATOM     44  H   SGN d1709     -20.767   0.086 -23.691  0.00  0.00     0.212 HD
ATOM     45  H   SGN d1709     -17.443  -1.875 -26.556  0.00  0.00     0.091 H 
ATOM     46  H   SGN d1709     -18.159   0.450 -24.733  0.00  0.00     0.090 H 
ATOM     47  H   SGN d1709     -21.216  -1.579 -25.206  0.00  0.00     0.131 H 
ATOM     48  H   SGN d1709     -21.362  -5.108 -22.152  0.00  0.00     0.231 HD
ATOM     49  H   SGN d1709     -19.265  -4.183 -23.528  0.00  0.00     0.140 HD
ATOM     50  H   SGN d1709     -19.495  -3.223 -25.752  0.00  0.00     0.076 H 
ATOM     51  H   SGN d1709     -17.824  -1.913 -23.619  0.00  0.00     0.089 H 
ATOM     52  H   SGN d1709     -21.951  -5.565 -25.661  0.00  0.00     0.231 HD
ATOM     53  H   SGN d1709     -16.830   1.013 -26.764  0.00  0.00     0.080 H 
ATOM     54  H   SGN d1709     -18.059   0.243 -27.745  0.00  0.00     0.080 H 
ATOM     55  H   SGN d1709     -17.365  -3.969 -25.566  0.00  0.00     0.210 HD
ATOM     56  O1S IDS d1712      -8.972 -11.765 -25.504  0.00  0.00    -0.572 OA
ATOM     57  O2S IDS d1712     -11.156 -10.841 -26.153  0.00  0.00    -0.572 OA
ATOM     58  O61 IDS d1712      -7.354  -6.194 -31.022  0.00  0.00    -0.646 OA
ATOM     59  O5  IDS d1712      -7.959  -7.088 -27.616  0.00  0.00    -0.340 OA
ATOM     60  C4  IDS d1712      -8.762  -8.295 -29.547  0.00  0.00     0.103 C 
ATOM     61  O2  IDS d1712      -9.087  -9.750 -26.723  0.00  0.00    -0.244 OA
ATOM     62  O4  IDS d1712      -7.794  -9.329 -29.334  0.00  0.00    -0.348 OA
ATOM     63  C1  IDS d1712      -9.064  -7.374 -26.771  0.00  0.00     0.161 C 
ATOM     64  S   IDS d1712      -9.770 -11.111 -26.550  0.00  0.00     0.252 S 
ATOM     65  C5  IDS d1712      -8.281  -6.943 -29.005  0.00  0.00     0.152 C 
ATOM     66  O62 IDS d1712      -6.058  -6.137 -29.250  0.00  0.00    -0.646 OA
ATOM     67  O3S IDS d1712      -9.687 -11.802 -27.871  0.00  0.00    -0.572 OA
ATOM     68  C6  IDS d1712      -7.144  -6.385 -29.804  0.00  0.00     0.206 C 
ATOM     69  C3  IDS d1712     -10.016  -8.677 -28.775  0.00  0.00     0.094 C 
ATOM     70  O3  IDS d1712     -11.081  -7.777 -29.116  0.00  0.00    -0.390 OA
ATOM     71  C2  IDS d1712      -9.787  -8.609 -27.243  0.00  0.00     0.134 C 
ATOM     72  H   IDS d1712      -8.934  -8.198 -30.599  0.00  0.00     0.092 H 
ATOM     73  H   IDS d1712      -8.679  -7.528 -25.784  0.00  0.00     0.133 H 
ATOM     74  H   IDS d1712      -9.069  -6.225 -29.101  0.00  0.00     0.104 H 
ATOM     75  H   IDS d1712     -10.267  -9.683 -29.039  0.00  0.00     0.091 H 
ATOM     76  H   IDS d1712     -10.831  -6.873 -28.868  0.00  0.00     0.210 HD
ATOM     77  H   IDS d1712     -10.786  -8.587 -26.860  0.00  0.00     0.097 H 
ATOM     78  O62 IDS d1710     -14.389  -5.110 -25.730  0.00  0.00    -0.646 OA
ATOM     79  O2  IDS d1710     -12.901  -0.409 -26.803  0.00  0.00    -0.244 OA
ATOM     80  O1S IDS d1710     -11.991   0.165 -29.031  0.00  0.00    -0.572 OA
ATOM     81  C3  IDS d1710     -13.153  -0.792 -24.431  0.00  0.00     0.094 C 
ATOM     82  O3  IDS d1710     -13.894  -0.358 -23.289  0.00  0.00    -0.390 OA
ATOM     83  O4  IDS d1710     -11.939  -2.728 -25.285  0.00  0.00    -0.348 OA
ATOM     84  O5  IDS d1710     -14.704  -2.612 -25.966  0.00  0.00    -0.340 OA
ATOM     85  C6  IDS d1710     -14.203  -4.524 -24.633  0.00  0.00     0.206 C 
ATOM     86  O2S IDS d1710     -14.359   0.507 -28.538  0.00  0.00    -0.572 OA
ATOM     87  C5  IDS d1710     -14.257  -3.019 -24.658  0.00  0.00     0.152 C 
ATOM     88  S   IDS d1710     -12.975   0.575 -28.026  0.00  0.00     0.252 S 
ATOM     89  C2  IDS d1710     -13.851  -0.357 -25.728  0.00  0.00     0.134 C 
ATOM     90  O3S IDS d1710     -12.683   1.875 -27.415  0.00  0.00    -0.572 OA
ATOM     91  C4  IDS d1710     -12.933  -2.306 -24.343  0.00  0.00     0.103 C 
ATOM     92  C1  IDS d1710     -15.057  -1.236 -26.098  0.00  0.00     0.161 C 
ATOM     93  O61 IDS d1710     -13.961  -5.118 -23.560  0.00  0.00    -0.646 OA
ATOM     94  H   IDS d1710     -12.190  -0.327 -24.445  0.00  0.00     0.091 H 
ATOM     95  H   IDS d1710     -14.765  -0.787 -23.287  0.00  0.00     0.210 HD
ATOM     96  H   IDS d1710     -14.926  -2.731 -23.875  0.00  0.00     0.104 H 
ATOM     97  H   IDS d1710     -14.220   0.635 -25.567  0.00  0.00     0.097 H 
ATOM     98  H   IDS d1710     -12.598  -2.552 -23.357  0.00  0.00     0.092 H 
ATOM     99  H   IDS d1710     -15.357  -1.062 -27.110  0.00  0.00     0.133 H 
ATOM    100  C4  SGN d1713      -4.672 -10.732 -29.100  0.00  0.00     0.095 C 
ATOM    101  N   SGN d1713      -7.977 -11.966 -30.347  0.00  0.00    -0.210 NA
ATOM    102  O4S SGN d1713      -0.693  -8.615 -29.553  0.00  0.00    -0.572 OA
ATOM    103  O4  SGN d1713      -4.026 -10.797 -27.817  0.00  0.00    -0.348 OA
ATOM    104  C2  SGN d1713      -6.738 -11.227 -30.371  0.00  0.00     0.081 C 
ATOM    105  O6  SGN d1713      -2.999  -8.922 -30.572  0.00  0.00    -0.254 OA
ATOM    106  O2S SGN d1713      -7.800 -12.706 -32.625  0.00  0.00    -0.296 OA
ATOM    107  O3S SGN d1713      -9.873 -13.437 -31.275  0.00  0.00    -0.296 OA
ATOM    108  C6  SGN d1713      -3.745  -8.386 -29.472  0.00  0.00     0.067 C 
ATOM    109  O5S SGN d1713      -1.661  -6.785 -30.873  0.00  0.00    -0.572 OA
ATOM    110  C5  SGN d1713      -4.973  -9.220 -29.260  0.00  0.00     0.091 C 
ATOM    111  O3  SGN d1713      -5.552 -12.942 -29.210  0.00  0.00    -0.391 OA
ATOM    112  O1S SGN d1713      -9.521 -11.128 -32.058  0.00  0.00    -0.296 OA
ATOM    113  S1  SGN d1713      -8.802 -12.310 -31.676  0.00  0.00     0.156 S 
ATOM    114  O5  SGN d1713      -5.762  -9.015 -30.454  0.00  0.00    -0.349 OA
ATOM    115  S2  SGN d1713      -1.538  -8.375 -30.740  0.00  0.00     0.251 S 
ATOM    116  O6S SGN d1713      -1.074  -8.996 -31.960  0.00  0.00    -0.572 OA
ATOM    117  C3  SGN d1713      -5.948 -11.570 -29.123  0.00  0.00     0.083 C 
ATOM    118  C1  SGN d1713      -6.995  -9.719 -30.466  0.00  0.00     0.150 C 
ATOM    119  H   SGN d1713      -4.075 -11.126 -29.896  0.00  0.00     0.091 H 
ATOM    120  H   SGN d1713      -8.611 -11.437 -29.749  0.00  0.00     0.140 HD
ATOM    121  H   SGN d1713      -6.175 -11.502 -31.239  0.00  0.00     0.076 H 
ATOM    122  H   SGN d1713      -7.354 -13.506 -32.308  0.00  0.00     0.231 HD
ATOM    123  H   SGN d1713      -9.408 -14.246 -31.012  0.00  0.00     0.231 HD
ATOM    124  H   SGN d1713      -4.030  -7.377 -29.690  0.00  0.00     0.080 H 
ATOM    125  H   SGN d1713      -3.144  -8.398 -28.587  0.00  0.00     0.080 H 
ATOM    126  H   SGN d1713      -5.463  -8.930 -28.354  0.00  0.00     0.090 H 
ATOM    127  H   SGN d1713      -5.044 -13.184 -28.420  0.00  0.00     0.210 HD
ATOM    128  H   SGN d1713      -8.891 -10.433 -32.306  0.00  0.00     0.231 HD
ATOM    129  H   SGN d1713      -6.540 -11.385 -28.251  0.00  0.00     0.089 H 
ATOM    130  H   SGN d1713      -7.507  -9.488 -31.377  0.00  0.00     0.131 H 
ATOM    131  C2  SGN d1711      -9.626  -2.714 -25.803  0.00  0.00     0.081 C 
ATOM    132  O4S SGN d1711      -8.977  -8.781 -23.216  0.00  0.00    -0.572 OA
ATOM    133  S1  SGN d1711      -8.954  -0.150 -25.962  0.00  0.00     0.156 S 
ATOM    134  C3  SGN d1711      -9.682  -3.918 -26.761  0.00  0.00     0.083 C 
ATOM    135  O2S SGN d1711      -7.600  -0.394 -26.355  0.00  0.00    -0.296 OA
ATOM    136  O3  SGN d1711      -8.623  -3.862 -27.722  0.00  0.00    -0.391 OA
ATOM    137  N   SGN d1711      -9.781  -1.428 -26.479  0.00  0.00    -0.210 NA
ATOM    138  C4  SGN d1711      -9.570  -5.202 -25.921  0.00  0.00     0.095 C 
ATOM    139  O4  SGN d1711      -9.992  -6.292 -26.769  0.00  0.00    -0.348 OA
ATOM    140  O6S SGN d1711      -7.942  -7.359 -21.636  0.00  0.00    -0.572 OA
ATOM    141  S2  SGN d1711      -9.144  -7.644 -22.303  0.00  0.00     0.251 S 
ATOM    142  O5  SGN d1711     -10.494  -4.089 -24.000  0.00  0.00    -0.349 OA
ATOM    143  C5  SGN d1711     -10.694  -5.237 -24.846  0.00  0.00     0.091 C 
ATOM    144  O1S SGN d1711      -9.159  -0.034 -24.531  0.00  0.00    -0.296 OA
ATOM    145  O6  SGN d1711      -9.470  -6.447 -23.222  0.00  0.00    -0.254 OA
ATOM    146  O5S SGN d1711     -10.432  -7.852 -21.389  0.00  0.00    -0.572 OA
ATOM    147  O3S SGN d1711      -9.631   1.075 -26.721  0.00  0.00    -0.296 OA
ATOM    148  C1  SGN d1711     -10.656  -2.839 -24.663  0.00  0.00     0.150 C 
ATOM    149  C6  SGN d1711     -10.713  -6.449 -23.914  0.00  0.00     0.067 C 
ATOM    150  H   SGN d1711      -8.642  -2.735 -25.384  0.00  0.00     0.076 H 
ATOM    151  H   SGN d1711     -10.605  -3.905 -27.301  0.00  0.00     0.089 H 
ATOM    152  H   SGN d1711      -7.250  -1.149 -25.857  0.00  0.00     0.231 HD
ATOM    153  H   SGN d1711      -7.768  -3.872 -27.264  0.00  0.00     0.210 HD
ATOM    154  H   SGN d1711     -10.769  -1.182 -26.425  0.00  0.00     0.140 HD
ATOM    155  H   SGN d1711      -8.580  -5.254 -25.518  0.00  0.00     0.091 H 
ATOM    156  H   SGN d1711     -11.613  -5.266 -25.394  0.00  0.00     0.090 H 
ATOM    157  H   SGN d1711      -8.742  -0.786 -24.083  0.00  0.00     0.231 HD
ATOM    158  H   SGN d1711     -10.543   1.185 -26.408  0.00  0.00     0.231 HD
ATOM    159  H   SGN d1711     -10.534  -2.083 -23.916  0.00  0.00     0.131 H 
ATOM    160  H   SGN d1711     -10.818  -7.350 -24.481  0.00  0.00     0.080 H 
ATOM    161  H   SGN d1711     -11.535  -6.400 -23.231  0.00  0.00     0.080 H 
ENDROOT
TORSDOF 50
ENDMDL
MODEL 18
REMARK VINA RESULT:      -8.0      3.382      7.148
REMARK  0 active torsions:
REMARK  status: ('A' for Active; 'I' for Inactive)
REMARK       I    between atoms: C2_1  and  O2_12 
REMARK       I    between atoms: C1_4  and  O4_37 
REMARK       I    between atoms: O2S_5  and  S1_43 
REMARK       I    between atoms: O2_11  and  C2_82 
REMARK       I    between atoms: O2_11  and  S_80 
REMARK       I    between atoms: O2_12  and  S_23 
REMARK       I    between atoms: C4_13  and  O4_37 
REMARK       I    between atoms: C2_14  and  N_39 
REMARK       I    between atoms: O1_18  and  C1_32 
REMARK       I    between atoms: C4_19  and  O4_53 
REMARK       I    between atoms: O6_20  and  C6_76 
REMARK       I    between atoms: O6_20  and  S2_95 
REMARK       I    between atoms: S1_21  and  N_39 
REMARK       I    between atoms: S1_21  and  O1S_79 
REMARK       I    between atoms: S1_21  and  O2S_30 
REMARK       I    between atoms: S1_21  and  O3S_94 
REMARK       I    between atoms: C3_24  and  O3_26 
REMARK       I    between atoms: C3_25  and  O3_36 
REMARK       I    between atoms: C6_27  and  C5_83 
REMARK       I    between atoms: C4_28  and  O4_51 
REMARK       I    between atoms: N_29  and  C2_40 
REMARK       I    between atoms: N_29  and  S1_71 
REMARK       I    between atoms: C5_31  and  C6_76 
REMARK       I    between atoms: O1S_35  and  S1_43 
REMARK       I    between atoms: O4_38  and  C4_93 
REMARK       I    between atoms: O4_38  and  C1_96 
REMARK       I    between atoms: O6_41  and  C6_54 
REMARK       I    between atoms: O6_41  and  S2_84 
REMARK       I    between atoms: C4_42  and  O4_49 
REMARK       I    between atoms: S1_43  and  N_47 
REMARK       I    between atoms: S1_43  and  O3S_69 
REMARK       I    between atoms: O2S_44  and  S1_71 
REMARK       I    between atoms: N_47  and  C2_56 
REMARK       I    between atoms: O2_48  and  C2_99 
REMARK       I    between atoms: O2_48  and  S_63 
REMARK       I    between atoms: O4_49  and  C1_57 
REMARK       I    between atoms: O4_51  and  C1_102 
REMARK       I    between atoms: O3S_52  and  S1_71 
REMARK       I    between atoms: O4_53  and  C1_105 
REMARK       I    between atoms: C6_54  and  C5_59 
REMARK       I    between atoms: O3_60  and  C3_100 
REMARK       I    between atoms: O1S_61  and  S1_71 
REMARK       I    between atoms: S2_62  and  O6_81 
REMARK       I    between atoms: C5_65  and  C6_89 
REMARK       I    between atoms: C6_67  and  C5_74 
REMARK       I    between atoms: C3_68  and  O3_104 
REMARK       I    between atoms: C3_70  and  O3_85 
REMARK       I    between atoms: C5_77  and  C6_101 
REMARK       I    between atoms: O6_81  and  C6_101 
REMARK       I    between atoms: C3_92  and  O3_98 
ROOT
ATOM      1  C2  IDS d1714     -19.504  -0.647 -26.444  0.00  0.00     0.132 C 
ATOM      2  O3S IDS d1714     -20.702   2.885 -25.583  0.00  0.00    -0.572 OA
ATOM      3  C1  IDS d1714     -20.273  -1.882 -26.054  0.00  0.00     0.161 C 
ATOM      4  O2S IDS d1714     -18.522   2.141 -26.364  0.00  0.00    -0.572 OA
ATOM      5  O2  IDS d1714     -20.279   0.495 -26.043  0.00  0.00    -0.244 OA
ATOM      6  S   IDS d1714     -19.689   1.810 -25.506  0.00  0.00     0.252 S 
ATOM      7  C6  IDS d1714     -22.524  -2.379 -28.966  0.00  0.00     0.203 C 
ATOM      8  O5  IDS d1714     -21.462  -1.944 -26.860  0.00  0.00    -0.343 OA
ATOM      9  C4  IDS d1714     -20.360  -0.999 -28.857  0.00  0.00    -0.005 C 
ATOM     10  O61 IDS d1714     -23.560  -2.497 -28.268  0.00  0.00    -0.646 OA
ATOM     11  C3  IDS d1714     -19.220  -0.538 -27.938  0.00  0.00     0.069 C 
ATOM     12  C5  IDS d1714     -21.209  -2.111 -28.253  0.00  0.00     0.127 C 
ATOM     13  O3  IDS d1714     -18.009  -1.245 -28.246  0.00  0.00    -0.393 OA
ATOM     14  O1S IDS d1714     -19.252   1.493 -24.141  0.00  0.00    -0.572 OA
ATOM     15  O62 IDS d1714     -22.548  -2.480 -30.216  0.00  0.00    -0.646 OA
ATOM     16  H   IDS d1714     -18.552  -0.697 -25.958  0.00  0.00     0.097 H 
ATOM     17  H   IDS d1714     -20.607  -1.911 -25.038  0.00  0.00     0.133 H 
ATOM     18  H   IDS d1714     -19.935  -1.355 -29.772  0.00  0.00     0.041 H 
ATOM     19  H   IDS d1714     -21.003  -0.158 -29.011  0.00  0.00     0.041 H 
ATOM     20  H   IDS d1714     -19.117   0.507 -28.140  0.00  0.00     0.087 H 
ATOM     21  H   IDS d1714     -20.586  -2.969 -28.396  0.00  0.00     0.100 H 
ATOM     22  H   IDS d1714     -18.127  -2.189 -28.055  0.00  0.00     0.210 HD
ATOM     23  O5  SGN d1709      -4.774 -14.821 -26.568  0.00  0.00    -0.350 OA
ATOM     24  O2S SGN d1709      -4.794 -16.125 -31.088  0.00  0.00    -0.296 OA
ATOM     25  O4S SGN d1709      -4.107 -14.022 -21.478  0.00  0.00    -0.572 OA
ATOM     26  O1  SGN d1709      -3.395 -14.084 -28.329  0.00  0.00    -0.369 OA
ATOM     27  O6  SGN d1709      -3.946 -14.536 -23.862  0.00  0.00    -0.254 OA
ATOM     28  C4  SGN d1709      -6.097 -12.851 -26.443  0.00  0.00     0.095 C 
ATOM     29  C5  SGN d1709      -4.872 -13.575 -25.877  0.00  0.00     0.091 C 
ATOM     30  C1  SGN d1709      -4.604 -14.753 -27.983  0.00  0.00     0.147 C 
ATOM     31  O5S SGN d1709      -2.547 -15.880 -22.241  0.00  0.00    -0.572 OA
ATOM     32  O1S SGN d1709      -6.062 -14.579 -32.391  0.00  0.00    -0.296 OA
ATOM     33  S1  SGN d1709      -5.858 -15.155 -31.080  0.00  0.00     0.156 S 
ATOM     34  N   SGN d1709      -5.598 -13.953 -30.065  0.00  0.00    -0.210 NA
ATOM     35  O4  SGN d1709      -6.034 -11.549 -25.837  0.00  0.00    -0.348 OA
ATOM     36  C2  SGN d1709      -5.808 -14.060 -28.627  0.00  0.00     0.081 C 
ATOM     37  C3  SGN d1709      -6.008 -12.698 -27.951  0.00  0.00     0.083 C 
ATOM     38  O3S SGN d1709      -7.163 -15.857 -30.582  0.00  0.00    -0.296 OA
ATOM     39  C6  SGN d1709      -5.096 -13.908 -24.397  0.00  0.00     0.067 C 
ATOM     40  S2  SGN d1709      -3.989 -15.119 -22.437  0.00  0.00     0.251 S 
ATOM     41  O6S SGN d1709      -5.060 -16.125 -22.393  0.00  0.00    -0.572 OA
ATOM     42  O3  SGN d1709      -7.228 -12.155 -28.459  0.00  0.00    -0.391 OA
ATOM     43  H   SGN d1709      -3.976 -15.705 -31.395  0.00  0.00     0.231 HD
ATOM     44  H   SGN d1709      -2.645 -14.536 -27.913  0.00  0.00     0.212 HD
ATOM     45  H   SGN d1709      -7.001 -13.386 -26.241  0.00  0.00     0.091 H 
ATOM     46  H   SGN d1709      -4.001 -12.963 -25.988  0.00  0.00     0.090 H 
ATOM     47  H   SGN d1709      -4.539 -15.753 -28.359  0.00  0.00     0.131 H 
ATOM     48  H   SGN d1709      -5.245 -14.148 -32.686  0.00  0.00     0.231 HD
ATOM     49  H   SGN d1709      -6.194 -13.188 -30.379  0.00  0.00     0.140 HD
ATOM     50  H   SGN d1709      -6.703 -14.630 -28.486  0.00  0.00     0.076 H 
ATOM     51  H   SGN d1709      -5.181 -12.054 -28.160  0.00  0.00     0.089 H 
ATOM     52  H   SGN d1709      -7.373 -16.603 -31.166  0.00  0.00     0.231 HD
ATOM     53  H   SGN d1709      -5.290 -13.005 -23.857  0.00  0.00     0.080 H 
ATOM     54  H   SGN d1709      -5.931 -14.570 -24.310  0.00  0.00     0.080 H 
ATOM     55  H   SGN d1709      -7.960 -12.759 -28.256  0.00  0.00     0.210 HD
ATOM     56  O1S IDS d1712     -16.780  -5.752 -30.337  0.00  0.00    -0.572 OA
ATOM     57  O2S IDS d1712     -15.642  -7.927 -30.190  0.00  0.00    -0.572 OA
ATOM     58  O61 IDS d1712     -16.608  -7.528 -22.531  0.00  0.00    -0.646 OA
ATOM     59  O5  IDS d1712     -15.043  -6.114 -25.416  0.00  0.00    -0.340 OA
ATOM     60  C4  IDS d1712     -16.713  -7.859 -25.439  0.00  0.00     0.103 C 
ATOM     61  O2  IDS d1712     -15.995  -6.538 -28.256  0.00  0.00    -0.244 OA
ATOM     62  O4  IDS d1712     -17.707  -6.934 -25.895  0.00  0.00    -0.348 OA
ATOM     63  C1  IDS d1712     -14.330  -6.553 -26.562  0.00  0.00     0.161 C 
ATOM     64  S   IDS d1712     -16.605  -7.001 -29.584  0.00  0.00     0.252 S 
ATOM     65  C5  IDS d1712     -15.617  -7.160 -24.623  0.00  0.00     0.152 C 
ATOM     66  O62 IDS d1712     -16.047  -5.461 -23.017  0.00  0.00    -0.646 OA
ATOM     67  O3S IDS d1712     -17.897  -7.672 -29.251  0.00  0.00    -0.572 OA
ATOM     68  C6  IDS d1712     -16.122  -6.670 -23.302  0.00  0.00     0.206 C 
ATOM     69  C3  IDS d1712     -16.052  -8.462 -26.670  0.00  0.00     0.094 C 
ATOM     70  O3  IDS d1712     -15.190  -9.537 -26.270  0.00  0.00    -0.390 OA
ATOM     71  C2  IDS d1712     -15.206  -7.412 -27.436  0.00  0.00     0.134 C 
ATOM     72  H   IDS d1712     -17.185  -8.592 -24.818  0.00  0.00     0.092 H 
ATOM     73  H   IDS d1712     -14.019  -5.680 -27.098  0.00  0.00     0.133 H 
ATOM     74  H   IDS d1712     -14.852  -7.869 -24.384  0.00  0.00     0.104 H 
ATOM     75  H   IDS d1712     -16.828  -8.814 -27.316  0.00  0.00     0.091 H 
ATOM     76  H   IDS d1712     -14.495  -9.194 -25.686  0.00  0.00     0.210 HD
ATOM     77  H   IDS d1712     -14.580  -8.025 -28.051  0.00  0.00     0.097 H 
ATOM     78  O62 IDS d1710     -10.031 -10.384 -27.752  0.00  0.00    -0.646 OA
ATOM     79  O2  IDS d1710      -7.861  -9.770 -23.237  0.00  0.00    -0.244 OA
ATOM     80  O1S IDS d1710      -9.094 -10.269 -21.150  0.00  0.00    -0.572 OA
ATOM     81  C3  IDS d1710      -6.666  -8.647 -25.011  0.00  0.00     0.094 C 
ATOM     82  O3  IDS d1710      -5.406  -8.621 -25.683  0.00  0.00    -0.390 OA
ATOM     83  O4  IDS d1710      -9.020  -8.115 -25.364  0.00  0.00    -0.348 OA
ATOM     84  O5  IDS d1710      -8.254 -10.785 -25.997  0.00  0.00    -0.340 OA
ATOM     85  C6  IDS d1710      -9.049  -9.617 -27.917  0.00  0.00     0.206 C 
ATOM     86  O2S IDS d1710      -7.641 -11.954 -22.161  0.00  0.00    -0.572 OA
ATOM     87  C5  IDS d1710      -7.963  -9.680 -26.875  0.00  0.00     0.152 C 
ATOM     88  S   IDS d1710      -7.835 -10.521 -21.857  0.00  0.00     0.252 S 
ATOM     89  C2  IDS d1710      -6.832  -9.954 -24.221  0.00  0.00     0.134 C 
ATOM     90  O3S IDS d1710      -6.663  -9.941 -21.194  0.00  0.00    -0.572 OA
ATOM     91  C4  IDS d1710      -7.785  -8.410 -26.029  0.00  0.00     0.103 C 
ATOM     92  C1  IDS d1710      -7.206 -11.157 -25.102  0.00  0.00     0.161 C 
ATOM     93  O61 IDS d1710      -8.948  -8.812 -28.869  0.00  0.00    -0.646 OA
ATOM     94  H   IDS d1710      -6.716  -7.858 -24.289  0.00  0.00     0.091 H 
ATOM     95  H   IDS d1710      -5.372  -9.339 -26.335  0.00  0.00     0.210 HD
ATOM     96  H   IDS d1710      -7.043  -9.796 -27.408  0.00  0.00     0.104 H 
ATOM     97  H   IDS d1710      -5.884 -10.172 -23.774  0.00  0.00     0.097 H 
ATOM     98  H   IDS d1710      -7.521  -7.579 -26.649  0.00  0.00     0.092 H 
ATOM     99  H   IDS d1710      -7.551 -11.973 -24.504  0.00  0.00     0.133 H 
ATOM    100  C4  SGN d1713     -19.793  -4.214 -25.750  0.00  0.00     0.095 C 
ATOM    101  N   SGN d1713     -20.113  -7.646 -27.208  0.00  0.00    -0.210 NA
ATOM    102  O4S SGN d1713     -20.087  -1.181 -22.398  0.00  0.00    -0.572 OA
ATOM    103  O4  SGN d1713     -19.349  -2.959 -26.294  0.00  0.00    -0.348 OA
ATOM    104  C2  SGN d1713     -20.079  -6.636 -26.178  0.00  0.00     0.081 C 
ATOM    105  O6  SGN d1713     -19.999  -3.661 -22.941  0.00  0.00    -0.254 OA
ATOM    106  O2S SGN d1713     -22.029  -8.775 -26.304  0.00  0.00    -0.296 OA
ATOM    107  O3S SGN d1713     -20.965  -9.730 -28.451  0.00  0.00    -0.296 OA
ATOM    108  C6  SGN d1713     -18.688  -3.663 -23.520  0.00  0.00     0.067 C 
ATOM    109  O5S SGN d1713     -19.162  -2.729 -20.731  0.00  0.00    -0.572 OA
ATOM    110  C5  SGN d1713     -18.685  -4.558 -24.722  0.00  0.00     0.091 C 
ATOM    111  O3  SGN d1713     -21.099  -4.997 -27.582  0.00  0.00    -0.391 OA
ATOM    112  O1S SGN d1713     -19.901  -9.886 -26.235  0.00  0.00    -0.296 OA
ATOM    113  S1  SGN d1713     -20.807  -9.073 -26.994  0.00  0.00     0.156 S 
ATOM    114  O5  SGN d1713     -18.921  -5.882 -24.192  0.00  0.00    -0.349 OA
ATOM    115  S2  SGN d1713     -20.273  -2.548 -21.869  0.00  0.00     0.251 S 
ATOM    116  O6S SGN d1713     -21.604  -2.846 -21.393  0.00  0.00    -0.572 OA
ATOM    117  C3  SGN d1713     -19.910  -5.280 -26.836  0.00  0.00     0.083 C 
ATOM    118  C1  SGN d1713     -18.953  -6.906 -25.174  0.00  0.00     0.150 C 
ATOM    119  H   SGN d1713     -20.768  -4.165 -25.312  0.00  0.00     0.091 H 
ATOM    120  H   SGN d1713     -19.140  -7.837 -27.449  0.00  0.00     0.140 HD
ATOM    121  H   SGN d1713     -20.997  -6.655 -25.628  0.00  0.00     0.076 H 
ATOM    122  H   SGN d1713     -22.593  -8.225 -26.869  0.00  0.00     0.231 HD
ATOM    123  H   SGN d1713     -21.575  -9.195 -28.983  0.00  0.00     0.231 HD
ATOM    124  H   SGN d1713     -17.980  -4.025 -22.802  0.00  0.00     0.080 H 
ATOM    125  H   SGN d1713     -18.419  -2.669 -23.809  0.00  0.00     0.080 H 
ATOM    126  H   SGN d1713     -17.762  -4.456 -25.254  0.00  0.00     0.090 H 
ATOM    127  H   SGN d1713     -21.012  -4.132 -28.013  0.00  0.00     0.210 HD
ATOM    128  H   SGN d1713     -19.790  -9.506 -25.349  0.00  0.00     0.231 HD
ATOM    129  H   SGN d1713     -19.043  -5.282 -27.463  0.00  0.00     0.089 H 
ATOM    130  H   SGN d1713     -19.115  -7.842 -24.680  0.00  0.00     0.131 H 
ATOM    131  C2  SGN d1711     -10.211  -6.491 -24.113  0.00  0.00     0.081 C 
ATOM    132  O4S SGN d1711     -13.315  -4.482 -29.613  0.00  0.00    -0.572 OA
ATOM    133  S1  SGN d1711      -8.726  -6.032 -21.959  0.00  0.00     0.156 S 
ATOM    134  C3  SGN d1711     -11.606  -7.070 -24.408  0.00  0.00     0.083 C 
ATOM    135  O2S SGN d1711      -9.655  -5.131 -21.350  0.00  0.00    -0.296 OA
ATOM    136  O3  SGN d1711     -12.534  -6.733 -23.371  0.00  0.00    -0.391 OA
ATOM    137  N   SGN d1711      -9.619  -7.003 -22.878  0.00  0.00    -0.210 NA
ATOM    138  C4  SGN d1711     -12.083  -6.502 -25.755  0.00  0.00     0.095 C 
ATOM    139  O4  SGN d1711     -13.191  -7.324 -26.184  0.00  0.00    -0.348 OA
ATOM    140  O6S SGN d1711     -11.785  -2.744 -29.138  0.00  0.00    -0.572 OA
ATOM    141  S2  SGN d1711     -11.907  -4.112 -29.427  0.00  0.00     0.251 S 
ATOM    142  O5  SGN d1711      -9.815  -6.193 -26.490  0.00  0.00    -0.349 OA
ATOM    143  C5  SGN d1711     -11.049  -6.830 -26.870  0.00  0.00     0.091 C 
ATOM    144  O1S SGN d1711      -7.735  -5.399 -22.808  0.00  0.00    -0.296 OA
ATOM    145  O6  SGN d1711     -11.454  -4.902 -28.181  0.00  0.00    -0.254 OA
ATOM    146  O5S SGN d1711     -11.026  -4.664 -30.635  0.00  0.00    -0.572 OA
ATOM    147  O3S SGN d1711      -8.023  -7.023 -20.929  0.00  0.00    -0.296 OA
ATOM    148  C1  SGN d1711      -9.240  -6.703 -25.291  0.00  0.00     0.150 C 
ATOM    149  C6  SGN d1711     -11.372  -6.318 -28.275  0.00  0.00     0.067 C 
ATOM    150  H   SGN d1711     -10.366  -5.441 -23.978  0.00  0.00     0.076 H 
ATOM    151  H   SGN d1711     -11.549  -8.138 -24.452  0.00  0.00     0.089 H 
ATOM    152  H   SGN d1711     -10.044  -4.559 -22.030  0.00  0.00     0.231 HD
ATOM    153  H   SGN d1711     -12.609  -5.769 -23.305  0.00  0.00     0.210 HD
ATOM    154  H   SGN d1711      -9.027  -7.791 -23.139  0.00  0.00     0.140 HD
ATOM    155  H   SGN d1711     -12.273  -5.456 -25.630  0.00  0.00     0.091 H 
ATOM    156  H   SGN d1711     -11.029  -7.897 -26.937  0.00  0.00     0.090 H 
ATOM    157  H   SGN d1711      -8.177  -4.800 -23.429  0.00  0.00     0.231 HD
ATOM    158  H   SGN d1711      -7.409  -7.602 -21.406  0.00  0.00     0.231 HD
ATOM    159  H   SGN d1711      -8.313  -6.186 -25.157  0.00  0.00     0.131 H 
ATOM    160  H   SGN d1711     -12.305  -6.720 -28.610  0.00  0.00     0.080 H 
ATOM    161  H   SGN d1711     -10.621  -6.616 -28.977  0.00  0.00     0.080 H 
ENDROOT
TORSDOF 50
ENDMDL
MODEL 19
REMARK VINA RESULT:      -7.9      2.328      2.960
REMARK  0 active torsions:
REMARK  status: ('A' for Active; 'I' for Inactive)
REMARK       I    between atoms: C2_1  and  O2_12 
REMARK       I    between atoms: C1_4  and  O4_37 
REMARK       I    between atoms: O2S_5  and  S1_43 
REMARK       I    between atoms: O2_11  and  C2_82 
REMARK       I    between atoms: O2_11  and  S_80 
REMARK       I    between atoms: O2_12  and  S_23 
REMARK       I    between atoms: C4_13  and  O4_37 
REMARK       I    between atoms: C2_14  and  N_39 
REMARK       I    between atoms: O1_18  and  C1_32 
REMARK       I    between atoms: C4_19  and  O4_53 
REMARK       I    between atoms: O6_20  and  C6_76 
REMARK       I    between atoms: O6_20  and  S2_95 
REMARK       I    between atoms: S1_21  and  N_39 
REMARK       I    between atoms: S1_21  and  O1S_79 
REMARK       I    between atoms: S1_21  and  O2S_30 
REMARK       I    between atoms: S1_21  and  O3S_94 
REMARK       I    between atoms: C3_24  and  O3_26 
REMARK       I    between atoms: C3_25  and  O3_36 
REMARK       I    between atoms: C6_27  and  C5_83 
REMARK       I    between atoms: C4_28  and  O4_51 
REMARK       I    between atoms: N_29  and  C2_40 
REMARK       I    between atoms: N_29  and  S1_71 
REMARK       I    between atoms: C5_31  and  C6_76 
REMARK       I    between atoms: O1S_35  and  S1_43 
REMARK       I    between atoms: O4_38  and  C4_93 
REMARK       I    between atoms: O4_38  and  C1_96 
REMARK       I    between atoms: O6_41  and  C6_54 
REMARK       I    between atoms: O6_41  and  S2_84 
REMARK       I    between atoms: C4_42  and  O4_49 
REMARK       I    between atoms: S1_43  and  N_47 
REMARK       I    between atoms: S1_43  and  O3S_69 
REMARK       I    between atoms: O2S_44  and  S1_71 
REMARK       I    between atoms: N_47  and  C2_56 
REMARK       I    between atoms: O2_48  and  C2_99 
REMARK       I    between atoms: O2_48  and  S_63 
REMARK       I    between atoms: O4_49  and  C1_57 
REMARK       I    between atoms: O4_51  and  C1_102 
REMARK       I    between atoms: O3S_52  and  S1_71 
REMARK       I    between atoms: O4_53  and  C1_105 
REMARK       I    between atoms: C6_54  and  C5_59 
REMARK       I    between atoms: O3_60  and  C3_100 
REMARK       I    between atoms: O1S_61  and  S1_71 
REMARK       I    between atoms: S2_62  and  O6_81 
REMARK       I    between atoms: C5_65  and  C6_89 
REMARK       I    between atoms: C6_67  and  C5_74 
REMARK       I    between atoms: C3_68  and  O3_104 
REMARK       I    between atoms: C3_70  and  O3_85 
REMARK       I    between atoms: C5_77  and  C6_101 
REMARK       I    between atoms: O6_81  and  C6_101 
REMARK       I    between atoms: C3_92  and  O3_98 
ROOT
ATOM      1  C2  IDS d1714     -23.424  -2.430 -25.291  0.00  0.00     0.132 C 
ATOM      2  O3S IDS d1714     -26.720  -1.237 -26.829  0.00  0.00    -0.572 OA
ATOM      3  C1  IDS d1714     -22.573  -1.551 -24.414  0.00  0.00     0.161 C 
ATOM      4  O2S IDS d1714     -25.387  -3.199 -27.365  0.00  0.00    -0.572 OA
ATOM      5  O2  IDS d1714     -24.617  -1.698 -25.616  0.00  0.00    -0.244 OA
ATOM      6  S   IDS d1714     -25.346  -1.767 -26.970  0.00  0.00     0.252 S 
ATOM      7  C6  IDS d1714     -23.929  -2.244 -21.026  0.00  0.00     0.203 C 
ATOM      8  O5  IDS d1714     -23.251  -1.378 -23.157  0.00  0.00    -0.343 OA
ATOM      9  C4  IDS d1714     -24.175  -3.667 -23.150  0.00  0.00    -0.005 C 
ATOM     10  O61 IDS d1714     -24.063  -1.033 -20.726  0.00  0.00    -0.646 OA
ATOM     11  C3  IDS d1714     -23.828  -3.750 -24.643  0.00  0.00     0.069 C 
ATOM     12  C5  IDS d1714     -23.401  -2.583 -22.410  0.00  0.00     0.127 C 
ATOM     13  O3  IDS d1714     -22.799  -4.726 -24.867  0.00  0.00    -0.393 OA
ATOM     14  O1S IDS d1714     -24.497  -1.002 -27.889  0.00  0.00    -0.572 OA
ATOM     15  O62 IDS d1714     -24.211  -3.164 -20.222  0.00  0.00    -0.646 OA
ATOM     16  H   IDS d1714     -22.841  -2.682 -26.152  0.00  0.00     0.097 H 
ATOM     17  H   IDS d1714     -22.396  -0.564 -24.788  0.00  0.00     0.133 H 
ATOM     18  H   IDS d1714     -23.953  -4.611 -22.697  0.00  0.00     0.041 H 
ATOM     19  H   IDS d1714     -25.213  -3.420 -23.079  0.00  0.00     0.041 H 
ATOM     20  H   IDS d1714     -24.742  -4.040 -25.117  0.00  0.00     0.087 H 
ATOM     21  H   IDS d1714     -22.442  -3.039 -22.284  0.00  0.00     0.100 H 
ATOM     22  H   IDS d1714     -21.981  -4.441 -24.428  0.00  0.00     0.210 HD
ATOM     23  O5  SGN d1709      -5.067 -11.191 -27.335  0.00  0.00    -0.350 OA
ATOM     24  O2S SGN d1709      -5.253 -14.499 -23.996  0.00  0.00    -0.296 OA
ATOM     25  O4S SGN d1709      -4.011  -7.841 -31.164  0.00  0.00    -0.572 OA
ATOM     26  O1  SGN d1709      -5.627 -13.469 -27.537  0.00  0.00    -0.369 OA
ATOM     27  O6  SGN d1709      -4.186  -9.710 -29.598  0.00  0.00    -0.254 OA
ATOM     28  C4  SGN d1709      -7.283 -10.365 -27.571  0.00  0.00     0.095 C 
ATOM     29  C5  SGN d1709      -5.982 -10.690 -28.311  0.00  0.00     0.091 C 
ATOM     30  C1  SGN d1709      -5.461 -12.373 -26.642  0.00  0.00     0.147 C 
ATOM     31  O5S SGN d1709      -1.976  -9.310 -30.757  0.00  0.00    -0.572 OA
ATOM     32  O1S SGN d1709      -7.492 -14.758 -23.209  0.00  0.00    -0.296 OA
ATOM     33  S1  SGN d1709      -6.534 -13.864 -23.821  0.00  0.00     0.156 S 
ATOM     34  N   SGN d1709      -7.166 -13.349 -25.190  0.00  0.00    -0.210 NA
ATOM     35  O4  SGN d1709      -8.203 -10.036 -28.626  0.00  0.00    -0.348 OA
ATOM     36  C2  SGN d1709      -6.749 -12.119 -25.853  0.00  0.00     0.081 C 
ATOM     37  C3  SGN d1709      -7.811 -11.571 -26.814  0.00  0.00     0.083 C 
ATOM     38  O3S SGN d1709      -6.335 -12.588 -22.938  0.00  0.00    -0.296 OA
ATOM     39  C6  SGN d1709      -5.365  -9.405 -28.875  0.00  0.00     0.067 C 
ATOM     40  S2  SGN d1709      -3.293  -8.568 -30.117  0.00  0.00     0.251 S 
ATOM     41  O6S SGN d1709      -2.866  -7.767 -28.962  0.00  0.00    -0.572 OA
ATOM     42  O3  SGN d1709      -8.937 -11.194 -26.020  0.00  0.00    -0.391 OA
ATOM     43  H   SGN d1709      -5.359 -15.294 -24.542  0.00  0.00     0.231 HD
ATOM     44  H   SGN d1709      -4.803 -13.615 -28.026  0.00  0.00     0.212 HD
ATOM     45  H   SGN d1709      -7.145  -9.586 -26.851  0.00  0.00     0.091 H 
ATOM     46  H   SGN d1709      -6.174 -11.383 -29.102  0.00  0.00     0.090 H 
ATOM     47  H   SGN d1709      -4.682 -12.632 -25.956  0.00  0.00     0.131 H 
ATOM     48  H   SGN d1709      -7.603 -15.543 -23.767  0.00  0.00     0.231 HD
ATOM     49  H   SGN d1709      -8.166 -13.248 -25.016  0.00  0.00     0.140 HD
ATOM     50  H   SGN d1709      -6.595 -11.390 -25.085  0.00  0.00     0.076 H 
ATOM     51  H   SGN d1709      -8.077 -12.312 -27.537  0.00  0.00     0.089 H 
ATOM     52  H   SGN d1709      -5.949 -12.841 -22.084  0.00  0.00     0.231 HD
ATOM     53  H   SGN d1709      -6.067  -8.931 -29.528  0.00  0.00     0.080 H 
ATOM     54  H   SGN d1709      -5.121  -8.748 -28.066  0.00  0.00     0.080 H 
ATOM     55  H   SGN d1709      -8.667 -10.522 -25.374  0.00  0.00     0.210 HD
ATOM     56  O1S IDS d1712     -19.004  -6.803 -22.130  0.00  0.00    -0.572 OA
ATOM     57  O2S IDS d1712     -16.613  -7.288 -21.835  0.00  0.00    -0.572 OA
ATOM     58  O61 IDS d1712     -15.161  -0.908 -25.949  0.00  0.00    -0.646 OA
ATOM     59  O5  IDS d1712     -16.548  -4.200 -25.946  0.00  0.00    -0.340 OA
ATOM     60  C4  IDS d1712     -15.756  -3.010 -24.000  0.00  0.00     0.103 C 
ATOM     61  O2  IDS d1712     -17.400  -5.692 -23.456  0.00  0.00    -0.244 OA
ATOM     62  O4  IDS d1712     -17.101  -2.767 -23.571  0.00  0.00    -0.348 OA
ATOM     63  C1  IDS d1712     -16.199  -5.501 -25.497  0.00  0.00     0.161 C 
ATOM     64  S   IDS d1712     -17.639  -6.265 -22.054  0.00  0.00     0.252 S 
ATOM     65  C5  IDS d1712     -15.662  -3.157 -25.524  0.00  0.00     0.152 C 
ATOM     66  O62 IDS d1712     -16.843  -1.780 -27.059  0.00  0.00    -0.646 OA
ATOM     67  O3S IDS d1712     -17.510  -5.124 -21.099  0.00  0.00    -0.572 OA
ATOM     68  C6  IDS d1712     -15.916  -1.864 -26.234  0.00  0.00     0.206 C 
ATOM     69  C3  IDS d1712     -15.312  -4.329 -23.385  0.00  0.00     0.094 C 
ATOM     70  O3  IDS d1712     -13.910  -4.519 -23.621  0.00  0.00    -0.390 OA
ATOM     71  C2  IDS d1712     -16.080  -5.531 -23.995  0.00  0.00     0.134 C 
ATOM     72  H   IDS d1712     -15.145  -2.184 -23.699  0.00  0.00     0.092 H 
ATOM     73  H   IDS d1712     -16.974  -6.168 -25.817  0.00  0.00     0.133 H 
ATOM     74  H   IDS d1712     -14.661  -3.429 -25.790  0.00  0.00     0.104 H 
ATOM     75  H   IDS d1712     -15.521  -4.287 -22.337  0.00  0.00     0.091 H 
ATOM     76  H   IDS d1712     -13.744  -4.554 -24.576  0.00  0.00     0.210 HD
ATOM     77  H   IDS d1712     -15.466  -6.362 -23.717  0.00  0.00     0.097 H 
ATOM     78  O62 IDS d1710     -11.437  -8.948 -25.567  0.00  0.00    -0.646 OA
ATOM     79  O2  IDS d1710      -9.755  -7.002 -29.908  0.00  0.00    -0.244 OA
ATOM     80  O1S IDS d1710      -9.244  -4.589 -30.112  0.00  0.00    -0.572 OA
ATOM     81  C3  IDS d1710     -10.728  -9.196 -30.181  0.00  0.00     0.094 C 
ATOM     82  O3  IDS d1710     -10.414 -10.528 -30.591  0.00  0.00    -0.390 OA
ATOM     83  O4  IDS d1710     -12.278  -7.961 -28.759  0.00  0.00    -0.348 OA
ATOM     84  O5  IDS d1710      -9.840  -8.759 -27.519  0.00  0.00    -0.340 OA
ATOM     85  C6  IDS d1710     -11.731  -9.766 -26.475  0.00  0.00     0.206 C 
ATOM     86  O2S IDS d1710      -7.474  -6.187 -29.579  0.00  0.00    -0.572 OA
ATOM     87  C5  IDS d1710     -10.921  -9.685 -27.742  0.00  0.00     0.152 C 
ATOM     88  S   IDS d1710      -8.701  -5.928 -30.360  0.00  0.00     0.252 S 
ATOM     89  C2  IDS d1710      -9.447  -8.404 -29.883  0.00  0.00     0.134 C 
ATOM     90  O3S IDS d1710      -8.517  -6.232 -31.782  0.00  0.00    -0.572 OA
ATOM     91  C4  IDS d1710     -11.696  -9.249 -28.995  0.00  0.00     0.103 C 
ATOM     92  C1  IDS d1710      -8.822  -8.743 -28.519  0.00  0.00     0.161 C 
ATOM     93  O61 IDS d1710     -12.655 -10.604 -26.383  0.00  0.00    -0.646 OA
ATOM     94  H   IDS d1710     -11.220  -8.672 -30.974  0.00  0.00     0.091 H 
ATOM     95  H   IDS d1710      -9.969 -10.993 -29.864  0.00  0.00     0.210 HD
ATOM     96  H   IDS d1710     -10.587 -10.681 -27.948  0.00  0.00     0.104 H 
ATOM     97  H   IDS d1710      -8.732  -8.670 -30.633  0.00  0.00     0.097 H 
ATOM     98  H   IDS d1710     -12.478  -9.945 -29.215  0.00  0.00     0.092 H 
ATOM     99  H   IDS d1710      -8.092  -8.012 -28.243  0.00  0.00     0.133 H 
ATOM    100  C4  SGN d1713     -20.277  -1.478 -23.717  0.00  0.00     0.095 C 
ATOM    101  N   SGN d1713     -17.878  -2.138 -20.922  0.00  0.00    -0.210 NA
ATOM    102  O4S SGN d1713     -22.046   1.038 -27.043  0.00  0.00    -0.572 OA
ATOM    103  O4  SGN d1713     -21.326  -2.262 -24.310  0.00  0.00    -0.348 OA
ATOM    104  C2  SGN d1713     -18.436  -1.451 -22.062  0.00  0.00     0.081 C 
ATOM    105  O6  SGN d1713     -20.032   0.738 -25.525  0.00  0.00    -0.254 OA
ATOM    106  O2S SGN d1713     -17.452  -0.129 -19.679  0.00  0.00    -0.296 OA
ATOM    107  O3S SGN d1713     -16.800  -2.378 -18.599  0.00  0.00    -0.296 OA
ATOM    108  C6  SGN d1713     -19.644  -0.555 -26.008  0.00  0.00     0.067 C 
ATOM    109  O5S SGN d1713     -19.846   1.796 -27.827  0.00  0.00    -0.572 OA
ATOM    110  C5  SGN d1713     -19.220  -1.403 -24.848  0.00  0.00     0.091 C 
ATOM    111  O3  SGN d1713     -20.679  -1.954 -21.418  0.00  0.00    -0.391 OA
ATOM    112  O1S SGN d1713     -15.581  -1.392 -20.499  0.00  0.00    -0.296 OA
ATOM    113  S1  SGN d1713     -16.880  -1.428 -19.891  0.00  0.00     0.156 S 
ATOM    114  O5  SGN d1713     -18.027  -0.760 -24.344  0.00  0.00    -0.349 OA
ATOM    115  S2  SGN d1713     -20.796   1.651 -26.547  0.00  0.00     0.251 S 
ATOM    116  O6S SGN d1713     -20.963   2.899 -25.840  0.00  0.00    -0.572 OA
ATOM    117  C3  SGN d1713     -19.721  -2.149 -22.464  0.00  0.00     0.083 C 
ATOM    118  C1  SGN d1713     -17.441  -1.411 -23.227  0.00  0.00     0.150 C 
ATOM    119  H   SGN d1713     -20.604  -0.514 -23.387  0.00  0.00     0.091 H 
ATOM    120  H   SGN d1713     -17.373  -2.942 -21.296  0.00  0.00     0.140 HD
ATOM    121  H   SGN d1713     -18.647  -0.435 -21.798  0.00  0.00     0.076 H 
ATOM    122  H   SGN d1713     -18.325  -0.223 -19.268  0.00  0.00     0.231 HD
ATOM    123  H   SGN d1713     -17.669  -2.418 -18.172  0.00  0.00     0.231 HD
ATOM    124  H   SGN d1713     -18.830  -0.452 -26.695  0.00  0.00     0.080 H 
ATOM    125  H   SGN d1713     -20.470  -1.016 -26.509  0.00  0.00     0.080 H 
ATOM    126  H   SGN d1713     -19.071  -2.414 -25.166  0.00  0.00     0.090 H 
ATOM    127  H   SGN d1713     -21.511  -2.394 -21.655  0.00  0.00     0.210 HD
ATOM    128  H   SGN d1713     -15.607  -0.821 -21.283  0.00  0.00     0.231 HD
ATOM    129  H   SGN d1713     -19.535  -3.188 -22.639  0.00  0.00     0.089 H 
ATOM    130  H   SGN d1713     -16.562  -0.870 -22.944  0.00  0.00     0.131 H 
ATOM    131  C2  SGN d1711     -13.817  -6.349 -29.568  0.00  0.00     0.081 C 
ATOM    132  O4S SGN d1711     -18.431  -8.605 -25.381  0.00  0.00    -0.572 OA
ATOM    133  S1  SGN d1711     -12.968  -5.725 -32.006  0.00  0.00     0.156 S 
ATOM    134  C3  SGN d1711     -13.990  -5.621 -28.222  0.00  0.00     0.083 C 
ATOM    135  O2S SGN d1711     -13.959  -4.719 -32.235  0.00  0.00    -0.296 OA
ATOM    136  O3  SGN d1711     -14.372  -4.256 -28.420  0.00  0.00    -0.391 OA
ATOM    137  N   SGN d1711     -12.772  -5.769 -30.410  0.00  0.00    -0.210 NA
ATOM    138  C4  SGN d1711     -15.067  -6.363 -27.413  0.00  0.00     0.095 C 
ATOM    139  O4  SGN d1711     -14.948  -5.908 -26.048  0.00  0.00    -0.348 OA
ATOM    140  O6S SGN d1711     -19.148  -9.363 -27.502  0.00  0.00    -0.572 OA
ATOM    141  S2  SGN d1711     -18.105  -9.409 -26.564  0.00  0.00     0.251 S 
ATOM    142  O5  SGN d1711     -14.589  -8.420 -28.564  0.00  0.00    -0.349 OA
ATOM    143  C5  SGN d1711     -14.670  -7.858 -27.241  0.00  0.00     0.091 C 
ATOM    144  O1S SGN d1711     -13.339  -7.054 -32.448  0.00  0.00    -0.296 OA
ATOM    145  O6  SGN d1711     -16.876  -8.712 -27.186  0.00  0.00    -0.254 OA
ATOM    146  O5S SGN d1711     -17.606 -10.858 -26.127  0.00  0.00    -0.572 OA
ATOM    147  O3S SGN d1711     -11.523  -5.340 -32.556  0.00  0.00    -0.296 OA
ATOM    148  C1  SGN d1711     -13.564  -7.857 -29.376  0.00  0.00     0.150 C 
ATOM    149  C6  SGN d1711     -15.650  -8.741 -26.467  0.00  0.00     0.067 C 
ATOM    150  H   SGN d1711     -14.747  -6.216 -30.080  0.00  0.00     0.076 H 
ATOM    151  H   SGN d1711     -13.060  -5.620 -27.693  0.00  0.00     0.089 H 
ATOM    152  H   SGN d1711     -14.810  -5.016 -31.878  0.00  0.00     0.231 HD
ATOM    153  H   SGN d1711     -15.214  -4.221 -28.899  0.00  0.00     0.210 HD
ATOM    154  H   SGN d1711     -11.920  -6.300 -30.232  0.00  0.00     0.140 HD
ATOM    155  H   SGN d1711     -16.010  -6.215 -27.896  0.00  0.00     0.091 H 
ATOM    156  H   SGN d1711     -13.762  -7.850 -26.675  0.00  0.00     0.090 H 
ATOM    157  H   SGN d1711     -14.220  -7.275 -32.106  0.00  0.00     0.231 HD
ATOM    158  H   SGN d1711     -10.904  -6.062 -32.369  0.00  0.00     0.231 HD
ATOM    159  H   SGN d1711     -13.581  -8.396 -30.301  0.00  0.00     0.131 H 
ATOM    160  H   SGN d1711     -15.792  -8.357 -25.479  0.00  0.00     0.080 H 
ATOM    161  H   SGN d1711     -15.280  -9.741 -26.375  0.00  0.00     0.080 H 
ENDROOT
TORSDOF 50
ENDMDL
MODEL 20
REMARK VINA RESULT:      -7.7      3.166     15.550
REMARK  0 active torsions:
REMARK  status: ('A' for Active; 'I' for Inactive)
REMARK       I    between atoms: C2_1  and  O2_12 
REMARK       I    between atoms: C1_4  and  O4_37 
REMARK       I    between atoms: O2S_5  and  S1_43 
REMARK       I    between atoms: O2_11  and  C2_82 
REMARK       I    between atoms: O2_11  and  S_80 
REMARK       I    between atoms: O2_12  and  S_23 
REMARK       I    between atoms: C4_13  and  O4_37 
REMARK       I    between atoms: C2_14  and  N_39 
REMARK       I    between atoms: O1_18  and  C1_32 
REMARK       I    between atoms: C4_19  and  O4_53 
REMARK       I    between atoms: O6_20  and  C6_76 
REMARK       I    between atoms: O6_20  and  S2_95 
REMARK       I    between atoms: S1_21  and  N_39 
REMARK       I    between atoms: S1_21  and  O1S_79 
REMARK       I    between atoms: S1_21  and  O2S_30 
REMARK       I    between atoms: S1_21  and  O3S_94 
REMARK       I    between atoms: C3_24  and  O3_26 
REMARK       I    between atoms: C3_25  and  O3_36 
REMARK       I    between atoms: C6_27  and  C5_83 
REMARK       I    between atoms: C4_28  and  O4_51 
REMARK       I    between atoms: N_29  and  C2_40 
REMARK       I    between atoms: N_29  and  S1_71 
REMARK       I    between atoms: C5_31  and  C6_76 
REMARK       I    between atoms: O1S_35  and  S1_43 
REMARK       I    between atoms: O4_38  and  C4_93 
REMARK       I    between atoms: O4_38  and  C1_96 
REMARK       I    between atoms: O6_41  and  C6_54 
REMARK       I    between atoms: O6_41  and  S2_84 
REMARK       I    between atoms: C4_42  and  O4_49 
REMARK       I    between atoms: S1_43  and  N_47 
REMARK       I    between atoms: S1_43  and  O3S_69 
REMARK       I    between atoms: O2S_44  and  S1_71 
REMARK       I    between atoms: N_47  and  C2_56 
REMARK       I    between atoms: O2_48  and  C2_99 
REMARK       I    between atoms: O2_48  and  S_63 
REMARK       I    between atoms: O4_49  and  C1_57 
REMARK       I    between atoms: O4_51  and  C1_102 
REMARK       I    between atoms: O3S_52  and  S1_71 
REMARK       I    between atoms: O4_53  and  C1_105 
REMARK       I    between atoms: C6_54  and  C5_59 
REMARK       I    between atoms: O3_60  and  C3_100 
REMARK       I    between atoms: O1S_61  and  S1_71 
REMARK       I    between atoms: S2_62  and  O6_81 
REMARK       I    between atoms: C5_65  and  C6_89 
REMARK       I    between atoms: C6_67  and  C5_74 
REMARK       I    between atoms: C3_68  and  O3_104 
REMARK       I    between atoms: C3_70  and  O3_85 
REMARK       I    between atoms: C5_77  and  C6_101 
REMARK       I    between atoms: O6_81  and  C6_101 
REMARK       I    between atoms: C3_92  and  O3_98 
ROOT
ATOM      1  C2  IDS d1714      -2.218  -9.948 -26.659  0.00  0.00     0.132 C 
ATOM      2  O3S IDS d1714       1.362  -9.307 -27.850  0.00  0.00    -0.572 OA
ATOM      3  C1  IDS d1714      -2.968 -11.213 -26.984  0.00  0.00     0.161 C 
ATOM      4  O2S IDS d1714      -0.256  -7.751 -26.915  0.00  0.00    -0.572 OA
ATOM      5  O2  IDS d1714      -0.888 -10.082 -27.184  0.00  0.00    -0.244 OA
ATOM      6  S   IDS d1714      -0.068  -8.932 -27.796  0.00  0.00     0.252 S 
ATOM      7  C6  IDS d1714      -2.063 -13.434 -24.147  0.00  0.00     0.203 C 
ATOM      8  O5  IDS d1714      -2.381 -12.289 -26.231  0.00  0.00    -0.343 OA
ATOM      9  C4  IDS d1714      -1.898 -10.873 -24.267  0.00  0.00    -0.005 C 
ATOM     10  O61 IDS d1714      -1.736 -14.398 -24.880  0.00  0.00    -0.646 OA
ATOM     11  C3  IDS d1714      -2.122  -9.650 -25.166  0.00  0.00     0.069 C 
ATOM     12  C5  IDS d1714      -2.521 -12.149 -24.819  0.00  0.00     0.127 C 
ATOM     13  O3  IDS d1714      -3.289  -8.925 -24.748  0.00  0.00    -0.393 OA
ATOM     14  O1S IDS d1714      -0.679  -8.698 -29.110  0.00  0.00    -0.572 OA
ATOM     15  O62 IDS d1714      -2.025 -13.506 -22.896  0.00  0.00    -0.646 OA
ATOM     16  H   IDS d1714      -2.760  -9.135 -27.096  0.00  0.00     0.097 H 
ATOM     17  H   IDS d1714      -2.927 -11.519 -28.009  0.00  0.00     0.133 H 
ATOM     18  H   IDS d1714      -2.328 -10.672 -23.308  0.00  0.00     0.041 H 
ATOM     19  H   IDS d1714      -0.842 -11.036 -24.210  0.00  0.00     0.041 H 
ATOM     20  H   IDS d1714      -1.238  -9.059 -25.044  0.00  0.00     0.087 H 
ATOM     21  H   IDS d1714      -3.555 -12.014 -24.580  0.00  0.00     0.100 H 
ATOM     22  H   IDS d1714      -4.076  -9.480 -24.869  0.00  0.00     0.210 HD
ATOM     23  O5  SGN d1709     -21.621  -3.802 -24.739  0.00  0.00    -0.350 OA
ATOM     24  O2S SGN d1709     -22.337  -4.453 -20.136  0.00  0.00    -0.296 OA
ATOM     25  O4S SGN d1709     -21.706  -2.823 -29.841  0.00  0.00    -0.572 OA
ATOM     26  O1  SGN d1709     -21.472  -2.241 -22.982  0.00  0.00    -0.369 OA
ATOM     27  O6  SGN d1709     -22.014  -2.933 -27.419  0.00  0.00    -0.254 OA
ATOM     28  C4  SGN d1709     -19.279  -4.020 -25.080  0.00  0.00     0.095 C 
ATOM     29  C5  SGN d1709     -20.548  -3.289 -25.531  0.00  0.00     0.091 C 
ATOM     30  C1  SGN d1709     -21.512  -3.623 -23.328  0.00  0.00     0.147 C 
ATOM     31  O5S SGN d1709     -24.003  -2.345 -28.862  0.00  0.00    -0.572 OA
ATOM     32  O1S SGN d1709     -20.262  -4.828 -19.018  0.00  0.00    -0.296 OA
ATOM     33  S1  SGN d1709     -20.982  -4.922 -20.268  0.00  0.00     0.156 S 
ATOM     34  N   SGN d1709     -20.149  -4.116 -21.363  0.00  0.00    -0.210 NA
ATOM     35  O4  SGN d1709     -18.226  -3.340 -25.785  0.00  0.00    -0.348 OA
ATOM     36  C2  SGN d1709     -20.274  -4.350 -22.797  0.00  0.00     0.081 C 
ATOM     37  C3  SGN d1709     -19.050  -3.872 -23.587  0.00  0.00     0.083 C 
ATOM     38  O3S SGN d1709     -21.020  -6.403 -20.769  0.00  0.00    -0.296 OA
ATOM     39  C6  SGN d1709     -20.867  -3.643 -26.988  0.00  0.00     0.067 C 
ATOM     40  S2  SGN d1709     -22.633  -3.247 -28.793  0.00  0.00     0.251 S 
ATOM     41  O6S SGN d1709     -23.006  -4.668 -28.806  0.00  0.00    -0.572 OA
ATOM     42  O3  SGN d1709     -17.947  -4.683 -23.180  0.00  0.00    -0.391 OA
ATOM     43  H   SGN d1709     -22.332  -3.533 -19.826  0.00  0.00     0.231 HD
ATOM     44  H   SGN d1709     -22.263  -1.798 -23.326  0.00  0.00     0.212 HD
ATOM     45  H   SGN d1709     -19.334  -5.069 -25.280  0.00  0.00     0.091 H 
ATOM     46  H   SGN d1709     -20.417  -2.233 -25.429  0.00  0.00     0.090 H 
ATOM     47  H   SGN d1709     -22.383  -4.045 -22.871  0.00  0.00     0.131 H 
ATOM     48  H   SGN d1709     -20.248  -3.905 -18.721  0.00  0.00     0.231 HD
ATOM     49  H   SGN d1709     -19.167  -4.274 -21.138  0.00  0.00     0.140 HD
ATOM     50  H   SGN d1709     -20.358  -5.407 -22.932  0.00  0.00     0.076 H 
ATOM     51  H   SGN d1709     -18.861  -2.837 -23.392  0.00  0.00     0.089 H 
ATOM     52  H   SGN d1709     -21.519  -6.946 -20.137  0.00  0.00     0.231 HD
ATOM     53  H   SGN d1709     -20.035  -3.380 -27.607  0.00  0.00     0.080 H 
ATOM     54  H   SGN d1709     -21.056  -4.693 -27.061  0.00  0.00     0.080 H 
ATOM     55  H   SGN d1709     -18.145  -5.615 -23.367  0.00  0.00     0.210 HD
ATOM     56  O1S IDS d1712      -7.625 -10.008 -22.252  0.00  0.00    -0.572 OA
ATOM     57  O2S IDS d1712     -10.081 -10.050 -22.174  0.00  0.00    -0.572 OA
ATOM     58  O61 IDS d1712      -9.973 -10.692 -29.877  0.00  0.00    -0.646 OA
ATOM     59  O5  IDS d1712      -9.219  -8.647 -27.046  0.00  0.00    -0.340 OA
ATOM     60  C4  IDS d1712      -9.946 -10.948 -26.960  0.00  0.00     0.103 C 
ATOM     61  O2  IDS d1712      -8.876  -9.692 -24.227  0.00  0.00    -0.244 OA
ATOM     62  O4  IDS d1712      -8.622 -11.379 -26.624  0.00  0.00    -0.348 OA
ATOM     63  C1  IDS d1712      -9.838  -8.233 -25.837  0.00  0.00     0.161 C 
ATOM     64  S   IDS d1712      -8.869 -10.451 -22.895  0.00  0.00     0.252 S 
ATOM     65  C5  IDS d1712      -9.932  -9.650 -27.778  0.00  0.00     0.152 C 
ATOM     66  O62 IDS d1712      -8.388  -9.211 -29.531  0.00  0.00    -0.646 OA
ATOM     67  O3S IDS d1712      -8.870 -11.906 -23.233  0.00  0.00    -0.572 OA
ATOM     68  C6  IDS d1712      -9.384  -9.856 -29.156  0.00  0.00     0.206 C 
ATOM     69  C3  IDS d1712     -10.676 -10.659 -25.656  0.00  0.00     0.094 C 
ATOM     70  O3  IDS d1712     -12.064 -10.416 -25.930  0.00  0.00    -0.390 OA
ATOM     71  C2  IDS d1712     -10.091  -9.415 -24.938  0.00  0.00     0.134 C 
ATOM     72  H   IDS d1712     -10.419 -11.712 -27.542  0.00  0.00     0.092 H 
ATOM     73  H   IDS d1712      -9.174  -7.543 -25.358  0.00  0.00     0.133 H 
ATOM     74  H   IDS d1712     -10.938  -9.317 -27.925  0.00  0.00     0.104 H 
ATOM     75  H   IDS d1712     -10.555 -11.510 -25.020  0.00  0.00     0.091 H 
ATOM     76  H   IDS d1712     -12.148  -9.641 -26.507  0.00  0.00     0.210 HD
ATOM     77  H   IDS d1712     -10.870  -9.160 -24.248  0.00  0.00     0.097 H 
ATOM     78  O62 IDS d1710     -15.127  -6.295 -24.152  0.00  0.00    -0.646 OA
ATOM     79  O2  IDS d1710     -16.038  -4.087 -28.597  0.00  0.00    -0.244 OA
ATOM     80  O1S IDS d1710     -16.078  -5.404 -30.693  0.00  0.00    -0.572 OA
ATOM     81  C3  IDS d1710     -15.463  -2.504 -26.866  0.00  0.00     0.094 C 
ATOM     82  O3  IDS d1710     -15.979  -1.386 -26.141  0.00  0.00    -0.390 OA
ATOM     83  O4  IDS d1710     -13.843  -4.317 -26.663  0.00  0.00    -0.348 OA
ATOM     84  O5  IDS d1710     -16.485  -4.924 -25.786  0.00  0.00    -0.340 OA
ATOM     85  C6  IDS d1710     -14.909  -5.066 -24.004  0.00  0.00     0.206 C 
ATOM     86  O2S IDS d1710     -18.150  -4.937 -29.486  0.00  0.00    -0.572 OA
ATOM     87  C5  IDS d1710     -15.577  -4.141 -24.987  0.00  0.00     0.152 C 
ATOM     88  S   IDS d1710     -16.833  -4.421 -29.911  0.00  0.00     0.252 S 
ATOM     89  C2  IDS d1710     -16.598  -3.274 -27.556  0.00  0.00     0.134 C 
ATOM     90  O3S IDS d1710     -16.944  -3.113 -30.564  0.00  0.00    -0.572 OA
ATOM     91  C4  IDS d1710     -14.629  -3.375 -25.922  0.00  0.00     0.103 C 
ATOM     92  C1  IDS d1710     -17.391  -4.180 -26.600  0.00  0.00     0.161 C 
ATOM     93  O61 IDS d1710     -14.167  -4.594 -23.115  0.00  0.00    -0.646 OA
ATOM     94  H   IDS d1710     -14.816  -2.168 -27.650  0.00  0.00     0.091 H 
ATOM     95  H   IDS d1710     -16.563  -1.702 -25.433  0.00  0.00     0.210 HD
ATOM     96  H   IDS d1710     -16.068  -3.390 -24.405  0.00  0.00     0.104 H 
ATOM     97  H   IDS d1710     -17.282  -2.545 -27.941  0.00  0.00     0.097 H 
ATOM     98  H   IDS d1710     -13.971  -2.747 -25.359  0.00  0.00     0.092 H 
ATOM     99  H   IDS d1710     -17.996  -4.872 -27.147  0.00  0.00     0.133 H 
ATOM    100  C4  SGN d1713      -5.263 -11.908 -27.079  0.00  0.00     0.095 C 
ATOM    101  N   SGN d1713      -7.978 -13.835 -25.370  0.00  0.00    -0.210 NA
ATOM    102  O4S SGN d1713      -2.778 -10.707 -30.672  0.00  0.00    -0.572 OA
ATOM    103  O4  SGN d1713      -4.328 -10.919 -26.618  0.00  0.00    -0.348 OA
ATOM    104  C2  SGN d1713      -7.205 -13.320 -26.474  0.00  0.00     0.081 C 
ATOM    105  O6  SGN d1713      -4.938 -11.819 -29.930  0.00  0.00    -0.254 OA
ATOM    106  O2S SGN d1713      -8.135 -16.056 -26.268  0.00  0.00    -0.296 OA
ATOM    107  O3S SGN d1713      -9.281 -15.584 -24.005  0.00  0.00    -0.296 OA
ATOM    108  C6  SGN d1713      -5.513 -10.670 -29.294  0.00  0.00     0.067 C 
ATOM    109  O5S SGN d1713      -4.725 -10.634 -32.167  0.00  0.00    -0.572 OA
ATOM    110  C5  SGN d1713      -6.186 -11.098 -28.025  0.00  0.00     0.091 C 
ATOM    111  O3  SGN d1713      -5.158 -13.433 -25.253  0.00  0.00    -0.391 OA
ATOM    112  O1S SGN d1713     -10.127 -14.719 -26.152  0.00  0.00    -0.296 OA
ATOM    113  S1  SGN d1713      -8.915 -15.127 -25.501  0.00  0.00     0.156 S 
ATOM    114  O5  SGN d1713      -7.279 -11.938 -28.459  0.00  0.00    -0.349 OA
ATOM    115  S2  SGN d1713      -3.933 -11.524 -31.098  0.00  0.00     0.251 S 
ATOM    116  O6S SGN d1713      -3.603 -12.835 -31.610  0.00  0.00    -0.572 OA
ATOM    117  C3  SGN d1713      -6.040 -12.524 -25.919  0.00  0.00     0.083 C 
ATOM    118  C1  SGN d1713      -8.071 -12.458 -27.401  0.00  0.00     0.150 C 
ATOM    119  H   SGN d1713      -4.795 -12.740 -27.564  0.00  0.00     0.091 H 
ATOM    120  H   SGN d1713      -8.586 -13.073 -25.071  0.00  0.00     0.140 HD
ATOM    121  H   SGN d1713      -6.835 -14.134 -27.062  0.00  0.00     0.076 H 
ATOM    122  H   SGN d1713      -7.333 -16.289 -25.775  0.00  0.00     0.231 HD
ATOM    123  H   SGN d1713      -8.474 -15.863 -23.546  0.00  0.00     0.231 HD
ATOM    124  H   SGN d1713      -6.231 -10.220 -29.948  0.00  0.00     0.080 H 
ATOM    125  H   SGN d1713      -4.745  -9.958 -29.072  0.00  0.00     0.080 H 
ATOM    126  H   SGN d1713      -6.488 -10.240 -27.461  0.00  0.00     0.090 H 
ATOM    127  H   SGN d1713      -4.403 -12.944 -24.889  0.00  0.00     0.210 HD
ATOM    128  H   SGN d1713      -9.928 -14.438 -27.059  0.00  0.00     0.231 HD
ATOM    129  H   SGN d1713      -6.397 -11.765 -25.255  0.00  0.00     0.089 H 
ATOM    130  H   SGN d1713      -8.856 -13.048 -27.826  0.00  0.00     0.131 H 
ATOM    131  C2  SGN d1711     -11.970  -4.582 -28.093  0.00  0.00     0.081 C 
ATOM    132  O4S SGN d1711      -8.232  -6.356 -22.917  0.00  0.00    -0.572 OA
ATOM    133  S1  SGN d1711     -12.474  -3.055 -30.206  0.00  0.00     0.156 S 
ATOM    134  C3  SGN d1711     -11.785  -6.085 -27.816  0.00  0.00     0.083 C 
ATOM    135  O2S SGN d1711     -11.299  -3.438 -30.927  0.00  0.00    -0.296 OA
ATOM    136  O3  SGN d1711     -11.143  -6.736 -28.918  0.00  0.00    -0.391 OA
ATOM    137  N   SGN d1711     -12.813  -4.306 -29.255  0.00  0.00    -0.210 NA
ATOM    138  C4  SGN d1711     -10.937  -6.235 -26.542  0.00  0.00     0.095 C 
ATOM    139  O4  SGN d1711     -11.089  -7.601 -26.100  0.00  0.00    -0.348 OA
ATOM    140  O6S SGN d1711      -7.484  -4.180 -23.458  0.00  0.00    -0.572 OA
ATOM    141  S2  SGN d1711      -8.595  -4.943 -23.067  0.00  0.00     0.251 S 
ATOM    142  O5  SGN d1711     -11.681  -4.096 -25.731  0.00  0.00    -0.349 OA
ATOM    143  C5  SGN d1711     -11.615  -5.486 -25.359  0.00  0.00     0.091 C 
ATOM    144  O1S SGN d1711     -12.315  -1.884 -29.366  0.00  0.00    -0.296 OA
ATOM    145  O6  SGN d1711      -9.616  -4.920 -24.225  0.00  0.00    -0.254 OA
ATOM    146  O5S SGN d1711      -9.388  -4.436 -21.780  0.00  0.00    -0.572 OA
ATOM    147  O3S SGN d1711     -13.769  -2.909 -31.121  0.00  0.00    -0.296 OA
ATOM    148  C1  SGN d1711     -12.511  -3.833 -26.858  0.00  0.00     0.150 C 
ATOM    149  C6  SGN d1711     -10.885  -5.527 -24.015  0.00  0.00     0.067 C 
ATOM    150  H   SGN d1711     -10.991  -4.215 -28.318  0.00  0.00     0.076 H 
ATOM    151  H   SGN d1711     -12.741  -6.546 -27.685  0.00  0.00     0.089 H 
ATOM    152  H   SGN d1711     -10.551  -3.507 -30.313  0.00  0.00     0.231 HD
ATOM    153  H   SGN d1711     -10.270  -6.340 -29.064  0.00  0.00     0.210 HD
ATOM    154  H   SGN d1711     -13.760  -4.163 -28.906  0.00  0.00     0.140 HD
ATOM    155  H   SGN d1711      -9.944  -5.901 -26.758  0.00  0.00     0.091 H 
ATOM    156  H   SGN d1711     -12.552  -5.979 -25.206  0.00  0.00     0.090 H 
ATOM    157  H   SGN d1711     -11.524  -1.985 -28.815  0.00  0.00     0.231 HD
ATOM    158  H   SGN d1711     -14.525  -2.649 -30.572  0.00  0.00     0.231 HD
ATOM    159  H   SGN d1711     -12.513  -2.772 -26.991  0.00  0.00     0.131 H 
ATOM    160  H   SGN d1711     -10.762  -6.539 -23.692  0.00  0.00     0.080 H 
ATOM    161  H   SGN d1711     -11.439  -5.012 -23.258  0.00  0.00     0.080 H 
ENDROOT
TORSDOF 50
ENDMDL
MODEL 21
REMARK VINA RESULT:      -7.7      3.192     15.697
REMARK  0 active torsions:
REMARK  status: ('A' for Active; 'I' for Inactive)
REMARK       I    between atoms: C2_1  and  O2_12 
REMARK       I    between atoms: C1_4  and  O4_37 
REMARK       I    between atoms: O2S_5  and  S1_43 
REMARK       I    between atoms: O2_11  and  C2_82 
REMARK       I    between atoms: O2_11  and  S_80 
REMARK       I    between atoms: O2_12  and  S_23 
REMARK       I    between atoms: C4_13  and  O4_37 
REMARK       I    between atoms: C2_14  and  N_39 
REMARK       I    between atoms: O1_18  and  C1_32 
REMARK       I    between atoms: C4_19  and  O4_53 
REMARK       I    between atoms: O6_20  and  C6_76 
REMARK       I    between atoms: O6_20  and  S2_95 
REMARK       I    between atoms: S1_21  and  N_39 
REMARK       I    between atoms: S1_21  and  O1S_79 
REMARK       I    between atoms: S1_21  and  O2S_30 
REMARK       I    between atoms: S1_21  and  O3S_94 
REMARK       I    between atoms: C3_24  and  O3_26 
REMARK       I    between atoms: C3_25  and  O3_36 
REMARK       I    between atoms: C6_27  and  C5_83 
REMARK       I    between atoms: C4_28  and  O4_51 
REMARK       I    between atoms: N_29  and  C2_40 
REMARK       I    between atoms: N_29  and  S1_71 
REMARK       I    between atoms: C5_31  and  C6_76 
REMARK       I    between atoms: O1S_35  and  S1_43 
REMARK       I    between atoms: O4_38  and  C4_93 
REMARK       I    between atoms: O4_38  and  C1_96 
REMARK       I    between atoms: O6_41  and  C6_54 
REMARK       I    between atoms: O6_41  and  S2_84 
REMARK       I    between atoms: C4_42  and  O4_49 
REMARK       I    between atoms: S1_43  and  N_47 
REMARK       I    between atoms: S1_43  and  O3S_69 
REMARK       I    between atoms: O2S_44  and  S1_71 
REMARK       I    between atoms: N_47  and  C2_56 
REMARK       I    between atoms: O2_48  and  C2_99 
REMARK       I    between atoms: O2_48  and  S_63 
REMARK       I    between atoms: O4_49  and  C1_57 
REMARK       I    between atoms: O4_51  and  C1_102 
REMARK       I    between atoms: O3S_52  and  S1_71 
REMARK       I    between atoms: O4_53  and  C1_105 
REMARK       I    between atoms: C6_54  and  C5_59 
REMARK       I    between atoms: O3_60  and  C3_100 
REMARK       I    between atoms: O1S_61  and  S1_71 
REMARK       I    between atoms: S2_62  and  O6_81 
REMARK       I    between atoms: C5_65  and  C6_89 
REMARK       I    between atoms: C6_67  and  C5_74 
REMARK       I    between atoms: C3_68  and  O3_104 
REMARK       I    between atoms: C3_70  and  O3_85 
REMARK       I    between atoms: C5_77  and  C6_101 
REMARK       I    between atoms: O6_81  and  C6_101 
REMARK       I    between atoms: C3_92  and  O3_98 
ROOT
ATOM      1  C2  IDS d1714      -2.171 -10.704 -25.065  0.00  0.00     0.132 C 
ATOM      2  O3S IDS d1714       1.621 -10.407 -25.496  0.00  0.00    -0.572 OA
ATOM      3  C1  IDS d1714      -2.963 -11.856 -25.625  0.00  0.00     0.161 C 
ATOM      4  O2S IDS d1714       0.014  -8.732 -24.770  0.00  0.00    -0.572 OA
ATOM      5  O2  IDS d1714      -0.782 -10.958 -25.334  0.00  0.00    -0.244 OA
ATOM      6  S   IDS d1714       0.254  -9.875 -25.688  0.00  0.00     0.252 S 
ATOM      7  C6  IDS d1714      -2.868 -14.320 -22.847  0.00  0.00     0.203 C 
ATOM      8  O5  IDS d1714      -2.649 -13.032 -24.859  0.00  0.00    -0.343 OA
ATOM      9  C4  IDS d1714      -2.426 -11.792 -22.735  0.00  0.00    -0.005 C 
ATOM     10  O61 IDS d1714      -2.499 -15.273 -23.576  0.00  0.00    -0.646 OA
ATOM     11  C3  IDS d1714      -2.343 -10.503 -23.563  0.00  0.00     0.069 C 
ATOM     12  C5  IDS d1714      -3.051 -12.956 -23.493  0.00  0.00     0.127 C 
ATOM     13  O3  IDS d1714      -3.492  -9.675 -23.322  0.00  0.00    -0.393 OA
ATOM     14  O1S IDS d1714      -0.057  -9.500 -27.072  0.00  0.00    -0.572 OA
ATOM     15  O62 IDS d1714      -3.087 -14.466 -21.621  0.00  0.00    -0.646 OA
ATOM     16  H   IDS d1714      -2.531  -9.812 -25.533  0.00  0.00     0.097 H 
ATOM     17  H   IDS d1714      -2.750 -12.106 -26.643  0.00  0.00     0.133 H 
ATOM     18  H   IDS d1714      -3.016 -11.598 -21.864  0.00  0.00     0.041 H 
ATOM     19  H   IDS d1714      -1.424 -12.076 -22.490  0.00  0.00     0.041 H 
ATOM     20  H   IDS d1714      -1.447 -10.024 -23.229  0.00  0.00     0.087 H 
ATOM     21  H   IDS d1714      -4.094 -12.719 -23.447  0.00  0.00     0.100 H 
ATOM     22  H   IDS d1714      -4.290 -10.130 -23.633  0.00  0.00     0.210 HD
ATOM     23  O5  SGN d1709     -20.852  -2.515 -26.426  0.00  0.00    -0.350 OA
ATOM     24  O2S SGN d1709     -22.531  -3.339 -22.109  0.00  0.00    -0.296 OA
ATOM     25  O4S SGN d1709     -19.824  -1.248 -31.358  0.00  0.00    -0.572 OA
ATOM     26  O1  SGN d1709     -20.901  -1.083 -24.557  0.00  0.00    -0.369 OA
ATOM     27  O6  SGN d1709     -20.616  -1.458 -29.056  0.00  0.00    -0.254 OA
ATOM     28  C4  SGN d1709     -18.523  -2.978 -26.328  0.00  0.00     0.095 C 
ATOM     29  C5  SGN d1709     -19.598  -2.084 -26.955  0.00  0.00     0.091 C 
ATOM     30  C1  SGN d1709     -21.009  -2.429 -25.010  0.00  0.00     0.147 C 
ATOM     31  O5S SGN d1709     -22.210  -0.568 -30.804  0.00  0.00    -0.572 OA
ATOM     32  O1S SGN d1709     -20.767  -4.010 -20.648  0.00  0.00    -0.296 OA
ATOM     33  S1  SGN d1709     -21.231  -3.950 -22.016  0.00  0.00     0.156 S 
ATOM     34  N   SGN d1709     -20.120  -3.184 -22.865  0.00  0.00    -0.210 NA
ATOM     35  O4  SGN d1709     -17.289  -2.383 -26.763  0.00  0.00    -0.348 OA
ATOM     36  C2  SGN d1709     -19.980  -3.321 -24.310  0.00  0.00     0.081 C 
ATOM     37  C3  SGN d1709     -18.582  -2.941 -24.811  0.00  0.00     0.083 C 
ATOM     38  O3S SGN d1709     -21.316  -5.387 -22.627  0.00  0.00    -0.296 OA
ATOM     39  C6  SGN d1709     -19.655  -2.316 -28.469  0.00  0.00     0.067 C 
ATOM     40  S2  SGN d1709     -20.978  -1.622 -30.543  0.00  0.00     0.251 S 
ATOM     41  O6S SGN d1709     -21.482  -2.989 -30.738  0.00  0.00    -0.572 OA
ATOM     42  O3  SGN d1709     -17.669  -3.894 -24.265  0.00  0.00    -0.391 OA
ATOM     43  H   SGN d1709     -22.495  -2.445 -21.734  0.00  0.00     0.231 HD
ATOM     44  H   SGN d1709     -21.559  -0.535 -25.011  0.00  0.00     0.212 HD
ATOM     45  H   SGN d1709     -18.642  -4.001 -26.616  0.00  0.00     0.091 H 
ATOM     46  H   SGN d1709     -19.385  -1.056 -26.749  0.00  0.00     0.090 H 
ATOM     47  H   SGN d1709     -21.991  -2.775 -24.763  0.00  0.00     0.131 H 
ATOM     48  H   SGN d1709     -20.720  -3.112 -20.283  0.00  0.00     0.231 HD
ATOM     49  H   SGN d1709     -19.223  -3.465 -22.469  0.00  0.00     0.140 HD
ATOM     50  H   SGN d1709     -20.141  -4.353 -24.540  0.00  0.00     0.076 H 
ATOM     51  H   SGN d1709     -18.333  -1.947 -24.505  0.00  0.00     0.089 H 
ATOM     52  H   SGN d1709     -21.982  -5.904 -22.147  0.00  0.00     0.231 HD
ATOM     53  H   SGN d1709     -18.694  -2.115 -28.896  0.00  0.00     0.080 H 
ATOM     54  H   SGN d1709     -19.930  -3.333 -28.658  0.00  0.00     0.080 H 
ATOM     55  H   SGN d1709     -17.918  -4.785 -24.558  0.00  0.00     0.210 HD
ATOM     56  O1S IDS d1712      -8.323 -10.398 -21.793  0.00  0.00    -0.572 OA
ATOM     57  O2S IDS d1712     -10.738 -10.166 -22.191  0.00  0.00    -0.572 OA
ATOM     58  O61 IDS d1712      -9.166 -10.381 -29.756  0.00  0.00    -0.646 OA
ATOM     59  O5  IDS d1712      -8.788  -8.598 -26.683  0.00  0.00    -0.340 OA
ATOM     60  C4  IDS d1712      -9.745 -10.803 -26.917  0.00  0.00     0.103 C 
ATOM     61  O2  IDS d1712      -9.119  -9.831 -23.940  0.00  0.00    -0.244 OA
ATOM     62  O4  IDS d1712      -8.564 -11.400 -26.368  0.00  0.00    -0.348 OA
ATOM     63  C1  IDS d1712      -9.591  -8.185 -25.587  0.00  0.00     0.161 C 
ATOM     64  S   IDS d1712      -9.453 -10.660 -22.695  0.00  0.00     0.252 S 
ATOM     65  C5  IDS d1712      -9.439  -9.471 -27.614  0.00  0.00     0.152 C 
ATOM     66  O62 IDS d1712      -7.541  -9.111 -29.000  0.00  0.00    -0.646 OA
ATOM     67  O3S IDS d1712      -9.532 -12.084 -23.138  0.00  0.00    -0.572 OA
ATOM     68  C6  IDS d1712      -8.651  -9.660 -28.873  0.00  0.00     0.206 C 
ATOM     69  C3  IDS d1712     -10.687 -10.506 -25.759  0.00  0.00     0.094 C 
ATOM     70  O3  IDS d1712     -11.961 -10.093 -26.273  0.00  0.00    -0.390 OA
ATOM     71  C2  IDS d1712     -10.135  -9.380 -24.847  0.00  0.00     0.134 C 
ATOM     72  H   IDS d1712     -10.167 -11.475 -27.635  0.00  0.00     0.092 H 
ATOM     73  H   IDS d1712      -8.969  -7.603 -24.938  0.00  0.00     0.133 H 
ATOM     74  H   IDS d1712     -10.357  -9.018 -27.924  0.00  0.00     0.104 H 
ATOM     75  H   IDS d1712     -10.781 -11.400 -25.178  0.00  0.00     0.091 H 
ATOM     76  H   IDS d1712     -11.851  -9.282 -26.794  0.00  0.00     0.210 HD
ATOM     77  H   IDS d1712     -11.005  -9.077 -24.302  0.00  0.00     0.097 H 
ATOM     78  O62 IDS d1710     -14.888  -5.758 -24.801  0.00  0.00    -0.646 OA
ATOM     79  O2  IDS d1710     -14.671  -3.214 -29.154  0.00  0.00    -0.244 OA
ATOM     80  O1S IDS d1710     -14.426  -4.398 -31.314  0.00  0.00    -0.572 OA
ATOM     81  C3  IDS d1710     -14.296  -1.806 -27.228  0.00  0.00     0.094 C 
ATOM     82  O3  IDS d1710     -14.832  -0.680 -26.531  0.00  0.00    -0.390 OA
ATOM     83  O4  IDS d1710     -12.939  -3.799 -26.859  0.00  0.00    -0.348 OA
ATOM     84  O5  IDS d1710     -15.750  -4.152 -26.554  0.00  0.00    -0.340 OA
ATOM     85  C6  IDS d1710     -14.582  -4.572 -24.519  0.00  0.00     0.206 C 
ATOM     86  O2S IDS d1710     -16.640  -3.768 -30.494  0.00  0.00    -0.572 OA
ATOM     87  C5  IDS d1710     -14.945  -3.523 -25.538  0.00  0.00     0.152 C 
ATOM     88  S   IDS d1710     -15.219  -3.381 -30.617  0.00  0.00     0.252 S 
ATOM     89  C2  IDS d1710     -15.343  -2.403 -28.180  0.00  0.00     0.134 C 
ATOM     90  O3S IDS d1710     -15.067  -2.035 -31.177  0.00  0.00    -0.572 OA
ATOM     91  C4  IDS d1710     -13.758  -2.818 -26.212  0.00  0.00     0.103 C 
ATOM     92  C1  IDS d1710     -16.397  -3.265 -27.466  0.00  0.00     0.161 C 
ATOM     93  O61 IDS d1710     -13.987  -4.238 -23.471  0.00  0.00    -0.646 OA
ATOM     94  H   IDS d1710     -13.476  -1.503 -27.845  0.00  0.00     0.091 H 
ATOM     95  H   IDS d1710     -15.573  -0.967 -25.974  0.00  0.00     0.210 HD
ATOM     96  H   IDS d1710     -15.464  -2.755 -25.004  0.00  0.00     0.104 H 
ATOM     97  H   IDS d1710     -15.860  -1.581 -28.631  0.00  0.00     0.097 H 
ATOM     98  H   IDS d1710     -13.166  -2.301 -25.486  0.00  0.00     0.092 H 
ATOM     99  H   IDS d1710     -16.947  -3.852 -28.171  0.00  0.00     0.133 H 
ATOM    100  C4  SGN d1713      -5.251 -12.279 -26.211  0.00  0.00     0.095 C 
ATOM    101  N   SGN d1713      -8.431 -13.979 -25.207  0.00  0.00    -0.210 NA
ATOM    102  O4S SGN d1713      -1.995 -11.168 -29.158  0.00  0.00    -0.572 OA
ATOM    103  O4  SGN d1713      -4.333 -11.430 -25.504  0.00  0.00    -0.348 OA
ATOM    104  C2  SGN d1713      -7.407 -13.493 -26.100  0.00  0.00     0.081 C 
ATOM    105  O6  SGN d1713      -4.360 -12.067 -28.932  0.00  0.00    -0.254 OA
ATOM    106  O2S SGN d1713      -8.628 -16.113 -26.288  0.00  0.00    -0.296 OA
ATOM    107  O3S SGN d1713     -10.147 -15.643 -24.257  0.00  0.00    -0.296 OA
ATOM    108  C6  SGN d1713      -4.931 -10.898 -28.330  0.00  0.00     0.067 C 
ATOM    109  O5S SGN d1713      -3.588 -10.790 -30.987  0.00  0.00    -0.572 OA
ATOM    110  C5  SGN d1713      -5.882 -11.318 -27.251  0.00  0.00     0.091 C 
ATOM    111  O3  SGN d1713      -5.665 -13.907 -24.522  0.00  0.00    -0.391 OA
ATOM    112  O1S SGN d1713     -10.460 -14.568 -26.452  0.00  0.00    -0.296 OA
ATOM    113  S1  SGN d1713      -9.448 -15.147 -25.615  0.00  0.00     0.156 S 
ATOM    114  O5  SGN d1713      -6.946 -12.002 -27.950  0.00  0.00    -0.349 OA
ATOM    115  S2  SGN d1713      -3.118 -11.823 -29.859  0.00  0.00     0.251 S 
ATOM    116  O6S SGN d1713      -2.826 -13.132 -30.398  0.00  0.00    -0.572 OA
ATOM    117  C3  SGN d1713      -6.301 -12.867 -25.272  0.00  0.00     0.083 C 
ATOM    118  C1  SGN d1713      -7.980 -12.488 -27.106  0.00  0.00     0.150 C 
ATOM    119  H   SGN d1713      -4.783 -13.130 -26.660  0.00  0.00     0.091 H 
ATOM    120  H   SGN d1713      -9.007 -13.171 -24.972  0.00  0.00     0.140 HD
ATOM    121  H   SGN d1713      -7.011 -14.310 -26.668  0.00  0.00     0.076 H 
ATOM    122  H   SGN d1713      -7.968 -16.463 -25.670  0.00  0.00     0.231 HD
ATOM    123  H   SGN d1713      -9.480 -16.037 -23.675  0.00  0.00     0.231 HD
ATOM    124  H   SGN d1713      -5.457 -10.333 -29.072  0.00  0.00     0.080 H 
ATOM    125  H   SGN d1713      -4.155 -10.291 -27.911  0.00  0.00     0.080 H 
ATOM    126  H   SGN d1713      -6.203 -10.464 -26.691  0.00  0.00     0.090 H 
ATOM    127  H   SGN d1713      -4.953 -13.527 -23.983  0.00  0.00     0.210 HD
ATOM    128  H   SGN d1713     -10.057 -14.261 -27.280  0.00  0.00     0.231 HD
ATOM    129  H   SGN d1713      -6.706 -12.111 -24.632  0.00  0.00     0.089 H 
ATOM    130  H   SGN d1713      -8.721 -12.960 -27.718  0.00  0.00     0.131 H 
ATOM    131  C2  SGN d1711     -10.856  -4.195 -27.920  0.00  0.00     0.081 C 
ATOM    132  O4S SGN d1711      -8.417  -6.670 -22.277  0.00  0.00    -0.572 OA
ATOM    133  S1  SGN d1711     -10.774  -2.503 -29.966  0.00  0.00     0.156 S 
ATOM    134  C3  SGN d1711     -10.881  -5.722 -27.730  0.00  0.00     0.083 C 
ATOM    135  O2S SGN d1711      -9.524  -2.976 -30.476  0.00  0.00    -0.296 OA
ATOM    136  O3  SGN d1711     -10.101  -6.379 -28.736  0.00  0.00    -0.391 OA
ATOM    137  N   SGN d1711     -11.419  -3.760 -29.197  0.00  0.00    -0.210 NA
ATOM    138  C4  SGN d1711     -10.322  -6.038 -26.332  0.00  0.00     0.095 C 
ATOM    139  O4  SGN d1711     -10.695  -7.402 -26.035  0.00  0.00    -0.348 OA
ATOM    140  O6S SGN d1711      -7.362  -4.565 -22.495  0.00  0.00    -0.572 OA
ATOM    141  S2  SGN d1711      -8.600  -5.218 -22.384  0.00  0.00     0.251 S 
ATOM    142  O5  SGN d1711     -10.995  -3.879 -25.517  0.00  0.00    -0.349 OA
ATOM    143  C5  SGN d1711     -11.143  -5.285 -25.247  0.00  0.00     0.091 C 
ATOM    144  O1S SGN d1711     -10.669  -1.407 -29.023  0.00  0.00    -0.296 OA
ATOM    145  O6  SGN d1711      -9.363  -5.015 -23.711  0.00  0.00    -0.254 OA
ATOM    146  O5S SGN d1711      -9.578  -4.697 -21.238  0.00  0.00    -0.572 OA
ATOM    147  O3S SGN d1711     -11.841  -2.161 -31.098  0.00  0.00    -0.296 OA
ATOM    148  C1  SGN d1711     -11.553  -3.460 -26.758  0.00  0.00     0.150 C 
ATOM    149  C6  SGN d1711     -10.702  -5.484 -23.795  0.00  0.00     0.067 C 
ATOM    150  H   SGN d1711      -9.819  -3.929 -27.924  0.00  0.00     0.076 H 
ATOM    151  H   SGN d1711     -11.885  -6.079 -27.821  0.00  0.00     0.089 H 
ATOM    152  H   SGN d1711      -8.924  -3.164 -29.738  0.00  0.00     0.231 HD
ATOM    153  H   SGN d1711      -9.181  -6.077 -28.681  0.00  0.00     0.210 HD
ATOM    154  H   SGN d1711     -12.397  -3.530 -29.026  0.00  0.00     0.140 HD
ATOM    155  H   SGN d1711      -9.278  -5.808 -26.328  0.00  0.00     0.091 H 
ATOM    156  H   SGN d1711     -12.136  -5.677 -25.315  0.00  0.00     0.090 H 
ATOM    157  H   SGN d1711     -10.017  -1.629 -28.340  0.00  0.00     0.231 HD
ATOM    158  H   SGN d1711     -12.660  -1.848 -30.685  0.00  0.00     0.231 HD
ATOM    159  H   SGN d1711     -11.422  -2.399 -26.806  0.00  0.00     0.131 H 
ATOM    160  H   SGN d1711     -10.748  -6.521 -23.534  0.00  0.00     0.080 H 
ATOM    161  H   SGN d1711     -11.341  -4.953 -23.121  0.00  0.00     0.080 H 
ENDROOT
TORSDOF 50
ENDMDL
MODEL 22
REMARK VINA RESULT:      -7.7      4.279     15.604
REMARK  0 active torsions:
REMARK  status: ('A' for Active; 'I' for Inactive)
REMARK       I    between atoms: C2_1  and  O2_12 
REMARK       I    between atoms: C1_4  and  O4_37 
REMARK       I    between atoms: O2S_5  and  S1_43 
REMARK       I    between atoms: O2_11  and  C2_82 
REMARK       I    between atoms: O2_11  and  S_80 
REMARK       I    between atoms: O2_12  and  S_23 
REMARK       I    between atoms: C4_13  and  O4_37 
REMARK       I    between atoms: C2_14  and  N_39 
REMARK       I    between atoms: O1_18  and  C1_32 
REMARK       I    between atoms: C4_19  and  O4_53 
REMARK       I    between atoms: O6_20  and  C6_76 
REMARK       I    between atoms: O6_20  and  S2_95 
REMARK       I    between atoms: S1_21  and  N_39 
REMARK       I    between atoms: S1_21  and  O1S_79 
REMARK       I    between atoms: S1_21  and  O2S_30 
REMARK       I    between atoms: S1_21  and  O3S_94 
REMARK       I    between atoms: C3_24  and  O3_26 
REMARK       I    between atoms: C3_25  and  O3_36 
REMARK       I    between atoms: C6_27  and  C5_83 
REMARK       I    between atoms: C4_28  and  O4_51 
REMARK       I    between atoms: N_29  and  C2_40 
REMARK       I    between atoms: N_29  and  S1_71 
REMARK       I    between atoms: C5_31  and  C6_76 
REMARK       I    between atoms: O1S_35  and  S1_43 
REMARK       I    between atoms: O4_38  and  C4_93 
REMARK       I    between atoms: O4_38  and  C1_96 
REMARK       I    between atoms: O6_41  and  C6_54 
REMARK       I    between atoms: O6_41  and  S2_84 
REMARK       I    between atoms: C4_42  and  O4_49 
REMARK       I    between atoms: S1_43  and  N_47 
REMARK       I    between atoms: S1_43  and  O3S_69 
REMARK       I    between atoms: O2S_44  and  S1_71 
REMARK       I    between atoms: N_47  and  C2_56 
REMARK       I    between atoms: O2_48  and  C2_99 
REMARK       I    between atoms: O2_48  and  S_63 
REMARK       I    between atoms: O4_49  and  C1_57 
REMARK       I    between atoms: O4_51  and  C1_102 
REMARK       I    between atoms: O3S_52  and  S1_71 
REMARK       I    between atoms: O4_53  and  C1_105 
REMARK       I    between atoms: C6_54  and  C5_59 
REMARK       I    between atoms: O3_60  and  C3_100 
REMARK       I    between atoms: O1S_61  and  S1_71 
REMARK       I    between atoms: S2_62  and  O6_81 
REMARK       I    between atoms: C5_65  and  C6_89 
REMARK       I    between atoms: C6_67  and  C5_74 
REMARK       I    between atoms: C3_68  and  O3_104 
REMARK       I    between atoms: C3_70  and  O3_85 
REMARK       I    between atoms: C5_77  and  C6_101 
REMARK       I    between atoms: O6_81  and  C6_101 
REMARK       I    between atoms: C3_92  and  O3_98 
ROOT
ATOM      1  C2  IDS d1714      -5.097 -13.081 -26.155  0.00  0.00     0.132 C 
ATOM      2  O3S IDS d1714      -2.688 -16.055 -26.182  0.00  0.00    -0.572 OA
ATOM      3  C1  IDS d1714      -5.204 -12.134 -24.989  0.00  0.00     0.161 C 
ATOM      4  O2S IDS d1714      -4.560 -15.572 -27.657  0.00  0.00    -0.572 OA
ATOM      5  O2  IDS d1714      -4.044 -14.015 -25.864  0.00  0.00    -0.244 OA
ATOM      6  S   IDS d1714      -4.057 -15.502 -26.260  0.00  0.00     0.252 S 
ATOM      7  C6  IDS d1714      -2.672  -9.547 -25.822  0.00  0.00     0.203 C 
ATOM      8  O5  IDS d1714      -4.008 -11.337 -24.946  0.00  0.00    -0.343 OA
ATOM      9  C4  IDS d1714      -3.787 -11.236 -27.403  0.00  0.00    -0.005 C 
ATOM     10  O61 IDS d1714      -2.118  -9.589 -24.696  0.00  0.00    -0.646 OA
ATOM     11  C3  IDS d1714      -4.786 -12.399 -27.482  0.00  0.00     0.069 C 
ATOM     12  C5  IDS d1714      -3.839 -10.486 -26.078  0.00  0.00     0.127 C 
ATOM     13  O3  IDS d1714      -6.010 -11.969 -28.097  0.00  0.00    -0.393 OA
ATOM     14  O1S IDS d1714      -5.012 -16.125 -25.336  0.00  0.00    -0.572 OA
ATOM     15  O62 IDS d1714      -2.293  -8.760 -26.721  0.00  0.00    -0.646 OA
ATOM     16  H   IDS d1714      -6.051 -13.551 -26.272  0.00  0.00     0.097 H 
ATOM     17  H   IDS d1714      -5.280 -12.598 -24.028  0.00  0.00     0.133 H 
ATOM     18  H   IDS d1714      -4.005 -10.547 -28.192  0.00  0.00     0.041 H 
ATOM     19  H   IDS d1714      -2.806 -11.654 -27.492  0.00  0.00     0.041 H 
ATOM     20  H   IDS d1714      -4.294 -13.137 -28.081  0.00  0.00     0.087 H 
ATOM     21  H   IDS d1714      -4.715  -9.883 -26.198  0.00  0.00     0.100 H 
ATOM     22  H   IDS d1714      -6.437 -11.302 -27.537  0.00  0.00     0.210 HD
ATOM     23  O5  SGN d1709     -23.891  -5.483 -28.791  0.00  0.00    -0.350 OA
ATOM     24  O2S SGN d1709     -23.032  -1.912 -31.731  0.00  0.00    -0.296 OA
ATOM     25  O4S SGN d1709     -25.706  -9.136 -25.573  0.00  0.00    -0.572 OA
ATOM     26  O1  SGN d1709     -24.073  -5.419 -31.138  0.00  0.00    -0.369 OA
ATOM     27  O6  SGN d1709     -25.308  -7.432 -27.280  0.00  0.00    -0.254 OA
ATOM     28  C4  SGN d1709     -21.901  -6.779 -28.728  0.00  0.00     0.095 C 
ATOM     29  C5  SGN d1709     -23.431  -6.830 -28.679  0.00  0.00     0.091 C 
ATOM     30  C1  SGN d1709     -23.533  -4.785 -29.983  0.00  0.00     0.147 C 
ATOM     31  O5S SGN d1709     -27.625  -7.628 -26.290  0.00  0.00    -0.572 OA
ATOM     32  O1S SGN d1709     -20.826  -2.086 -32.625  0.00  0.00    -0.296 OA
ATOM     33  S1  SGN d1709     -21.701  -2.418 -31.522  0.00  0.00     0.156 S 
ATOM     34  N   SGN d1709     -21.658  -4.001 -31.337  0.00  0.00    -0.210 NA
ATOM     35  O4  SGN d1709     -21.516  -8.163 -28.786  0.00  0.00    -0.348 OA
ATOM     36  C2  SGN d1709     -22.010  -4.671 -30.091  0.00  0.00     0.081 C 
ATOM     37  C3  SGN d1709     -21.405  -6.076 -29.979  0.00  0.00     0.083 C 
ATOM     38  O3S SGN d1709     -21.149  -1.819 -30.187  0.00  0.00    -0.296 OA
ATOM     39  C6  SGN d1709     -23.895  -7.342 -27.311  0.00  0.00     0.067 C 
ATOM     40  S2  SGN d1709     -26.022  -7.761 -25.956  0.00  0.00     0.251 S 
ATOM     41  O6S SGN d1709     -25.660  -6.725 -24.978  0.00  0.00    -0.572 OA
ATOM     42  O3  SGN d1709     -19.987  -5.916 -29.919  0.00  0.00    -0.391 OA
ATOM     43  H   SGN d1709     -23.390  -2.275 -32.557  0.00  0.00     0.231 HD
ATOM     44  H   SGN d1709     -25.037  -5.482 -31.052  0.00  0.00     0.212 HD
ATOM     45  H   SGN d1709     -21.495  -6.246 -27.894  0.00  0.00     0.091 H 
ATOM     46  H   SGN d1709     -23.801  -7.467 -29.454  0.00  0.00     0.090 H 
ATOM     47  H   SGN d1709     -23.950  -3.801 -29.930  0.00  0.00     0.131 H 
ATOM     48  H   SGN d1709     -21.182  -2.464 -33.445  0.00  0.00     0.231 HD
ATOM     49  H   SGN d1709     -20.699  -4.281 -31.544  0.00  0.00     0.140 HD
ATOM     50  H   SGN d1709     -21.609  -4.078 -29.296  0.00  0.00     0.076 H 
ATOM     51  H   SGN d1709     -21.693  -6.673 -30.818  0.00  0.00     0.089 H 
ATOM     52  H   SGN d1709     -21.152  -0.850 -30.241  0.00  0.00     0.231 HD
ATOM     53  H   SGN d1709     -23.475  -8.310 -27.133  0.00  0.00     0.080 H 
ATOM     54  H   SGN d1709     -23.570  -6.660 -26.553  0.00  0.00     0.080 H 
ATOM     55  H   SGN d1709     -19.755  -5.371 -29.151  0.00  0.00     0.210 HD
ATOM     56  O1S IDS d1712      -8.518  -7.543 -28.659  0.00  0.00    -0.572 OA
ATOM     57  O2S IDS d1712     -10.547  -6.191 -28.341  0.00  0.00    -0.572 OA
ATOM     58  O61 IDS d1712     -12.074 -10.564 -22.152  0.00  0.00    -0.646 OA
ATOM     59  O5  IDS d1712     -11.710 -10.451 -25.704  0.00  0.00    -0.340 OA
ATOM     60  C4  IDS d1712     -11.200  -8.646 -24.184  0.00  0.00     0.103 C 
ATOM     61  O2  IDS d1712     -10.217  -8.285 -27.200  0.00  0.00    -0.244 OA
ATOM     62  O4  IDS d1712      -9.795  -8.872 -24.347  0.00  0.00    -0.348 OA
ATOM     63  C1  IDS d1712     -12.127  -9.638 -26.792  0.00  0.00     0.161 C 
ATOM     64  S   IDS d1712      -9.515  -7.023 -27.713  0.00  0.00     0.252 S 
ATOM     65  C5  IDS d1712     -12.014  -9.927 -24.406  0.00  0.00     0.152 C 
ATOM     66  O62 IDS d1712     -11.362 -12.063 -23.591  0.00  0.00    -0.646 OA
ATOM     67  O3S IDS d1712      -8.904  -6.360 -26.523  0.00  0.00    -0.572 OA
ATOM     68  C6  IDS d1712     -11.798 -10.930 -23.316  0.00  0.00     0.206 C 
ATOM     69  C3  IDS d1712     -11.627  -7.643 -25.246  0.00  0.00     0.094 C 
ATOM     70  O3  IDS d1712     -12.980  -7.232 -24.999  0.00  0.00    -0.390 OA
ATOM     71  C2  IDS d1712     -11.550  -8.251 -26.670  0.00  0.00     0.134 C 
ATOM     72  H   IDS d1712     -11.378  -8.298 -23.187  0.00  0.00     0.092 H 
ATOM     73  H   IDS d1712     -11.778 -10.104 -27.690  0.00  0.00     0.133 H 
ATOM     74  H   IDS d1712     -13.057  -9.692 -24.368  0.00  0.00     0.104 H 
ATOM     75  H   IDS d1712     -10.959  -6.809 -25.194  0.00  0.00     0.091 H 
ATOM     76  H   IDS d1712     -13.566  -8.003 -25.052  0.00  0.00     0.210 HD
ATOM     77  H   IDS d1712     -12.155  -7.578 -27.242  0.00  0.00     0.097 H 
ATOM     78  O62 IDS d1710     -17.085  -7.015 -28.552  0.00  0.00    -0.646 OA
ATOM     79  O2  IDS d1710     -20.019 -10.572 -26.502  0.00  0.00    -0.244 OA
ATOM     80  O1S IDS d1710     -19.947 -11.043 -24.073  0.00  0.00    -0.572 OA
ATOM     81  C3  IDS d1710     -19.860 -10.761 -28.905  0.00  0.00     0.094 C 
ATOM     82  O3  IDS d1710     -20.647 -10.717 -30.096  0.00  0.00    -0.390 OA
ATOM     83  O4  IDS d1710     -17.578 -10.397 -28.121  0.00  0.00    -0.348 OA
ATOM     84  O5  IDS d1710     -19.293  -8.124 -28.013  0.00  0.00    -0.340 OA
ATOM     85  C6  IDS d1710     -17.453  -7.772 -29.486  0.00  0.00     0.206 C 
ATOM     86  O2S IDS d1710     -21.613  -9.507 -24.986  0.00  0.00    -0.572 OA
ATOM     87  C5  IDS d1710     -18.703  -8.577 -29.247  0.00  0.00     0.152 C 
ATOM     88  S   IDS d1710     -20.857 -10.760 -25.186  0.00  0.00     0.252 S 
ATOM     89  C2  IDS d1710     -20.620 -10.131 -27.728  0.00  0.00     0.134 C 
ATOM     90  O3S IDS d1710     -21.740 -11.882 -25.521  0.00  0.00    -0.572 OA
ATOM     91  C4  IDS d1710     -18.505 -10.098 -29.173  0.00  0.00     0.103 C 
ATOM     92  C1  IDS d1710     -20.615  -8.593 -27.751  0.00  0.00     0.161 C 
ATOM     93  O61 IDS d1710     -16.831  -7.898 -30.564  0.00  0.00    -0.646 OA
ATOM     94  H   IDS d1710     -19.671 -11.776 -28.624  0.00  0.00     0.091 H 
ATOM     95  H   IDS d1710     -20.811  -9.793 -30.342  0.00  0.00     0.210 HD
ATOM     96  H   IDS d1710     -19.330  -8.415 -30.099  0.00  0.00     0.104 H 
ATOM     97  H   IDS d1710     -21.640 -10.445 -27.811  0.00  0.00     0.097 H 
ATOM     98  H   IDS d1710     -18.111 -10.472 -30.094  0.00  0.00     0.092 H 
ATOM     99  H   IDS d1710     -20.930  -8.199 -26.808  0.00  0.00     0.133 H 
ATOM    100  C4  SGN d1713      -6.828 -10.582 -24.143  0.00  0.00     0.095 C 
ATOM    101  N   SGN d1713      -7.765  -6.975 -23.801  0.00  0.00    -0.210 NA
ATOM    102  O4S SGN d1713      -6.209 -14.785 -22.569  0.00  0.00    -0.572 OA
ATOM    103  O4  SGN d1713      -6.399 -11.378 -25.260  0.00  0.00    -0.348 OA
ATOM    104  C2  SGN d1713      -7.637  -8.359 -23.413  0.00  0.00     0.081 C 
ATOM    105  O6  SGN d1713      -7.311 -12.544 -22.104  0.00  0.00    -0.254 OA
ATOM    106  O2S SGN d1713      -7.059  -6.115 -21.674  0.00  0.00    -0.296 OA
ATOM    107  O3S SGN d1713      -7.684  -4.420 -23.516  0.00  0.00    -0.296 OA
ATOM    108  C6  SGN d1713      -8.184 -12.544 -23.240  0.00  0.00     0.067 C 
ATOM    109  O5S SGN d1713      -8.256 -14.728 -21.215  0.00  0.00    -0.572 OA
ATOM    110  C5  SGN d1713      -8.229 -11.163 -23.822  0.00  0.00     0.091 C 
ATOM    111  O3  SGN d1713      -5.554  -8.611 -24.549  0.00  0.00    -0.391 OA
ATOM    112  O1S SGN d1713      -9.347  -5.805 -22.338  0.00  0.00    -0.296 OA
ATOM    113  S1  SGN d1713      -7.969  -5.796 -22.738  0.00  0.00     0.156 S 
ATOM    114  O5  SGN d1713      -8.857 -10.357 -22.799  0.00  0.00    -0.349 OA
ATOM    115  S2  SGN d1713      -6.897 -13.956 -21.558  0.00  0.00     0.251 S 
ATOM    116  O6S SGN d1713      -6.120 -13.657 -20.377  0.00  0.00    -0.572 OA
ATOM    117  C3  SGN d1713      -6.898  -9.102 -24.509  0.00  0.00     0.083 C 
ATOM    118  C1  SGN d1713      -9.009  -8.989 -23.147  0.00  0.00     0.150 C 
ATOM    119  H   SGN d1713      -6.158 -10.625 -23.310  0.00  0.00     0.091 H 
ATOM    120  H   SGN d1713      -8.567  -6.931 -24.430  0.00  0.00     0.140 HD
ATOM    121  H   SGN d1713      -7.083  -8.424 -22.499  0.00  0.00     0.076 H 
ATOM    122  H   SGN d1713      -6.150  -6.092 -22.009  0.00  0.00     0.231 HD
ATOM    123  H   SGN d1713      -6.757  -4.393 -23.796  0.00  0.00     0.231 HD
ATOM    124  H   SGN d1713      -9.168 -12.837 -22.936  0.00  0.00     0.080 H 
ATOM    125  H   SGN d1713      -7.823 -13.233 -23.974  0.00  0.00     0.080 H 
ATOM    126  H   SGN d1713      -8.753 -11.174 -24.755  0.00  0.00     0.090 H 
ATOM    127  H   SGN d1713      -5.062  -9.075 -25.246  0.00  0.00     0.210 HD
ATOM    128  H   SGN d1713      -9.541  -6.630 -21.865  0.00  0.00     0.231 HD
ATOM    129  H   SGN d1713      -7.396  -8.965 -25.445  0.00  0.00     0.089 H 
ATOM    130  H   SGN d1713      -9.495  -8.487 -22.336  0.00  0.00     0.131 H 
ATOM    131  C2  SGN d1711     -16.232 -12.086 -27.142  0.00  0.00     0.081 C 
ATOM    132  O4S SGN d1711     -10.942  -9.814 -30.424  0.00  0.00    -0.572 OA
ATOM    133  S1  SGN d1711     -17.915 -14.026 -26.465  0.00  0.00     0.156 S 
ATOM    134  C3  SGN d1711     -15.288 -11.116 -26.409  0.00  0.00     0.083 C 
ATOM    135  O2S SGN d1711     -16.923 -14.848 -25.844  0.00  0.00    -0.296 OA
ATOM    136  O3  SGN d1711     -14.712 -11.733 -25.253  0.00  0.00    -0.391 OA
ATOM    137  N   SGN d1711     -17.364 -12.521 -26.327  0.00  0.00    -0.210 NA
ATOM    138  C4  SGN d1711     -14.184 -10.690 -27.392  0.00  0.00     0.095 C 
ATOM    139  O4  SGN d1711     -13.548  -9.525 -26.822  0.00  0.00    -0.348 OA
ATOM    140  O6S SGN d1711     -11.488 -11.833 -31.525  0.00  0.00    -0.572 OA
ATOM    141  S2  SGN d1711     -11.961 -10.560 -31.169  0.00  0.00     0.251 S 
ATOM    142  O5  SGN d1711     -15.631 -11.085 -29.271  0.00  0.00    -0.349 OA
ATOM    143  C5  SGN d1711     -14.817 -10.063 -28.667  0.00  0.00     0.091 C 
ATOM    144  O1S SGN d1711     -18.131 -14.295 -27.873  0.00  0.00    -0.296 OA
ATOM    145  O6  SGN d1711     -13.121 -10.749 -30.168  0.00  0.00    -0.254 OA
ATOM    146  O5S SGN d1711     -12.550  -9.666 -32.350  0.00  0.00    -0.572 OA
ATOM    147  O3S SGN d1711     -19.304 -13.996 -25.686  0.00  0.00    -0.296 OA
ATOM    148  C1  SGN d1711     -16.737 -11.498 -28.475  0.00  0.00     0.150 C 
ATOM    149  C6  SGN d1711     -13.847  -9.598 -29.754  0.00  0.00     0.067 C 
ATOM    150  H   SGN d1711     -15.639 -12.952 -27.349  0.00  0.00     0.076 H 
ATOM    151  H   SGN d1711     -15.840 -10.262 -26.074  0.00  0.00     0.089 H 
ATOM    152  H   SGN d1711     -16.107 -14.821 -26.367  0.00  0.00     0.231 HD
ATOM    153  H   SGN d1711     -14.203 -12.513 -25.522  0.00  0.00     0.210 HD
ATOM    154  H   SGN d1711     -18.143 -11.900 -26.546  0.00  0.00     0.140 HD
ATOM    155  H   SGN d1711     -13.562 -11.538 -27.586  0.00  0.00     0.091 H 
ATOM    156  H   SGN d1711     -15.332  -9.187 -28.330  0.00  0.00     0.090 H 
ATOM    157  H   SGN d1711     -17.278 -14.310 -28.334  0.00  0.00     0.231 HD
ATOM    158  H   SGN d1711     -19.927 -13.424 -26.159  0.00  0.00     0.231 HD
ATOM    159  H   SGN d1711     -17.279 -12.212 -29.059  0.00  0.00     0.131 H 
ATOM    160  H   SGN d1711     -13.178  -8.861 -29.363  0.00  0.00     0.080 H 
ATOM    161  H   SGN d1711     -14.371  -9.156 -30.576  0.00  0.00     0.080 H 
ENDROOT
TORSDOF 50
ENDMDL
MODEL 23
REMARK VINA RESULT:      -7.7      3.899     15.405
REMARK  0 active torsions:
REMARK  status: ('A' for Active; 'I' for Inactive)
REMARK       I    between atoms: C2_1  and  O2_12 
REMARK       I    between atoms: C1_4  and  O4_37 
REMARK       I    between atoms: O2S_5  and  S1_43 
REMARK       I    between atoms: O2_11  and  C2_82 
REMARK       I    between atoms: O2_11  and  S_80 
REMARK       I    between atoms: O2_12  and  S_23 
REMARK       I    between atoms: C4_13  and  O4_37 
REMARK       I    between atoms: C2_14  and  N_39 
REMARK       I    between atoms: O1_18  and  C1_32 
REMARK       I    between atoms: C4_19  and  O4_53 
REMARK       I    between atoms: O6_20  and  C6_76 
REMARK       I    between atoms: O6_20  and  S2_95 
REMARK       I    between atoms: S1_21  and  N_39 
REMARK       I    between atoms: S1_21  and  O1S_79 
REMARK       I    between atoms: S1_21  and  O2S_30 
REMARK       I    between atoms: S1_21  and  O3S_94 
REMARK       I    between atoms: C3_24  and  O3_26 
REMARK       I    between atoms: C3_25  and  O3_36 
REMARK       I    between atoms: C6_27  and  C5_83 
REMARK       I    between atoms: C4_28  and  O4_51 
REMARK       I    between atoms: N_29  and  C2_40 
REMARK       I    between atoms: N_29  and  S1_71 
REMARK       I    between atoms: C5_31  and  C6_76 
REMARK       I    between atoms: O1S_35  and  S1_43 
REMARK       I    between atoms: O4_38  and  C4_93 
REMARK       I    between atoms: O4_38  and  C1_96 
REMARK       I    between atoms: O6_41  and  C6_54 
REMARK       I    between atoms: O6_41  and  S2_84 
REMARK       I    between atoms: C4_42  and  O4_49 
REMARK       I    between atoms: S1_43  and  N_47 
REMARK       I    between atoms: S1_43  and  O3S_69 
REMARK       I    between atoms: O2S_44  and  S1_71 
REMARK       I    between atoms: N_47  and  C2_56 
REMARK       I    between atoms: O2_48  and  C2_99 
REMARK       I    between atoms: O2_48  and  S_63 
REMARK       I    between atoms: O4_49  and  C1_57 
REMARK       I    between atoms: O4_51  and  C1_102 
REMARK       I    between atoms: O3S_52  and  S1_71 
REMARK       I    between atoms: O4_53  and  C1_105 
REMARK       I    between atoms: C6_54  and  C5_59 
REMARK       I    between atoms: O3_60  and  C3_100 
REMARK       I    between atoms: O1S_61  and  S1_71 
REMARK       I    between atoms: S2_62  and  O6_81 
REMARK       I    between atoms: C5_65  and  C6_89 
REMARK       I    between atoms: C6_67  and  C5_74 
REMARK       I    between atoms: C3_68  and  O3_104 
REMARK       I    between atoms: C3_70  and  O3_85 
REMARK       I    between atoms: C5_77  and  C6_101 
REMARK       I    between atoms: O6_81  and  C6_101 
REMARK       I    between atoms: C3_92  and  O3_98 
ROOT
ATOM      1  C2  IDS d1714      -6.525 -12.427 -26.629  0.00  0.00     0.132 C 
ATOM      2  O3S IDS d1714      -4.780 -15.786 -27.194  0.00  0.00    -0.572 OA
ATOM      3  C1  IDS d1714      -6.770 -11.860 -25.255  0.00  0.00     0.161 C 
ATOM      4  O2S IDS d1714      -6.064 -14.431 -28.753  0.00  0.00    -0.572 OA
ATOM      5  O2  IDS d1714      -5.778 -13.644 -26.472  0.00  0.00    -0.244 OA
ATOM      6  S   IDS d1714      -5.953 -14.898 -27.347  0.00  0.00     0.252 S 
ATOM      7  C6  IDS d1714      -3.680  -9.893 -24.636  0.00  0.00     0.203 C 
ATOM      8  O5  IDS d1714      -5.505 -11.448 -24.707  0.00  0.00    -0.343 OA
ATOM      9  C4  IDS d1714      -4.614 -10.707 -26.887  0.00  0.00    -0.005 C 
ATOM     10  O61 IDS d1714      -3.469 -10.398 -23.507  0.00  0.00    -0.646 OA
ATOM     11  C3  IDS d1714      -5.747 -11.497 -27.554  0.00  0.00     0.069 C 
ATOM     12  C5  IDS d1714      -4.885 -10.382 -25.423  0.00  0.00     0.127 C 
ATOM     13  O3  IDS d1714      -6.661 -10.607 -28.214  0.00  0.00    -0.393 OA
ATOM     14  O1S IDS d1714      -7.219 -15.491 -26.899  0.00  0.00    -0.572 OA
ATOM     15  O62 IDS d1714      -2.936  -9.007 -25.120  0.00  0.00    -0.646 OA
ATOM     16  H   IDS d1714      -7.481 -12.579 -27.085  0.00  0.00     0.097 H 
ATOM     17  H   IDS d1714      -7.186 -12.545 -24.545  0.00  0.00     0.133 H 
ATOM     18  H   IDS d1714      -4.481  -9.789 -27.420  0.00  0.00     0.041 H 
ATOM     19  H   IDS d1714      -3.738 -11.321 -26.918  0.00  0.00     0.041 H 
ATOM     20  H   IDS d1714      -5.255 -12.134 -28.259  0.00  0.00     0.087 H 
ATOM     21  H   IDS d1714      -5.571  -9.565 -25.500  0.00  0.00     0.100 H 
ATOM     22  H   IDS d1714      -7.095 -10.042 -27.555  0.00  0.00     0.210 HD
ATOM     23  O5  SGN d1709     -22.200   0.211 -30.163  0.00  0.00    -0.350 OA
ATOM     24  O2S SGN d1709     -19.944   4.125 -31.476  0.00  0.00    -0.296 OA
ATOM     25  O4S SGN d1709     -25.450  -3.610 -28.813  0.00  0.00    -0.572 OA
ATOM     26  O1  SGN d1709     -21.725   0.990 -32.335  0.00  0.00    -0.369 OA
ATOM     27  O6  SGN d1709     -24.302  -1.653 -29.720  0.00  0.00    -0.254 OA
ATOM     28  C4  SGN d1709     -20.571  -1.519 -30.156  0.00  0.00     0.095 C 
ATOM     29  C5  SGN d1709     -22.040  -1.183 -30.430  0.00  0.00     0.091 C 
ATOM     30  C1  SGN d1709     -21.412   1.104 -30.950  0.00  0.00     0.147 C 
ATOM     31  O5S SGN d1709     -26.796  -1.517 -29.334  0.00  0.00    -0.572 OA
ATOM     32  O1S SGN d1709     -17.648   3.649 -31.921  0.00  0.00    -0.296 OA
ATOM     33  S1  SGN d1709     -18.833   3.253 -31.194  0.00  0.00     0.156 S 
ATOM     34  N   SGN d1709     -19.130   1.729 -31.556  0.00  0.00    -0.210 NA
ATOM     35  O4  SGN d1709     -20.442  -2.878 -30.606  0.00  0.00    -0.348 OA
ATOM     36  C2  SGN d1709     -19.922   0.845 -30.710  0.00  0.00     0.081 C 
ATOM     37  C3  SGN d1709     -19.636  -0.640 -30.967  0.00  0.00     0.083 C 
ATOM     38  O3S SGN d1709     -18.564   3.279 -29.653  0.00  0.00    -0.296 OA
ATOM     39  C6  SGN d1709     -22.942  -1.927 -29.439  0.00  0.00     0.067 C 
ATOM     40  S2  SGN d1709     -25.395  -2.151 -28.757  0.00  0.00     0.251 S 
ATOM     41  O6S SGN d1709     -25.129  -1.571 -27.433  0.00  0.00    -0.572 OA
ATOM     42  O3  SGN d1709     -18.282  -0.878 -30.578  0.00  0.00    -0.391 OA
ATOM     43  H   SGN d1709     -20.125   4.120 -32.429  0.00  0.00     0.231 HD
ATOM     44  H   SGN d1709     -22.671   1.158 -32.467  0.00  0.00     0.212 HD
ATOM     45  H   SGN d1709     -20.316  -1.372 -29.127  0.00  0.00     0.091 H 
ATOM     46  H   SGN d1709     -22.296  -1.452 -31.433  0.00  0.00     0.090 H 
ATOM     47  H   SGN d1709     -21.642   2.104 -30.647  0.00  0.00     0.131 H 
ATOM     48  H   SGN d1709     -17.831   3.628 -32.874  0.00  0.00     0.231 HD
ATOM     49  H   SGN d1709     -18.219   1.282 -31.653  0.00  0.00     0.140 HD
ATOM     50  H   SGN d1709     -19.650   1.059 -29.697  0.00  0.00     0.076 H 
ATOM     51  H   SGN d1709     -19.789  -0.875 -31.999  0.00  0.00     0.089 H 
ATOM     52  H   SGN d1709     -18.376   4.189 -29.373  0.00  0.00     0.231 HD
ATOM     53  H   SGN d1709     -22.768  -2.980 -29.523  0.00  0.00     0.080 H 
ATOM     54  H   SGN d1709     -22.716  -1.601 -28.445  0.00  0.00     0.080 H 
ATOM     55  H   SGN d1709     -18.172  -0.656 -29.640  0.00  0.00     0.210 HD
ATOM     56  O1S IDS d1712      -8.076  -5.714 -27.713  0.00  0.00    -0.572 OA
ATOM     57  O2S IDS d1712      -9.835  -4.033 -27.359  0.00  0.00    -0.572 OA
ATOM     58  O61 IDS d1712     -13.747  -9.445 -23.467  0.00  0.00    -0.646 OA
ATOM     59  O5  IDS d1712     -12.421  -8.415 -26.621  0.00  0.00    -0.340 OA
ATOM     60  C4  IDS d1712     -12.023  -7.320 -24.506  0.00  0.00     0.103 C 
ATOM     61  O2  IDS d1712     -10.211  -6.377 -26.961  0.00  0.00    -0.244 OA
ATOM     62  O4  IDS d1712     -10.691  -7.846 -24.457  0.00  0.00    -0.348 OA
ATOM     63  C1  IDS d1712     -12.373  -7.246 -27.425  0.00  0.00     0.161 C 
ATOM     64  S   IDS d1712      -9.180  -5.247 -26.863  0.00  0.00     0.252 S 
ATOM     65  C5  IDS d1712     -12.964  -8.227 -25.309  0.00  0.00     0.152 C 
ATOM     66  O62 IDS d1712     -12.957 -10.599 -25.161  0.00  0.00    -0.646 OA
ATOM     67  O3S IDS d1712      -8.804  -5.136 -25.422  0.00  0.00    -0.572 OA
ATOM     68  C6  IDS d1712     -13.237  -9.520 -24.607  0.00  0.00     0.206 C 
ATOM     69  C3  IDS d1712     -11.957  -5.979 -25.224  0.00  0.00     0.094 C 
ATOM     70  O3  IDS d1712     -13.228  -5.321 -25.124  0.00  0.00    -0.390 OA
ATOM     71  C2  IDS d1712     -11.609  -6.152 -26.725  0.00  0.00     0.134 C 
ATOM     72  H   IDS d1712     -12.397  -7.239 -23.507  0.00  0.00     0.092 H 
ATOM     73  H   IDS d1712     -11.885  -7.508 -28.341  0.00  0.00     0.133 H 
ATOM     74  H   IDS d1712     -13.918  -7.750 -25.399  0.00  0.00     0.104 H 
ATOM     75  H   IDS d1712     -11.188  -5.398 -24.759  0.00  0.00     0.091 H 
ATOM     76  H   IDS d1712     -13.908  -5.865 -25.551  0.00  0.00     0.210 HD
ATOM     77  H   IDS d1712     -11.904  -5.210 -27.140  0.00  0.00     0.097 H 
ATOM     78  O62 IDS d1710     -16.108  -3.035 -29.124  0.00  0.00    -0.646 OA
ATOM     79  O2  IDS d1710     -20.083  -6.143 -29.034  0.00  0.00    -0.244 OA
ATOM     80  O1S IDS d1710     -20.757  -7.294 -26.949  0.00  0.00    -0.572 OA
ATOM     81  C3  IDS d1710     -19.316  -5.669 -31.276  0.00  0.00     0.094 C 
ATOM     82  O3  IDS d1710     -19.731  -5.082 -32.510  0.00  0.00    -0.390 OA
ATOM     83  O4  IDS d1710     -17.306  -6.150 -29.981  0.00  0.00    -0.348 OA
ATOM     84  O5  IDS d1710     -18.543  -3.641 -29.443  0.00  0.00    -0.340 OA
ATOM     85  C6  IDS d1710     -16.341  -3.370 -30.314  0.00  0.00     0.206 C 
ATOM     86  O2S IDS d1710     -21.807  -5.183 -27.592  0.00  0.00    -0.572 OA
ATOM     87  C5  IDS d1710     -17.734  -3.856 -30.616  0.00  0.00     0.152 C 
ATOM     88  S   IDS d1710     -21.266  -6.477 -28.055  0.00  0.00     0.252 S 
ATOM     89  C2  IDS d1710     -20.239  -5.229 -30.129  0.00  0.00     0.134 C 
ATOM     90  O3S IDS d1710     -22.213  -7.186 -28.920  0.00  0.00    -0.572 OA
ATOM     91  C4  IDS d1710     -17.843  -5.333 -31.028  0.00  0.00     0.103 C 
ATOM     92  C1  IDS d1710     -19.949  -3.806 -29.624  0.00  0.00     0.161 C 
ATOM     93  O61 IDS d1710     -15.484  -3.338 -31.225  0.00  0.00    -0.646 OA
ATOM     94  H   IDS d1710     -19.399  -6.735 -31.327  0.00  0.00     0.091 H 
ATOM     95  H   IDS d1710     -19.652  -4.117 -32.453  0.00  0.00     0.210 HD
ATOM     96  H   IDS d1710     -18.067  -3.300 -31.467  0.00  0.00     0.104 H 
ATOM     97  H   IDS d1710     -21.238  -5.231 -30.514  0.00  0.00     0.097 H 
ATOM     98  H   IDS d1710     -17.289  -5.515 -31.925  0.00  0.00     0.092 H 
ATOM     99  H   IDS d1710     -20.430  -3.631 -28.685  0.00  0.00     0.133 H 
ATOM    100  C4  SGN d1713      -8.252 -10.251 -24.268  0.00  0.00     0.095 C 
ATOM    101  N   SGN d1713      -8.575  -6.780 -22.906  0.00  0.00    -0.210 NA
ATOM    102  O4S SGN d1713      -8.856 -14.739 -24.135  0.00  0.00    -0.572 OA
ATOM    103  O4  SGN d1713      -7.688 -10.776 -25.482  0.00  0.00    -0.348 OA
ATOM    104  C2  SGN d1713      -8.810  -8.201 -22.997  0.00  0.00     0.081 C 
ATOM    105  O6  SGN d1713      -9.616 -12.521 -23.159  0.00  0.00    -0.254 OA
ATOM    106  O2S SGN d1713      -8.327  -6.781 -20.519  0.00  0.00    -0.296 OA
ATOM    107  O3S SGN d1713      -8.112  -4.527 -21.755  0.00  0.00    -0.296 OA
ATOM    108  C6  SGN d1713     -10.135 -11.967 -24.375  0.00  0.00     0.067 C 
ATOM    109  O5S SGN d1713     -11.147 -14.544 -23.275  0.00  0.00    -0.572 OA
ATOM    110  C5  SGN d1713      -9.768 -10.515 -24.447  0.00  0.00     0.091 C 
ATOM    111  O3  SGN d1713      -6.579  -8.648 -23.717  0.00  0.00    -0.391 OA
ATOM    112  O1S SGN d1713     -10.254  -5.711 -21.474  0.00  0.00    -0.296 OA
ATOM    113  S1  SGN d1713      -8.841  -5.945 -21.566  0.00  0.00     0.156 S 
ATOM    114  O5  SGN d1713     -10.492  -9.903 -23.356  0.00  0.00    -0.349 OA
ATOM    115  S2  SGN d1713      -9.629 -14.086 -23.058  0.00  0.00     0.251 S 
ATOM    116  O6S SGN d1713      -9.160 -14.351 -21.718  0.00  0.00    -0.572 OA
ATOM    117  C3  SGN d1713      -7.950  -8.763 -24.112  0.00  0.00     0.083 C 
ATOM    118  C1  SGN d1713     -10.294  -8.502 -23.239  0.00  0.00     0.150 C 
ATOM    119  H   SGN d1713      -7.851 -10.703 -23.384  0.00  0.00     0.091 H 
ATOM    120  H   SGN d1713      -9.155  -6.351 -23.628  0.00  0.00     0.140 HD
ATOM    121  H   SGN d1713      -8.546  -8.667 -22.070  0.00  0.00     0.076 H 
ATOM    122  H   SGN d1713      -7.372  -6.899 -20.639  0.00  0.00     0.231 HD
ATOM    123  H   SGN d1713      -7.154  -4.662 -21.820  0.00  0.00     0.231 HD
ATOM    124  H   SGN d1713     -11.200 -12.070 -24.390  0.00  0.00     0.080 H 
ATOM    125  H   SGN d1713      -9.720 -12.486 -25.214  0.00  0.00     0.080 H 
ATOM    126  H   SGN d1713     -10.014 -10.122 -25.412  0.00  0.00     0.090 H 
ATOM    127  H   SGN d1713      -6.010  -9.002 -24.418  0.00  0.00     0.210 HD
ATOM    128  H   SGN d1713     -10.715  -6.557 -21.359  0.00  0.00     0.231 HD
ATOM    129  H   SGN d1713      -8.143  -8.238 -25.024  0.00  0.00     0.089 H 
ATOM    130  H   SGN d1713     -10.882  -8.146 -22.418  0.00  0.00     0.131 H 
ATOM    131  C2  SGN d1711     -16.604  -8.337 -29.393  0.00  0.00     0.081 C 
ATOM    132  O4S SGN d1711     -10.303  -6.672 -30.588  0.00  0.00    -0.572 OA
ATOM    133  S1  SGN d1711     -18.731  -9.884 -29.765  0.00  0.00     0.156 S 
ATOM    134  C3  SGN d1711     -15.734  -7.898 -28.201  0.00  0.00     0.083 C 
ATOM    135  O2S SGN d1711     -18.110 -11.078 -29.279  0.00  0.00    -0.296 OA
ATOM    136  O3  SGN d1711     -15.614  -8.949 -27.236  0.00  0.00    -0.391 OA
ATOM    137  N   SGN d1711     -17.974  -8.680 -29.015  0.00  0.00    -0.210 NA
ATOM    138  C4  SGN d1711     -14.347  -7.510 -28.741  0.00  0.00     0.095 C 
ATOM    139  O4  SGN d1711     -13.688  -6.764 -27.694  0.00  0.00    -0.348 OA
ATOM    140  O6S SGN d1711     -10.888  -8.076 -32.398  0.00  0.00    -0.572 OA
ATOM    141  S2  SGN d1711     -11.200  -6.882 -31.730  0.00  0.00     0.251 S 
ATOM    142  O5  SGN d1711     -15.278  -6.960 -30.889  0.00  0.00    -0.349 OA
ATOM    143  C5  SGN d1711     -14.487  -6.401 -29.823  0.00  0.00     0.091 C 
ATOM    144  O1S SGN d1711     -18.604  -9.672 -31.194  0.00  0.00    -0.296 OA
ATOM    145  O6  SGN d1711     -12.602  -7.043 -31.103  0.00  0.00    -0.254 OA
ATOM    146  O5S SGN d1711     -11.275  -5.566 -32.625  0.00  0.00    -0.572 OA
ATOM    147  O3S SGN d1711     -20.249  -9.721 -29.313  0.00  0.00    -0.296 OA
ATOM    148  C1  SGN d1711     -16.614  -7.282 -30.517  0.00  0.00     0.150 C 
ATOM    149  C6  SGN d1711     -13.191  -5.912 -30.473  0.00  0.00     0.067 C 
ATOM    150  H   SGN d1711     -16.145  -9.231 -29.761  0.00  0.00     0.076 H 
ATOM    151  H   SGN d1711     -16.191  -7.064 -27.711  0.00  0.00     0.089 H 
ATOM    152  H   SGN d1711     -17.192 -11.115 -29.590  0.00  0.00     0.231 HD
ATOM    153  H   SGN d1711     -15.202  -9.723 -27.650  0.00  0.00     0.210 HD
ATOM    154  H   SGN d1711     -18.538  -7.842 -29.158  0.00  0.00     0.140 HD
ATOM    155  H   SGN d1711     -13.860  -8.398 -29.086  0.00  0.00     0.091 H 
ATOM    156  H   SGN d1711     -14.905  -5.557 -29.317  0.00  0.00     0.090 H 
ATOM    157  H   SGN d1711     -17.675  -9.775 -31.454  0.00  0.00     0.231 HD
ATOM    158  H   SGN d1711     -20.607  -8.895 -29.675  0.00  0.00     0.231 HD
ATOM    159  H   SGN d1711     -17.099  -7.633 -31.404  0.00  0.00     0.131 H 
ATOM    160  H   SGN d1711     -12.531  -5.518 -29.729  0.00  0.00     0.080 H 
ATOM    161  H   SGN d1711     -13.383  -5.133 -31.180  0.00  0.00     0.080 H 
ENDROOT
TORSDOF 50
ENDMDL
MODEL 24
REMARK VINA RESULT:      -7.6      3.042     15.406
REMARK  0 active torsions:
REMARK  status: ('A' for Active; 'I' for Inactive)
REMARK       I    between atoms: C2_1  and  O2_12 
REMARK       I    between atoms: C1_4  and  O4_37 
REMARK       I    between atoms: O2S_5  and  S1_43 
REMARK       I    between atoms: O2_11  and  C2_82 
REMARK       I    between atoms: O2_11  and  S_80 
REMARK       I    between atoms: O2_12  and  S_23 
REMARK       I    between atoms: C4_13  and  O4_37 
REMARK       I    between atoms: C2_14  and  N_39 
REMARK       I    between atoms: O1_18  and  C1_32 
REMARK       I    between atoms: C4_19  and  O4_53 
REMARK       I    between atoms: O6_20  and  C6_76 
REMARK       I    between atoms: O6_20  and  S2_95 
REMARK       I    between atoms: S1_21  and  N_39 
REMARK       I    between atoms: S1_21  and  O1S_79 
REMARK       I    between atoms: S1_21  and  O2S_30 
REMARK       I    between atoms: S1_21  and  O3S_94 
REMARK       I    between atoms: C3_24  and  O3_26 
REMARK       I    between atoms: C3_25  and  O3_36 
REMARK       I    between atoms: C6_27  and  C5_83 
REMARK       I    between atoms: C4_28  and  O4_51 
REMARK       I    between atoms: N_29  and  C2_40 
REMARK       I    between atoms: N_29  and  S1_71 
REMARK       I    between atoms: C5_31  and  C6_76 
REMARK       I    between atoms: O1S_35  and  S1_43 
REMARK       I    between atoms: O4_38  and  C4_93 
REMARK       I    between atoms: O4_38  and  C1_96 
REMARK       I    between atoms: O6_41  and  C6_54 
REMARK       I    between atoms: O6_41  and  S2_84 
REMARK       I    between atoms: C4_42  and  O4_49 
REMARK       I    between atoms: S1_43  and  N_47 
REMARK       I    between atoms: S1_43  and  O3S_69 
REMARK       I    between atoms: O2S_44  and  S1_71 
REMARK       I    between atoms: N_47  and  C2_56 
REMARK       I    between atoms: O2_48  and  C2_99 
REMARK       I    between atoms: O2_48  and  S_63 
REMARK       I    between atoms: O4_49  and  C1_57 
REMARK       I    between atoms: O4_51  and  C1_102 
REMARK       I    between atoms: O3S_52  and  S1_71 
REMARK       I    between atoms: O4_53  and  C1_105 
REMARK       I    between atoms: C6_54  and  C5_59 
REMARK       I    between atoms: O3_60  and  C3_100 
REMARK       I    between atoms: O1S_61  and  S1_71 
REMARK       I    between atoms: S2_62  and  O6_81 
REMARK       I    between atoms: C5_65  and  C6_89 
REMARK       I    between atoms: C6_67  and  C5_74 
REMARK       I    between atoms: C3_68  and  O3_104 
REMARK       I    between atoms: C3_70  and  O3_85 
REMARK       I    between atoms: C5_77  and  C6_101 
REMARK       I    between atoms: O6_81  and  C6_101 
REMARK       I    between atoms: C3_92  and  O3_98 
ROOT
ATOM      1  C2  IDS d1714      -4.717 -11.813 -27.177  0.00  0.00     0.132 C 
ATOM      2  O3S IDS d1714      -2.280 -14.224 -28.881  0.00  0.00    -0.572 OA
ATOM      3  C1  IDS d1714      -5.130 -11.961 -25.736  0.00  0.00     0.161 C 
ATOM      4  O2S IDS d1714      -3.758 -12.566 -29.871  0.00  0.00    -0.572 OA
ATOM      5  O2  IDS d1714      -3.736 -12.826 -27.455  0.00  0.00    -0.244 OA
ATOM      6  S   IDS d1714      -3.608 -13.577 -28.793  0.00  0.00     0.252 S 
ATOM      7  C6  IDS d1714      -2.552  -9.965 -23.954  0.00  0.00     0.203 C 
ATOM      8  O5  IDS d1714      -4.003 -11.620 -24.908  0.00  0.00    -0.343 OA
ATOM      9  C4  IDS d1714      -3.203  -9.854 -26.437  0.00  0.00    -0.005 C 
ATOM     10  O61 IDS d1714      -2.284 -10.870 -23.128  0.00  0.00    -0.646 OA
ATOM     11  C3  IDS d1714      -4.117 -10.453 -27.514  0.00  0.00     0.069 C 
ATOM     12  C5  IDS d1714      -3.594 -10.258 -25.021  0.00  0.00     0.127 C 
ATOM     13  O3  IDS d1714      -5.171  -9.536 -27.847  0.00  0.00    -0.393 OA
ATOM     14  O1S IDS d1714      -4.736 -14.514 -28.803  0.00  0.00    -0.572 OA
ATOM     15  O62 IDS d1714      -1.993  -8.844 -23.918  0.00  0.00    -0.646 OA
ATOM     16  H   IDS d1714      -5.600 -11.912 -27.773  0.00  0.00     0.097 H 
ATOM     17  H   IDS d1714      -5.419 -12.948 -25.441  0.00  0.00     0.133 H 
ATOM     18  H   IDS d1714      -3.246  -8.787 -26.510  0.00  0.00     0.041 H 
ATOM     19  H   IDS d1714      -2.217 -10.230 -26.612  0.00  0.00     0.041 H 
ATOM     20  H   IDS d1714      -3.473 -10.619 -28.353  0.00  0.00     0.087 H 
ATOM     21  H   IDS d1714      -4.434  -9.623 -24.832  0.00  0.00     0.100 H 
ATOM     22  H   IDS d1714      -5.740  -9.402 -27.072  0.00  0.00     0.210 HD
ATOM     23  O5  SGN d1709     -22.554  -1.828 -27.008  0.00  0.00    -0.350 OA
ATOM     24  O2S SGN d1709     -21.125   2.588 -26.243  0.00  0.00    -0.296 OA
ATOM     25  O4S SGN d1709     -24.975  -6.352 -27.827  0.00  0.00    -0.572 OA
ATOM     26  O1  SGN d1709     -22.169  -0.105 -28.566  0.00  0.00    -0.369 OA
ATOM     27  O6  SGN d1709     -24.231  -4.029 -27.667  0.00  0.00    -0.254 OA
ATOM     28  C4  SGN d1709     -20.598  -3.075 -27.525  0.00  0.00     0.095 C 
ATOM     29  C5  SGN d1709     -22.093  -2.912 -27.816  0.00  0.00     0.091 C 
ATOM     30  C1  SGN d1709     -21.942  -0.560 -27.236  0.00  0.00     0.147 C 
ATOM     31  O5S SGN d1709     -26.711  -4.510 -27.583  0.00  0.00    -0.572 OA
ATOM     32  O1S SGN d1709     -18.765   2.761 -26.550  0.00  0.00    -0.296 OA
ATOM     33  S1  SGN d1709     -19.868   1.887 -26.217  0.00  0.00     0.156 S 
ATOM     34  N   SGN d1709     -19.822   0.652 -27.224  0.00  0.00    -0.210 NA
ATOM     35  O4  SGN d1709     -20.167  -4.053 -28.487  0.00  0.00    -0.348 OA
ATOM     36  C2  SGN d1709     -20.442  -0.636 -26.939  0.00  0.00     0.081 C 
ATOM     37  C3  SGN d1709     -19.838  -1.782 -27.761  0.00  0.00     0.083 C 
ATOM     38  O3S SGN d1709     -19.671   1.279 -24.789  0.00  0.00    -0.296 OA
ATOM     39  C6  SGN d1709     -22.856  -4.160 -27.357  0.00  0.00     0.067 C 
ATOM     40  S2  SGN d1709     -25.232  -5.080 -27.154  0.00  0.00     0.251 S 
ATOM     41  O6S SGN d1709     -25.147  -5.106 -25.687  0.00  0.00    -0.572 OA
ATOM     42  O3  SGN d1709     -18.482  -1.929 -27.340  0.00  0.00    -0.391 OA
ATOM     43  H   SGN d1709     -21.263   2.972 -27.123  0.00  0.00     0.231 HD
ATOM     44  H   SGN d1709     -23.123  -0.062 -28.735  0.00  0.00     0.212 HD
ATOM     45  H   SGN d1709     -20.421  -3.354 -26.507  0.00  0.00     0.091 H 
ATOM     46  H   SGN d1709     -22.246  -2.752 -28.863  0.00  0.00     0.090 H 
ATOM     47  H   SGN d1709     -22.389   0.149 -26.571  0.00  0.00     0.131 H 
ATOM     48  H   SGN d1709     -18.901   3.130 -27.437  0.00  0.00     0.231 HD
ATOM     49  H   SGN d1709     -18.833   0.458 -27.383  0.00  0.00     0.140 HD
ATOM     50  H   SGN d1709     -20.262  -0.846 -25.906  0.00  0.00     0.076 H 
ATOM     51  H   SGN d1709     -19.898  -1.562 -28.806  0.00  0.00     0.089 H 
ATOM     52  H   SGN d1709     -19.691   1.990 -24.129  0.00  0.00     0.231 HD
ATOM     53  H   SGN d1709     -22.461  -5.020 -27.855  0.00  0.00     0.080 H 
ATOM     54  H   SGN d1709     -22.743  -4.270 -26.299  0.00  0.00     0.080 H 
ATOM     55  H   SGN d1709     -18.458  -2.127 -26.390  0.00  0.00     0.210 HD
ATOM     56  O1S IDS d1712      -7.606  -5.688 -25.510  0.00  0.00    -0.572 OA
ATOM     57  O2S IDS d1712      -9.693  -4.666 -24.706  0.00  0.00    -0.572 OA
ATOM     58  O61 IDS d1712     -12.525 -11.824 -24.003  0.00  0.00    -0.646 OA
ATOM     59  O5  IDS d1712     -11.322  -9.300 -26.227  0.00  0.00    -0.340 OA
ATOM     60  C4  IDS d1712     -11.248  -9.196 -23.816  0.00  0.00     0.103 C 
ATOM     61  O2  IDS d1712      -9.581  -6.972 -25.388  0.00  0.00    -0.244 OA
ATOM     62  O4  IDS d1712      -9.839  -9.451 -23.824  0.00  0.00    -0.348 OA
ATOM     63  C1  IDS d1712     -11.491  -7.907 -26.448  0.00  0.00     0.161 C 
ATOM     64  S   IDS d1712      -8.816  -5.842 -24.691  0.00  0.00     0.252 S 
ATOM     65  C5  IDS d1712     -11.944  -9.805 -25.040  0.00  0.00     0.152 C 
ATOM     66  O62 IDS d1712     -11.442 -11.959 -25.909  0.00  0.00    -0.646 OA
ATOM     67  O3S IDS d1712      -8.530  -6.312 -23.303  0.00  0.00    -0.572 OA
ATOM     68  C6  IDS d1712     -11.966 -11.301 -24.992  0.00  0.00     0.206 C 
ATOM     69  C3  IDS d1712     -11.438  -7.687 -23.885  0.00  0.00     0.094 C 
ATOM     70  O3  IDS d1712     -12.823  -7.371 -23.679  0.00  0.00    -0.390 OA
ATOM     71  C2  IDS d1712     -11.003  -7.119 -25.260  0.00  0.00     0.134 C 
ATOM     72  H   IDS d1712     -11.671  -9.629 -22.933  0.00  0.00     0.092 H 
ATOM     73  H   IDS d1712     -10.922  -7.651 -27.318  0.00  0.00     0.133 H 
ATOM     74  H   IDS d1712     -12.973  -9.510 -25.041  0.00  0.00     0.104 H 
ATOM     75  H   IDS d1712     -10.829  -7.247 -23.124  0.00  0.00     0.091 H 
ATOM     76  H   IDS d1712     -13.355  -7.779 -24.380  0.00  0.00     0.210 HD
ATOM     77  H   IDS d1712     -11.473  -6.157 -25.272  0.00  0.00     0.097 H 
ATOM     78  O62 IDS d1710     -15.961  -4.094 -26.670  0.00  0.00    -0.646 OA
ATOM     79  O2  IDS d1710     -19.189  -7.559 -28.411  0.00  0.00    -0.244 OA
ATOM     80  O1S IDS d1710     -19.687  -9.607 -27.113  0.00  0.00    -0.572 OA
ATOM     81  C3  IDS d1710     -18.452  -6.023 -30.124  0.00  0.00     0.094 C 
ATOM     82  O3  IDS d1710     -18.932  -5.035 -31.037  0.00  0.00    -0.390 OA
ATOM     83  O4  IDS d1710     -16.438  -6.670 -28.909  0.00  0.00    -0.348 OA
ATOM     84  O5  IDS d1710     -18.198  -4.908 -27.523  0.00  0.00    -0.340 OA
ATOM     85  C6  IDS d1710     -16.069  -3.906 -27.909  0.00  0.00     0.206 C 
ATOM     86  O2S IDS d1710     -21.133  -7.646 -26.931  0.00  0.00    -0.572 OA
ATOM     87  C5  IDS d1710     -17.315  -4.443 -28.563  0.00  0.00     0.152 C 
ATOM     88  S   IDS d1710     -20.313  -8.489 -27.825  0.00  0.00     0.252 S 
ATOM     89  C2  IDS d1710     -19.491  -6.299 -29.027  0.00  0.00     0.134 C 
ATOM     90  O3S IDS d1710     -21.054  -8.897 -29.022  0.00  0.00    -0.572 OA
ATOM     91  C4  IDS d1710     -17.094  -5.581 -29.571  0.00  0.00     0.103 C 
ATOM     92  C1  IDS d1710     -19.529  -5.217 -27.935  0.00  0.00     0.161 C 
ATOM     93  O61 IDS d1710     -15.203  -3.330 -28.603  0.00  0.00    -0.646 OA
ATOM     94  H   IDS d1710     -18.305  -6.954 -30.631  0.00  0.00     0.091 H 
ATOM     95  H   IDS d1710     -19.061  -4.196 -30.567  0.00  0.00     0.210 HD
ATOM     96  H   IDS d1710     -17.724  -3.636 -29.134  0.00  0.00     0.104 H 
ATOM     97  H   IDS d1710     -20.452  -6.304 -29.500  0.00  0.00     0.097 H 
ATOM     98  H   IDS d1710     -16.479  -5.252 -30.382  0.00  0.00     0.092 H 
ATOM     99  H   IDS d1710     -20.073  -5.559 -27.080  0.00  0.00     0.133 H 
ATOM    100  C4  SGN d1713      -6.956 -11.233 -24.360  0.00  0.00     0.095 C 
ATOM    101  N   SGN d1713      -8.058  -8.829 -21.712  0.00  0.00    -0.210 NA
ATOM    102  O4S SGN d1713      -6.603 -15.351 -26.215  0.00  0.00    -0.572 OA
ATOM    103  O4  SGN d1713      -6.247 -11.064 -25.598  0.00  0.00    -0.348 OA
ATOM    104  C2  SGN d1713      -7.985 -10.082 -22.424  0.00  0.00     0.081 C 
ATOM    105  O6  SGN d1713      -7.853 -13.956 -24.499  0.00  0.00    -0.254 OA
ATOM    106  O2S SGN d1713      -7.911  -9.837 -19.538  0.00  0.00    -0.296 OA
ATOM    107  O3S SGN d1713      -8.127  -7.269 -19.667  0.00  0.00    -0.296 OA
ATOM    108  C6  SGN d1713      -8.428 -13.023 -25.422  0.00  0.00     0.067 C 
ATOM    109  O5S SGN d1713      -8.916 -15.953 -25.654  0.00  0.00    -0.572 OA
ATOM    110  C5  SGN d1713      -8.374 -11.649 -24.826  0.00  0.00     0.091 C 
ATOM    111  O3  SGN d1713      -5.683  -9.773 -22.973  0.00  0.00    -0.391 OA
ATOM    112  O1S SGN d1713      -9.980  -8.806 -20.190  0.00  0.00    -0.296 OA
ATOM    113  S1  SGN d1713      -8.548  -8.728 -20.191  0.00  0.00     0.156 S 
ATOM    114  O5  SGN d1713      -9.253 -11.714 -23.681  0.00  0.00    -0.349 OA
ATOM    115  S2  SGN d1713      -7.539 -15.383 -25.072  0.00  0.00     0.251 S 
ATOM    116  O6S SGN d1713      -7.078 -16.125 -23.921  0.00  0.00    -0.572 OA
ATOM    117  C3  SGN d1713      -6.981  -9.938 -23.552  0.00  0.00     0.083 C 
ATOM    118  C1  SGN d1713      -9.361 -10.497 -22.958  0.00  0.00     0.150 C 
ATOM    119  H   SGN d1713      -6.504 -11.951 -23.707  0.00  0.00     0.091 H 
ATOM    120  H   SGN d1713      -8.687  -8.233 -22.252  0.00  0.00     0.140 HD
ATOM    121  H   SGN d1713      -7.664 -10.854 -21.755  0.00  0.00     0.076 H 
ATOM    122  H   SGN d1713      -6.948  -9.723 -19.574  0.00  0.00     0.231 HD
ATOM    123  H   SGN d1713      -7.161  -7.194 -19.660  0.00  0.00     0.231 HD
ATOM    124  H   SGN d1713      -9.447 -13.291 -25.615  0.00  0.00     0.080 H 
ATOM    125  H   SGN d1713      -7.880 -13.039 -26.341  0.00  0.00     0.080 H 
ATOM    126  H   SGN d1713      -8.659 -10.920 -25.557  0.00  0.00     0.090 H 
ATOM    127  H   SGN d1713      -5.024  -9.679 -23.679  0.00  0.00     0.210 HD
ATOM    128  H   SGN d1713     -10.257  -9.682 -20.503  0.00  0.00     0.231 HD
ATOM    129  H   SGN d1713      -7.244  -9.107 -24.173  0.00  0.00     0.089 H 
ATOM    130  H   SGN d1713     -10.042 -10.645 -22.146  0.00  0.00     0.131 H 
ATOM    131  C2  SGN d1711     -15.314  -8.735 -29.216  0.00  0.00     0.081 C 
ATOM    132  O4S SGN d1711      -9.464  -5.653 -28.779  0.00  0.00    -0.572 OA
ATOM    133  S1  SGN d1711     -17.050 -10.301 -30.476  0.00  0.00     0.156 S 
ATOM    134  C3  SGN d1711     -14.605  -8.721 -27.850  0.00  0.00     0.083 C 
ATOM    135  O2S SGN d1711     -16.211 -11.460 -30.465  0.00  0.00    -0.296 OA
ATOM    136  O3  SGN d1711     -14.304 -10.051 -27.413  0.00  0.00    -0.391 OA
ATOM    137  N   SGN d1711     -16.595  -9.439 -29.197  0.00  0.00    -0.210 NA
ATOM    138  C4  SGN d1711     -13.311  -7.902 -27.993  0.00  0.00     0.095 C 
ATOM    139  O4  SGN d1711     -12.866  -7.591 -26.654  0.00  0.00    -0.348 OA
ATOM    140  O6S SGN d1711      -9.668  -6.195 -31.071  0.00  0.00    -0.572 OA
ATOM    141  S2  SGN d1711     -10.251  -5.491 -30.006  0.00  0.00     0.251 S 
ATOM    142  O5  SGN d1711     -14.251  -6.633 -29.806  0.00  0.00    -0.349 OA
ATOM    143  C5  SGN d1711     -13.638  -6.473 -28.513  0.00  0.00     0.091 C 
ATOM    144  O1S SGN d1711     -16.914  -9.464 -31.651  0.00  0.00    -0.296 OA
ATOM    145  O6  SGN d1711     -11.611  -6.150 -29.691  0.00  0.00    -0.254 OA
ATOM    146  O5S SGN d1711     -10.567  -3.950 -30.263  0.00  0.00    -0.572 OA
ATOM    147  O3S SGN d1711     -18.585 -10.618 -30.195  0.00  0.00    -0.296 OA
ATOM    148  C1  SGN d1711     -15.502  -7.312 -29.779  0.00  0.00     0.150 C 
ATOM    149  C6  SGN d1711     -12.450  -5.533 -28.723  0.00  0.00     0.067 C 
ATOM    150  H   SGN d1711     -14.662  -9.280 -29.865  0.00  0.00     0.076 H 
ATOM    151  H   SGN d1711     -15.247  -8.281 -27.116  0.00  0.00     0.089 H 
ATOM    152  H   SGN d1711     -15.294 -11.197 -30.642  0.00  0.00     0.231 HD
ATOM    153  H   SGN d1711     -13.721 -10.480 -28.059  0.00  0.00     0.210 HD
ATOM    154  H   SGN d1711     -17.317  -8.735 -29.043  0.00  0.00     0.140 HD
ATOM    155  H   SGN d1711     -12.634  -8.449 -28.616  0.00  0.00     0.091 H 
ATOM    156  H   SGN d1711     -14.245  -6.024 -27.755  0.00  0.00     0.090 H 
ATOM    157  H   SGN d1711     -15.975  -9.280 -31.810  0.00  0.00     0.231 HD
ATOM    158  H   SGN d1711     -19.095  -9.793 -30.217  0.00  0.00     0.231 HD
ATOM    159  H   SGN d1711     -15.867  -7.314 -30.785  0.00  0.00     0.131 H 
ATOM    160  H   SGN d1711     -11.918  -5.398 -27.805  0.00  0.00     0.080 H 
ATOM    161  H   SGN d1711     -12.775  -4.568 -29.053  0.00  0.00     0.080 H 
ENDROOT
TORSDOF 50
ENDMDL
MODEL 25
REMARK VINA RESULT:      -7.5      3.069     15.171
REMARK  0 active torsions:
REMARK  status: ('A' for Active; 'I' for Inactive)
REMARK       I    between atoms: C2_1  and  O2_12 
REMARK       I    between atoms: C1_4  and  O4_37 
REMARK       I    between atoms: O2S_5  and  S1_43 
REMARK       I    between atoms: O2_11  and  C2_82 
REMARK       I    between atoms: O2_11  and  S_80 
REMARK       I    between atoms: O2_12  and  S_23 
REMARK       I    between atoms: C4_13  and  O4_37 
REMARK       I    between atoms: C2_14  and  N_39 
REMARK       I    between atoms: O1_18  and  C1_32 
REMARK       I    between atoms: C4_19  and  O4_53 
REMARK       I    between atoms: O6_20  and  C6_76 
REMARK       I    between atoms: O6_20  and  S2_95 
REMARK       I    between atoms: S1_21  and  N_39 
REMARK       I    between atoms: S1_21  and  O1S_79 
REMARK       I    between atoms: S1_21  and  O2S_30 
REMARK       I    between atoms: S1_21  and  O3S_94 
REMARK       I    between atoms: C3_24  and  O3_26 
REMARK       I    between atoms: C3_25  and  O3_36 
REMARK       I    between atoms: C6_27  and  C5_83 
REMARK       I    between atoms: C4_28  and  O4_51 
REMARK       I    between atoms: N_29  and  C2_40 
REMARK       I    between atoms: N_29  and  S1_71 
REMARK       I    between atoms: C5_31  and  C6_76 
REMARK       I    between atoms: O1S_35  and  S1_43 
REMARK       I    between atoms: O4_38  and  C4_93 
REMARK       I    between atoms: O4_38  and  C1_96 
REMARK       I    between atoms: O6_41  and  C6_54 
REMARK       I    between atoms: O6_41  and  S2_84 
REMARK       I    between atoms: C4_42  and  O4_49 
REMARK       I    between atoms: S1_43  and  N_47 
REMARK       I    between atoms: S1_43  and  O3S_69 
REMARK       I    between atoms: O2S_44  and  S1_71 
REMARK       I    between atoms: N_47  and  C2_56 
REMARK       I    between atoms: O2_48  and  C2_99 
REMARK       I    between atoms: O2_48  and  S_63 
REMARK       I    between atoms: O4_49  and  C1_57 
REMARK       I    between atoms: O4_51  and  C1_102 
REMARK       I    between atoms: O3S_52  and  S1_71 
REMARK       I    between atoms: O4_53  and  C1_105 
REMARK       I    between atoms: C6_54  and  C5_59 
REMARK       I    between atoms: O3_60  and  C3_100 
REMARK       I    between atoms: O1S_61  and  S1_71 
REMARK       I    between atoms: S2_62  and  O6_81 
REMARK       I    between atoms: C5_65  and  C6_89 
REMARK       I    between atoms: C6_67  and  C5_74 
REMARK       I    between atoms: C3_68  and  O3_104 
REMARK       I    between atoms: C3_70  and  O3_85 
REMARK       I    between atoms: C5_77  and  C6_101 
REMARK       I    between atoms: O6_81  and  C6_101 
REMARK       I    between atoms: C3_92  and  O3_98 
ROOT
ATOM      1  C2  IDS d1714      -4.895 -10.686 -29.565  0.00  0.00     0.132 C 
ATOM      2  O3S IDS d1714      -2.842 -12.010 -32.511  0.00  0.00    -0.572 OA
ATOM      3  C1  IDS d1714      -4.989 -11.413 -28.249  0.00  0.00     0.161 C 
ATOM      4  O2S IDS d1714      -4.523 -10.253 -32.467  0.00  0.00    -0.572 OA
ATOM      5  O2  IDS d1714      -3.981 -11.414 -30.401  0.00  0.00    -0.244 OA
ATOM      6  S   IDS d1714      -4.130 -11.579 -31.924  0.00  0.00     0.252 S 
ATOM      7  C6  IDS d1714      -2.121 -10.007 -26.351  0.00  0.00     0.203 C 
ATOM      8  O5  IDS d1714      -3.717 -11.305 -27.585  0.00  0.00    -0.343 OA
ATOM      9  C4  IDS d1714      -3.289  -9.020 -28.415  0.00  0.00    -0.005 C 
ATOM     10  O61 IDS d1714      -1.669 -11.129 -26.016  0.00  0.00    -0.646 OA
ATOM     11  C3  IDS d1714      -4.403  -9.248 -29.446  0.00  0.00     0.069 C 
ATOM     12  C5  IDS d1714      -3.363  -9.971 -27.228  0.00  0.00     0.127 C 
ATOM     13  O3  IDS d1714      -5.517  -8.382 -29.182  0.00  0.00    -0.393 OA
ATOM     14  O1S IDS d1714      -5.220 -12.548 -32.089  0.00  0.00    -0.572 OA
ATOM     15  O62 IDS d1714      -1.585  -8.936 -25.983  0.00  0.00    -0.646 OA
ATOM     16  H   IDS d1714      -5.884 -10.635 -29.971  0.00  0.00     0.097 H 
ATOM     17  H   IDS d1714      -5.193 -12.461 -28.319  0.00  0.00     0.133 H 
ATOM     18  H   IDS d1714      -3.364  -8.016 -28.052  0.00  0.00     0.041 H 
ATOM     19  H   IDS d1714      -2.357  -9.202 -28.909  0.00  0.00     0.041 H 
ATOM     20  H   IDS d1714      -3.950  -9.016 -30.388  0.00  0.00     0.087 H 
ATOM     21  H   IDS d1714      -4.152  -9.542 -26.647  0.00  0.00     0.100 H 
ATOM     22  H   IDS d1714      -5.910  -8.611 -28.325  0.00  0.00     0.210 HD
ATOM     23  O5  SGN d1709     -22.438  -3.329 -22.080  0.00  0.00    -0.350 OA
ATOM     24  O2S SGN d1709     -20.948   0.577 -19.922  0.00  0.00    -0.296 OA
ATOM     25  O4S SGN d1709     -24.907  -7.410 -24.140  0.00  0.00    -0.572 OA
ATOM     26  O1  SGN d1709     -22.422  -1.111 -22.874  0.00  0.00    -0.369 OA
ATOM     27  O6  SGN d1709     -24.182  -5.263 -23.221  0.00  0.00    -0.254 OA
ATOM     28  C4  SGN d1709     -20.618  -4.084 -23.408  0.00  0.00     0.095 C 
ATOM     29  C5  SGN d1709     -22.143  -3.970 -23.321  0.00  0.00     0.091 C 
ATOM     30  C1  SGN d1709     -21.909  -2.016 -21.900  0.00  0.00     0.147 C 
ATOM     31  O5S SGN d1709     -26.579  -5.982 -22.863  0.00  0.00    -0.572 OA
ATOM     32  O1S SGN d1709     -18.710   1.085 -20.579  0.00  0.00    -0.296 OA
ATOM     33  S1  SGN d1709     -19.703   0.046 -20.414  0.00  0.00     0.156 S 
ATOM     34  N   SGN d1709     -19.854  -0.699 -21.815  0.00  0.00    -0.210 NA
ATOM     35  O4  SGN d1709     -20.388  -4.573 -24.741  0.00  0.00    -0.348 OA
ATOM     36  C2  SGN d1709     -20.378  -2.052 -21.950  0.00  0.00     0.081 C 
ATOM     37  C3  SGN d1709     -19.947  -2.731 -23.255  0.00  0.00     0.083 C 
ATOM     38  O3S SGN d1709     -19.196  -1.039 -19.407  0.00  0.00    -0.296 OA
ATOM     39  C6  SGN d1709     -22.771  -5.367 -23.255  0.00  0.00     0.067 C 
ATOM     40  S2  SGN d1709     -25.034  -6.524 -22.983  0.00  0.00     0.251 S 
ATOM     41  O6S SGN d1709     -24.637  -7.100 -21.691  0.00  0.00    -0.572 OA
ATOM     42  O3  SGN d1709     -18.530  -2.894 -23.193  0.00  0.00    -0.391 OA
ATOM     43  H   SGN d1709     -21.276   1.252 -20.535  0.00  0.00     0.231 HD
ATOM     44  H   SGN d1709     -23.390  -1.102 -22.827  0.00  0.00     0.212 HD
ATOM     45  H   SGN d1709     -20.224  -4.712 -22.637  0.00  0.00     0.091 H 
ATOM     46  H   SGN d1709     -22.519  -3.438 -24.170  0.00  0.00     0.090 H 
ATOM     47  H   SGN d1709     -22.215  -1.663 -20.938  0.00  0.00     0.131 H 
ATOM     48  H   SGN d1709     -19.039   1.750 -21.205  0.00  0.00     0.231 HD
ATOM     49  H   SGN d1709     -18.919  -0.719 -22.223  0.00  0.00     0.140 HD
ATOM     50  H   SGN d1709     -19.978  -2.622 -21.137  0.00  0.00     0.076 H 
ATOM     51  H   SGN d1709     -20.232  -2.135 -24.097  0.00  0.00     0.089 H 
ATOM     52  H   SGN d1709     -19.085  -0.640 -18.530  0.00  0.00     0.231 HD
ATOM     53  H   SGN d1709     -22.478  -5.929 -24.118  0.00  0.00     0.080 H 
ATOM     54  H   SGN d1709     -22.434  -5.862 -22.369  0.00  0.00     0.080 H 
ATOM     55  H   SGN d1709     -18.300  -3.437 -22.422  0.00  0.00     0.210 HD
ATOM     56  O1S IDS d1712      -7.457  -5.980 -25.100  0.00  0.00    -0.572 OA
ATOM     57  O2S IDS d1712      -9.339  -5.553 -23.578  0.00  0.00    -0.572 OA
ATOM     58  O61 IDS d1712     -11.844 -12.676 -25.230  0.00  0.00    -0.646 OA
ATOM     59  O5  IDS d1712     -11.184  -9.389 -26.463  0.00  0.00    -0.340 OA
ATOM     60  C4  IDS d1712     -10.598 -10.208 -24.268  0.00  0.00     0.103 C 
ATOM     61  O2  IDS d1712      -9.340  -7.399 -25.121  0.00  0.00    -0.244 OA
ATOM     62  O4  IDS d1712      -9.219 -10.301 -24.644  0.00  0.00    -0.348 OA
ATOM     63  C1  IDS d1712     -11.417  -8.041 -26.080  0.00  0.00     0.161 C 
ATOM     64  S   IDS d1712      -8.461  -6.552 -24.194  0.00  0.00     0.252 S 
ATOM     65  C5  IDS d1712     -11.530 -10.367 -25.476  0.00  0.00     0.152 C 
ATOM     66  O62 IDS d1712     -11.192 -11.965 -27.202  0.00  0.00    -0.646 OA
ATOM     67  O3S IDS d1712      -7.878  -7.487 -23.186  0.00  0.00    -0.572 OA
ATOM     68  C6  IDS d1712     -11.517 -11.762 -26.019  0.00  0.00     0.206 C 
ATOM     69  C3  IDS d1712     -10.822  -8.814 -23.699  0.00  0.00     0.094 C 
ATOM     70  O3  IDS d1712     -12.135  -8.738 -23.125  0.00  0.00    -0.390 OA
ATOM     71  C2  IDS d1712     -10.699  -7.723 -24.794  0.00  0.00     0.134 C 
ATOM     72  H   IDS d1712     -10.815 -10.985 -23.564  0.00  0.00     0.092 H 
ATOM     73  H   IDS d1712     -11.052  -7.417 -26.869  0.00  0.00     0.133 H 
ATOM     74  H   IDS d1712     -12.540 -10.197 -25.165  0.00  0.00     0.104 H 
ATOM     75  H   IDS d1712     -10.071  -8.640 -22.957  0.00  0.00     0.091 H 
ATOM     76  H   IDS d1712     -12.799  -8.898 -23.815  0.00  0.00     0.210 HD
ATOM     77  H   IDS d1712     -11.176  -6.881 -24.336  0.00  0.00     0.097 H 
ATOM     78  O62 IDS d1710     -15.890  -4.892 -23.924  0.00  0.00    -0.646 OA
ATOM     79  O2  IDS d1710     -19.362  -7.727 -26.242  0.00  0.00    -0.244 OA
ATOM     80  O1S IDS d1710     -19.539 -10.154 -25.788  0.00  0.00    -0.572 OA
ATOM     81  C3  IDS d1710     -19.032  -5.589 -27.316  0.00  0.00     0.094 C 
ATOM     82  O3  IDS d1710     -19.711  -4.379 -27.655  0.00  0.00    -0.390 OA
ATOM     83  O4  IDS d1710     -16.795  -6.449 -26.862  0.00  0.00    -0.348 OA
ATOM     84  O5  IDS d1710     -18.245  -5.533 -24.587  0.00  0.00    -0.340 OA
ATOM     85  C6  IDS d1710     -16.264  -4.257 -24.943  0.00  0.00     0.206 C 
ATOM     86  O2S IDS d1710     -20.943  -8.563 -24.576  0.00  0.00    -0.572 OA
ATOM     87  C5  IDS d1710     -17.612  -4.621 -25.506  0.00  0.00     0.152 C 
ATOM     88  S   IDS d1710     -20.320  -8.916 -25.868  0.00  0.00     0.252 S 
ATOM     89  C2  IDS d1710     -19.808  -6.363 -26.241  0.00  0.00     0.134 C 
ATOM     90  O3S IDS d1710     -21.293  -8.906 -26.964  0.00  0.00    -0.572 OA
ATOM     91  C4  IDS d1710     -17.594  -5.261 -26.903  0.00  0.00     0.103 C 
ATOM     92  C1  IDS d1710     -19.628  -5.791 -24.825  0.00  0.00     0.161 C 
ATOM     93  O61 IDS d1710     -15.575  -3.376 -25.504  0.00  0.00    -0.646 OA
ATOM     94  H   IDS d1710     -18.982  -6.236 -28.167  0.00  0.00     0.091 H 
ATOM     95  H   IDS d1710     -19.749  -3.800 -26.877  0.00  0.00     0.210 HD
ATOM     96  H   IDS d1710     -18.147  -3.702 -25.623  0.00  0.00     0.104 H 
ATOM     97  H   IDS d1710     -20.847  -6.282 -26.485  0.00  0.00     0.097 H 
ATOM     98  H   IDS d1710     -17.171  -4.587 -27.619  0.00  0.00     0.092 H 
ATOM     99  H   IDS d1710     -19.972  -6.486 -24.088  0.00  0.00     0.133 H 
ATOM    100  C4  SGN d1713      -6.490 -11.450 -26.377  0.00  0.00     0.095 C 
ATOM    101  N   SGN d1713      -7.038 -10.361 -22.839  0.00  0.00    -0.210 NA
ATOM    102  O4S SGN d1713      -6.477 -14.489 -29.736  0.00  0.00    -0.572 OA
ATOM    103  O4  SGN d1713      -6.064 -10.751 -27.559  0.00  0.00    -0.348 OA
ATOM    104  C2  SGN d1713      -7.099 -11.233 -23.987  0.00  0.00     0.081 C 
ATOM    105  O6  SGN d1713      -7.353 -13.987 -27.406  0.00  0.00    -0.254 OA
ATOM    106  O2S SGN d1713      -6.414 -12.104 -21.310  0.00  0.00    -0.296 OA
ATOM    107  O3S SGN d1713      -6.693  -9.717 -20.372  0.00  0.00    -0.296 OA
ATOM    108  C6  SGN d1713      -8.127 -12.833 -27.758  0.00  0.00     0.067 C 
ATOM    109  O5S SGN d1713      -8.608 -15.484 -29.029  0.00  0.00    -0.572 OA
ATOM    110  C5  SGN d1713      -7.968 -11.793 -26.691  0.00  0.00     0.091 C 
ATOM    111  O3  SGN d1713      -4.973 -10.513 -24.797  0.00  0.00    -0.391 OA
ATOM    112  O1S SGN d1713      -8.591 -11.112 -21.096  0.00  0.00    -0.296 OA
ATOM    113  S1  SGN d1713      -7.193 -10.899 -21.338  0.00  0.00     0.156 S 
ATOM    114  O5  SGN d1713      -8.582 -12.377 -25.519  0.00  0.00    -0.349 OA
ATOM    115  S2  SGN d1713      -7.147 -15.047 -28.543  0.00  0.00     0.251 S 
ATOM    116  O6S SGN d1713      -6.439 -16.124 -27.889  0.00  0.00    -0.572 OA
ATOM    117  C3  SGN d1713      -6.362 -10.571 -25.136  0.00  0.00     0.083 C 
ATOM    118  C1  SGN d1713      -8.551 -11.546 -24.369  0.00  0.00     0.150 C 
ATOM    119  H   SGN d1713      -5.898 -12.314 -26.159  0.00  0.00     0.091 H 
ATOM    120  H   SGN d1713      -7.777  -9.670 -22.970  0.00  0.00     0.140 HD
ATOM    121  H   SGN d1713      -6.631 -12.167 -23.752  0.00  0.00     0.076 H 
ATOM    122  H   SGN d1713      -5.484 -11.891 -21.481  0.00  0.00     0.231 HD
ATOM    123  H   SGN d1713      -5.749  -9.556 -20.520  0.00  0.00     0.231 HD
ATOM    124  H   SGN d1713      -9.159 -13.105 -27.843  0.00  0.00     0.080 H 
ATOM    125  H   SGN d1713      -7.788 -12.443 -28.695  0.00  0.00     0.080 H 
ATOM    126  H   SGN d1713      -8.414 -10.872 -27.006  0.00  0.00     0.090 H 
ATOM    127  H   SGN d1713      -4.481 -10.092 -25.520  0.00  0.00     0.210 HD
ATOM    128  H   SGN d1713      -8.914 -11.824 -21.670  0.00  0.00     0.231 HD
ATOM    129  H   SGN d1713      -6.765  -9.596 -25.316  0.00  0.00     0.089 H 
ATOM    130  H   SGN d1713      -9.041 -12.060 -23.568  0.00  0.00     0.131 H 
ATOM    131  C2  SGN d1711     -15.731  -8.119 -28.166  0.00  0.00     0.081 C 
ATOM    132  O4S SGN d1711      -9.971  -4.879 -27.672  0.00  0.00    -0.572 OA
ATOM    133  S1  SGN d1711     -17.671  -9.247 -29.587  0.00  0.00     0.156 S 
ATOM    134  C3  SGN d1711     -14.746  -8.559 -27.068  0.00  0.00     0.083 C 
ATOM    135  O2S SGN d1711     -16.831 -10.233 -30.194  0.00  0.00    -0.296 OA
ATOM    136  O3  SGN d1711     -14.338  -9.918 -27.257  0.00  0.00    -0.391 OA
ATOM    137  N   SGN d1711     -16.967  -8.899 -28.183  0.00  0.00    -0.210 NA
ATOM    138  C4  SGN d1711     -13.525  -7.625 -27.120  0.00  0.00     0.095 C 
ATOM    139  O4  SGN d1711     -12.810  -7.807 -25.879  0.00  0.00    -0.348 OA
ATOM    140  O6S SGN d1711     -10.651  -4.522 -29.907  0.00  0.00    -0.572 OA
ATOM    141  S2  SGN d1711     -11.005  -4.339 -28.561  0.00  0.00     0.251 S 
ATOM    142  O5  SGN d1711     -14.851  -5.858 -28.071  0.00  0.00    -0.349 OA
ATOM    143  C5  SGN d1711     -13.978  -6.145 -26.962  0.00  0.00     0.091 C 
ATOM    144  O1S SGN d1711     -17.802  -8.015 -30.339  0.00  0.00    -0.296 OA
ATOM    145  O6  SGN d1711     -12.255  -5.199 -28.279  0.00  0.00    -0.254 OA
ATOM    146  O5S SGN d1711     -11.391  -2.856 -28.124  0.00  0.00    -0.572 OA
ATOM    147  O3S SGN d1711     -19.106  -9.796 -29.167  0.00  0.00    -0.296 OA
ATOM    148  C1  SGN d1711     -16.057  -6.615 -28.076  0.00  0.00     0.150 C 
ATOM    149  C6  SGN d1711     -12.878  -5.084 -27.006  0.00  0.00     0.067 C 
ATOM    150  H   SGN d1711     -15.224  -8.308 -29.090  0.00  0.00     0.076 H 
ATOM    151  H   SGN d1711     -15.223  -8.498 -26.113  0.00  0.00     0.089 H 
ATOM    152  H   SGN d1711     -15.978  -9.834 -30.424  0.00  0.00     0.231 HD
ATOM    153  H   SGN d1711     -13.900 -10.008 -28.118  0.00  0.00     0.210 HD
ATOM    154  H   SGN d1711     -17.650  -8.382 -27.630  0.00  0.00     0.140 HD
ATOM    155  H   SGN d1711     -12.989  -7.822 -28.024  0.00  0.00     0.091 H 
ATOM    156  H   SGN d1711     -14.416  -6.082 -25.988  0.00  0.00     0.090 H 
ATOM    157  H   SGN d1711     -16.922  -7.693 -30.588  0.00  0.00     0.231 HD
ATOM    158  H   SGN d1711     -19.620  -9.080 -28.764  0.00  0.00     0.231 HD
ATOM    159  H   SGN d1711     -16.627  -6.268 -28.912  0.00  0.00     0.131 H 
ATOM    160  H   SGN d1711     -12.164  -5.259 -26.229  0.00  0.00     0.080 H 
ATOM    161  H   SGN d1711     -13.280  -4.103 -26.860  0.00  0.00     0.080 H 
ENDROOT
TORSDOF 50
ENDMDL
MODEL 26
REMARK VINA RESULT:      -7.5      5.584     13.671
REMARK  0 active torsions:
REMARK  status: ('A' for Active; 'I' for Inactive)
REMARK       I    between atoms: C2_1  and  O2_12 
REMARK       I    between atoms: C1_4  and  O4_37 
REMARK       I    between atoms: O2S_5  and  S1_43 
REMARK       I    between atoms: O2_11  and  C2_82 
REMARK       I    between atoms: O2_11  and  S_80 
REMARK       I    between atoms: O2_12  and  S_23 
REMARK       I    between atoms: C4_13  and  O4_37 
REMARK       I    between atoms: C2_14  and  N_39 
REMARK       I    between atoms: O1_18  and  C1_32 
REMARK       I    between atoms: C4_19  and  O4_53 
REMARK       I    between atoms: O6_20  and  C6_76 
REMARK       I    between atoms: O6_20  and  S2_95 
REMARK       I    between atoms: S1_21  and  N_39 
REMARK       I    between atoms: S1_21  and  O1S_79 
REMARK       I    between atoms: S1_21  and  O2S_30 
REMARK       I    between atoms: S1_21  and  O3S_94 
REMARK       I    between atoms: C3_24  and  O3_26 
REMARK       I    between atoms: C3_25  and  O3_36 
REMARK       I    between atoms: C6_27  and  C5_83 
REMARK       I    between atoms: C4_28  and  O4_51 
REMARK       I    between atoms: N_29  and  C2_40 
REMARK       I    between atoms: N_29  and  S1_71 
REMARK       I    between atoms: C5_31  and  C6_76 
REMARK       I    between atoms: O1S_35  and  S1_43 
REMARK       I    between atoms: O4_38  and  C4_93 
REMARK       I    between atoms: O4_38  and  C1_96 
REMARK       I    between atoms: O6_41  and  C6_54 
REMARK       I    between atoms: O6_41  and  S2_84 
REMARK       I    between atoms: C4_42  and  O4_49 
REMARK       I    between atoms: S1_43  and  N_47 
REMARK       I    between atoms: S1_43  and  O3S_69 
REMARK       I    between atoms: O2S_44  and  S1_71 
REMARK       I    between atoms: N_47  and  C2_56 
REMARK       I    between atoms: O2_48  and  C2_99 
REMARK       I    between atoms: O2_48  and  S_63 
REMARK       I    between atoms: O4_49  and  C1_57 
REMARK       I    between atoms: O4_51  and  C1_102 
REMARK       I    between atoms: O3S_52  and  S1_71 
REMARK       I    between atoms: O4_53  and  C1_105 
REMARK       I    between atoms: C6_54  and  C5_59 
REMARK       I    between atoms: O3_60  and  C3_100 
REMARK       I    between atoms: O1S_61  and  S1_71 
REMARK       I    between atoms: S2_62  and  O6_81 
REMARK       I    between atoms: C5_65  and  C6_89 
REMARK       I    between atoms: C6_67  and  C5_74 
REMARK       I    between atoms: C3_68  and  O3_104 
REMARK       I    between atoms: C3_70  and  O3_85 
REMARK       I    between atoms: C5_77  and  C6_101 
REMARK       I    between atoms: O6_81  and  C6_101 
REMARK       I    between atoms: C3_92  and  O3_98 
ROOT
ATOM      1  C2  IDS d1714      -7.936   1.760 -28.916  0.00  0.00     0.132 C 
ATOM      2  O3S IDS d1714      -5.762   3.582 -31.485  0.00  0.00    -0.572 OA
ATOM      3  C1  IDS d1714      -7.405   0.655 -28.040  0.00  0.00     0.161 C 
ATOM      4  O2S IDS d1714      -8.182   3.575 -31.237  0.00  0.00    -0.572 OA
ATOM      5  O2  IDS d1714      -6.838   2.271 -29.688  0.00  0.00    -0.244 OA
ATOM      6  S   IDS d1714      -6.943   2.759 -31.144  0.00  0.00     0.252 S 
ATOM      7  C6  IDS d1714      -6.169   2.511 -25.069  0.00  0.00     0.203 C 
ATOM      8  O5  IDS d1714      -6.514   1.238 -27.072  0.00  0.00    -0.343 OA
ATOM      9  C4  IDS d1714      -7.844   3.306 -26.847  0.00  0.00    -0.005 C 
ATOM     10  O61 IDS d1714      -5.045   1.954 -25.068  0.00  0.00    -0.646 OA
ATOM     11  C3  IDS d1714      -8.565   2.915 -28.144  0.00  0.00     0.069 C 
ATOM     12  C5  IDS d1714      -7.153   2.133 -26.164  0.00  0.00     0.127 C 
ATOM     13  O3  IDS d1714      -9.945   2.620 -27.883  0.00  0.00    -0.393 OA
ATOM     14  O1S IDS d1714      -7.073   1.533 -31.940  0.00  0.00    -0.572 OA
ATOM     15  O62 IDS d1714      -6.494   3.355 -24.201  0.00  0.00    -0.646 OA
ATOM     16  H   IDS d1714      -8.713   1.341 -29.520  0.00  0.00     0.097 H 
ATOM     17  H   IDS d1714      -6.834  -0.095 -28.546  0.00  0.00     0.133 H 
ATOM     18  H   IDS d1714      -8.563   3.718 -26.170  0.00  0.00     0.041 H 
ATOM     19  H   IDS d1714      -7.084   4.013 -27.107  0.00  0.00     0.041 H 
ATOM     20  H   IDS d1714      -8.468   3.774 -28.776  0.00  0.00     0.087 H 
ATOM     21  H   IDS d1714      -7.974   1.631 -25.697  0.00  0.00     0.100 H 
ATOM     22  H   IDS d1714     -10.007   1.839 -27.310  0.00  0.00     0.210 HD
ATOM     23  O5  SGN d1709     -25.093  -8.291 -24.168  0.00  0.00    -0.350 OA
ATOM     24  O2S SGN d1709     -26.553  -5.883 -20.400  0.00  0.00    -0.296 OA
ATOM     25  O4S SGN d1709     -24.209 -11.481 -28.173  0.00  0.00    -0.572 OA
ATOM     26  O1  SGN d1709     -26.669  -6.546 -24.045  0.00  0.00    -0.369 OA
ATOM     27  O6  SGN d1709     -25.099 -10.097 -26.366  0.00  0.00    -0.254 OA
ATOM     28  C4  SGN d1709     -23.359  -6.995 -25.149  0.00  0.00     0.095 C 
ATOM     29  C5  SGN d1709     -24.530  -7.941 -25.433  0.00  0.00     0.091 C 
ATOM     30  C1  SGN d1709     -25.604  -7.217 -23.380  0.00  0.00     0.147 C 
ATOM     31  O5S SGN d1709     -26.303 -12.241 -26.949  0.00  0.00    -0.572 OA
ATOM     32  O1S SGN d1709     -25.341  -3.836 -20.203  0.00  0.00    -0.296 OA
ATOM     33  S1  SGN d1709     -25.327  -5.192 -20.706  0.00  0.00     0.156 S 
ATOM     34  N   SGN d1709     -25.026  -5.121 -22.269  0.00  0.00    -0.210 NA
ATOM     35  O4  SGN d1709     -22.955  -6.550 -26.455  0.00  0.00    -0.348 OA
ATOM     36  C2  SGN d1709     -24.480  -6.237 -23.032  0.00  0.00     0.081 C 
ATOM     37  C3  SGN d1709     -23.798  -5.793 -24.331  0.00  0.00     0.083 C 
ATOM     38  O3S SGN d1709     -24.140  -5.995 -20.080  0.00  0.00    -0.296 OA
ATOM     39  C6  SGN d1709     -24.013  -9.241 -26.061  0.00  0.00     0.067 C 
ATOM     40  S2  SGN d1709     -24.825 -11.533 -26.849  0.00  0.00     0.251 S 
ATOM     41  O6S SGN d1709     -24.047 -12.219 -25.808  0.00  0.00    -0.572 OA
ATOM     42  O3  SGN d1709     -22.660  -5.014 -23.961  0.00  0.00    -0.391 OA
ATOM     43  H   SGN d1709     -27.302  -5.397 -20.782  0.00  0.00     0.231 HD
ATOM     44  H   SGN d1709     -27.370  -7.182 -24.257  0.00  0.00     0.212 HD
ATOM     45  H   SGN d1709     -22.585  -7.480 -24.592  0.00  0.00     0.091 H 
ATOM     46  H   SGN d1709     -25.230  -7.469 -26.089  0.00  0.00     0.090 H 
ATOM     47  H   SGN d1709     -25.997  -7.628 -22.473  0.00  0.00     0.131 H 
ATOM     48  H   SGN d1709     -26.083  -3.352 -20.600  0.00  0.00     0.231 HD
ATOM     49  H   SGN d1709     -24.369  -4.350 -22.392  0.00  0.00     0.140 HD
ATOM     50  H   SGN d1709     -23.739  -6.701 -22.415  0.00  0.00     0.076 H 
ATOM     51  H   SGN d1709     -24.476  -5.227 -24.934  0.00  0.00     0.089 H 
ATOM     52  H   SGN d1709     -24.270  -6.072 -19.122  0.00  0.00     0.231 HD
ATOM     53  H   SGN d1709     -23.479  -9.013 -26.960  0.00  0.00     0.080 H 
ATOM     54  H   SGN d1709     -23.364  -9.731 -25.367  0.00  0.00     0.080 H 
ATOM     55  H   SGN d1709     -22.063  -5.552 -23.416  0.00  0.00     0.210 HD
ATOM     56  O1S IDS d1712     -12.697   1.028 -23.871  0.00  0.00    -0.572 OA
ATOM     57  O2S IDS d1712     -14.235  -0.600 -22.857  0.00  0.00    -0.572 OA
ATOM     58  O61 IDS d1712     -11.248  -5.886 -27.641  0.00  0.00    -0.646 OA
ATOM     59  O5  IDS d1712     -13.131  -2.864 -27.340  0.00  0.00    -0.340 OA
ATOM     60  C4  IDS d1712     -11.982  -3.987 -25.537  0.00  0.00     0.103 C 
ATOM     61  O2  IDS d1712     -13.076  -1.051 -24.918  0.00  0.00    -0.244 OA
ATOM     62  O4  IDS d1712     -10.952  -2.991 -25.541  0.00  0.00    -0.348 OA
ATOM     63  C1  IDS d1712     -14.200  -2.350 -26.559  0.00  0.00     0.161 C 
ATOM     64  S   IDS d1712     -12.959  -0.380 -23.545  0.00  0.00     0.252 S 
ATOM     65  C5  IDS d1712     -12.632  -4.139 -26.918  0.00  0.00     0.152 C 
ATOM     66  O62 IDS d1712     -11.414  -4.136 -28.959  0.00  0.00    -0.646 OA
ATOM     67  O3S IDS d1712     -11.819  -1.041 -22.842  0.00  0.00    -0.572 OA
ATOM     68  C6  IDS d1712     -11.701  -4.753 -27.917  0.00  0.00     0.206 C 
ATOM     69  C3  IDS d1712     -13.062  -3.521 -24.571  0.00  0.00     0.094 C 
ATOM     70  O3  IDS d1712     -14.019  -4.574 -24.381  0.00  0.00    -0.390 OA
ATOM     71  C2  IDS d1712     -13.808  -2.271 -25.107  0.00  0.00     0.134 C 
ATOM     72  H   IDS d1712     -11.550  -4.926 -25.258  0.00  0.00     0.092 H 
ATOM     73  H   IDS d1712     -14.426  -1.372 -26.933  0.00  0.00     0.133 H 
ATOM     74  H   IDS d1712     -13.454  -4.821 -26.846  0.00  0.00     0.104 H 
ATOM     75  H   IDS d1712     -12.586  -3.266 -23.648  0.00  0.00     0.091 H 
ATOM     76  H   IDS d1712     -14.437  -4.788 -25.229  0.00  0.00     0.210 HD
ATOM     77  H   IDS d1712     -14.698  -2.261 -24.513  0.00  0.00     0.097 H 
ATOM     78  O62 IDS d1710     -19.435  -4.233 -24.656  0.00  0.00    -0.646 OA
ATOM     79  O2  IDS d1710     -20.151  -7.175 -28.693  0.00  0.00    -0.244 OA
ATOM     80  O1S IDS d1710     -18.571  -9.001 -29.238  0.00  0.00    -0.572 OA
ATOM     81  C3  IDS d1710     -21.468  -5.151 -28.764  0.00  0.00     0.094 C 
ATOM     82  O3  IDS d1710     -22.817  -4.682 -28.796  0.00  0.00    -0.390 OA
ATOM     83  O4  IDS d1710     -19.229  -4.456 -28.088  0.00  0.00    -0.348 OA
ATOM     84  O5  IDS d1710     -20.738  -5.842 -26.108  0.00  0.00    -0.340 OA
ATOM     85  C6  IDS d1710     -20.218  -3.619 -25.424  0.00  0.00     0.206 C 
ATOM     86  O2S IDS d1710     -20.590  -9.459 -27.940  0.00  0.00    -0.572 OA
ATOM     87  C5  IDS d1710     -20.979  -4.456 -26.418  0.00  0.00     0.152 C 
ATOM     88  S   IDS d1710     -19.993  -8.696 -29.055  0.00  0.00     0.252 S 
ATOM     89  C2  IDS d1710     -21.413  -6.615 -28.302  0.00  0.00     0.134 C 
ATOM     90  O3S IDS d1710     -20.782  -8.820 -30.285  0.00  0.00    -0.572 OA
ATOM     91  C4  IDS d1710     -20.628  -4.211 -27.894  0.00  0.00     0.103 C 
ATOM     92  C1  IDS d1710     -21.574  -6.782 -26.782  0.00  0.00     0.161 C 
ATOM     93  O61 IDS d1710     -20.370  -2.377 -25.414  0.00  0.00    -0.646 OA
ATOM     94  H   IDS d1710     -21.049  -5.138 -29.749  0.00  0.00     0.091 H 
ATOM     95  H   IDS d1710     -23.186  -4.698 -27.899  0.00  0.00     0.210 HD
ATOM     96  H   IDS d1710     -22.006  -4.175 -26.322  0.00  0.00     0.104 H 
ATOM     97  H   IDS d1710     -22.236  -7.120 -28.765  0.00  0.00     0.097 H 
ATOM     98  H   IDS d1710     -20.841  -3.199 -28.169  0.00  0.00     0.092 H 
ATOM     99  H   IDS d1710     -21.287  -7.766 -26.476  0.00  0.00     0.133 H 
ATOM    100  C4  SGN d1713      -8.322  -1.174 -26.787  0.00  0.00     0.095 C 
ATOM    101  N   SGN d1713      -9.206  -2.444 -23.379  0.00  0.00    -0.210 NA
ATOM    102  O4S SGN d1713      -6.465  -1.540 -30.902  0.00  0.00    -0.572 OA
ATOM    103  O4  SGN d1713      -8.585   0.066 -27.465  0.00  0.00    -0.348 OA
ATOM    104  C2  SGN d1713      -8.734  -2.507 -24.741  0.00  0.00     0.081 C 
ATOM    105  O6  SGN d1713      -7.270  -2.840 -28.874  0.00  0.00    -0.254 OA
ATOM    106  O2S SGN d1713      -7.442  -3.816 -22.503  0.00  0.00    -0.296 OA
ATOM    107  O3S SGN d1713      -9.220  -2.935 -20.854  0.00  0.00    -0.296 OA
ATOM    108  C6  SGN d1713      -8.650  -2.460 -28.964  0.00  0.00     0.067 C 
ATOM    109  O5S SGN d1713      -7.261  -3.842 -31.208  0.00  0.00    -0.572 OA
ATOM    110  C5  SGN d1713      -9.174  -2.193 -27.585  0.00  0.00     0.091 C 
ATOM    111  O3  SGN d1713      -7.759  -0.332 -24.631  0.00  0.00    -0.391 OA
ATOM    112  O1S SGN d1713      -9.678  -4.692 -22.519  0.00  0.00    -0.296 OA
ATOM    113  S1  SGN d1713      -8.836  -3.554 -22.286  0.00  0.00     0.156 S 
ATOM    114  O5  SGN d1713      -9.126  -3.477 -26.923  0.00  0.00    -0.349 OA
ATOM    115  S2  SGN d1713      -6.474  -2.853 -30.226  0.00  0.00     0.251 S 
ATOM    116  O6S SGN d1713      -5.173  -3.363 -29.857  0.00  0.00    -0.572 OA
ATOM    117  C3  SGN d1713      -8.745  -1.106 -25.321  0.00  0.00     0.083 C 
ATOM    118  C1  SGN d1713      -9.592  -3.460 -25.582  0.00  0.00     0.150 C 
ATOM    119  H   SGN d1713      -7.284  -1.430 -26.758  0.00  0.00     0.091 H 
ATOM    120  H   SGN d1713     -10.225  -2.429 -23.434  0.00  0.00     0.140 HD
ATOM    121  H   SGN d1713      -7.735  -2.893 -24.755  0.00  0.00     0.076 H 
ATOM    122  H   SGN d1713      -6.931  -3.010 -22.329  0.00  0.00     0.231 HD
ATOM    123  H   SGN d1713      -8.662  -2.162 -20.676  0.00  0.00     0.231 HD
ATOM    124  H   SGN d1713      -9.211  -3.252 -29.414  0.00  0.00     0.080 H 
ATOM    125  H   SGN d1713      -8.743  -1.578 -29.562  0.00  0.00     0.080 H 
ATOM    126  H   SGN d1713     -10.153  -1.765 -27.640  0.00  0.00     0.090 H 
ATOM    127  H   SGN d1713      -7.749   0.571 -24.987  0.00  0.00     0.210 HD
ATOM    128  H   SGN d1713      -9.462  -5.082 -23.381  0.00  0.00     0.231 HD
ATOM    129  H   SGN d1713      -9.720  -0.677 -25.226  0.00  0.00     0.089 H 
ATOM    130  H   SGN d1713      -9.531  -4.454 -25.190  0.00  0.00     0.131 H 
ATOM    131  C2  SGN d1711     -17.408  -4.223 -29.588  0.00  0.00     0.081 C 
ATOM    132  O4S SGN d1711     -15.457   1.259 -26.416  0.00  0.00    -0.572 OA
ATOM    133  S1  SGN d1711     -18.132  -5.527 -31.785  0.00  0.00     0.156 S 
ATOM    134  C3  SGN d1711     -16.314  -4.360 -28.514  0.00  0.00     0.083 C 
ATOM    135  O2S SGN d1711     -16.892  -5.327 -32.470  0.00  0.00    -0.296 OA
ATOM    136  O3  SGN d1711     -15.096  -4.857 -29.079  0.00  0.00    -0.391 OA
ATOM    137  N   SGN d1711     -17.761  -5.492 -30.221  0.00  0.00    -0.210 NA
ATOM    138  C4  SGN d1711     -16.083  -2.974 -27.888  0.00  0.00     0.095 C 
ATOM    139  O4  SGN d1711     -15.350  -3.188 -26.663  0.00  0.00    -0.348 OA
ATOM    140  O6S SGN d1711     -16.359   2.053 -28.452  0.00  0.00    -0.572 OA
ATOM    141  S2  SGN d1711     -16.640   1.333 -27.280  0.00  0.00     0.251 S 
ATOM    142  O5  SGN d1711     -18.326  -2.297 -28.428  0.00  0.00    -0.349 OA
ATOM    143  C5  SGN d1711     -17.418  -2.416 -27.317  0.00  0.00     0.091 C 
ATOM    144  O1S SGN d1711     -19.132  -4.507 -32.031  0.00  0.00    -0.296 OA
ATOM    145  O6  SGN d1711     -16.927  -0.130 -27.681  0.00  0.00    -0.254 OA
ATOM    146  O5S SGN d1711     -17.910   1.809 -26.442  0.00  0.00    -0.572 OA
ATOM    147  O3S SGN d1711     -18.756  -6.977 -31.996  0.00  0.00    -0.296 OA
ATOM    148  C1  SGN d1711     -18.673  -3.538 -29.034  0.00  0.00     0.150 C 
ATOM    149  C6  SGN d1711     -17.360  -1.032 -26.670  0.00  0.00     0.067 C 
ATOM    150  H   SGN d1711     -16.981  -3.599 -30.345  0.00  0.00     0.076 H 
ATOM    151  H   SGN d1711     -16.629  -5.058 -27.767  0.00  0.00     0.089 H 
ATOM    152  H   SGN d1711     -16.570  -4.429 -32.299  0.00  0.00     0.231 HD
ATOM    153  H   SGN d1711     -14.782  -4.244 -29.762  0.00  0.00     0.210 HD
ATOM    154  H   SGN d1711     -18.569  -5.858 -29.717  0.00  0.00     0.140 HD
ATOM    155  H   SGN d1711     -15.627  -2.345 -28.624  0.00  0.00     0.091 H 
ATOM    156  H   SGN d1711     -17.705  -3.097 -26.543  0.00  0.00     0.090 H 
ATOM    157  H   SGN d1711     -18.739  -3.630 -31.899  0.00  0.00     0.231 HD
ATOM    158  H   SGN d1711     -19.591  -7.044 -31.508  0.00  0.00     0.231 HD
ATOM    159  H   SGN d1711     -19.385  -3.312 -29.800  0.00  0.00     0.131 H 
ATOM    160  H   SGN d1711     -16.668  -1.033 -25.855  0.00  0.00     0.080 H 
ATOM    161  H   SGN d1711     -18.316  -0.746 -26.282  0.00  0.00     0.080 H 
ENDROOT
TORSDOF 50
ENDMDL
MODEL 27
REMARK VINA RESULT:      -7.3      1.419      1.532
REMARK  0 active torsions:
REMARK  status: ('A' for Active; 'I' for Inactive)
REMARK       I    between atoms: C2_1  and  O2_12 
REMARK       I    between atoms: C1_4  and  O4_37 
REMARK       I    between atoms: O2S_5  and  S1_43 
REMARK       I    between atoms: O2_11  and  C2_82 
REMARK       I    between atoms: O2_11  and  S_80 
REMARK       I    between atoms: O2_12  and  S_23 
REMARK       I    between atoms: C4_13  and  O4_37 
REMARK       I    between atoms: C2_14  and  N_39 
REMARK       I    between atoms: O1_18  and  C1_32 
REMARK       I    between atoms: C4_19  and  O4_53 
REMARK       I    between atoms: O6_20  and  C6_76 
REMARK       I    between atoms: O6_20  and  S2_95 
REMARK       I    between atoms: S1_21  and  N_39 
REMARK       I    between atoms: S1_21  and  O1S_79 
REMARK       I    between atoms: S1_21  and  O2S_30 
REMARK       I    between atoms: S1_21  and  O3S_94 
REMARK       I    between atoms: C3_24  and  O3_26 
REMARK       I    between atoms: C3_25  and  O3_36 
REMARK       I    between atoms: C6_27  and  C5_83 
REMARK       I    between atoms: C4_28  and  O4_51 
REMARK       I    between atoms: N_29  and  C2_40 
REMARK       I    between atoms: N_29  and  S1_71 
REMARK       I    between atoms: C5_31  and  C6_76 
REMARK       I    between atoms: O1S_35  and  S1_43 
REMARK       I    between atoms: O4_38  and  C4_93 
REMARK       I    between atoms: O4_38  and  C1_96 
REMARK       I    between atoms: O6_41  and  C6_54 
REMARK       I    between atoms: O6_41  and  S2_84 
REMARK       I    between atoms: C4_42  and  O4_49 
REMARK       I    between atoms: S1_43  and  N_47 
REMARK       I    between atoms: S1_43  and  O3S_69 
REMARK       I    between atoms: O2S_44  and  S1_71 
REMARK       I    between atoms: N_47  and  C2_56 
REMARK       I    between atoms: O2_48  and  C2_99 
REMARK       I    between atoms: O2_48  and  S_63 
REMARK       I    between atoms: O4_49  and  C1_57 
REMARK       I    between atoms: O4_51  and  C1_102 
REMARK       I    between atoms: O3S_52  and  S1_71 
REMARK       I    between atoms: O4_53  and  C1_105 
REMARK       I    between atoms: C6_54  and  C5_59 
REMARK       I    between atoms: O3_60  and  C3_100 
REMARK       I    between atoms: O1S_61  and  S1_71 
REMARK       I    between atoms: S2_62  and  O6_81 
REMARK       I    between atoms: C5_65  and  C6_89 
REMARK       I    between atoms: C6_67  and  C5_74 
REMARK       I    between atoms: C3_68  and  O3_104 
REMARK       I    between atoms: C3_70  and  O3_85 
REMARK       I    between atoms: C5_77  and  C6_101 
REMARK       I    between atoms: O6_81  and  C6_101 
REMARK       I    between atoms: C3_92  and  O3_98 
ROOT
ATOM      1  C2  IDS d1714     -23.084  -3.031 -29.071  0.00  0.00     0.132 C 
ATOM      2  O3S IDS d1714     -25.671  -2.119 -31.740  0.00  0.00    -0.572 OA
ATOM      3  C1  IDS d1714     -22.436  -2.001 -28.184  0.00  0.00     0.161 C 
ATOM      4  O2S IDS d1714     -24.439  -4.193 -31.429  0.00  0.00    -0.572 OA
ATOM      5  O2  IDS d1714     -24.057  -2.356 -29.885  0.00  0.00    -0.244 OA
ATOM      6  S   IDS d1714     -24.373  -2.710 -31.349  0.00  0.00     0.252 S 
ATOM      7  C6  IDS d1714     -24.763  -1.858 -25.291  0.00  0.00     0.203 C 
ATOM      8  O5  IDS d1714     -23.425  -1.524 -27.254  0.00  0.00    -0.343 OA
ATOM      9  C4  IDS d1714     -24.530  -3.721 -27.044  0.00  0.00    -0.005 C 
ATOM     10  O61 IDS d1714     -24.859  -0.607 -25.306  0.00  0.00    -0.646 OA
ATOM     11  C3  IDS d1714     -23.782  -4.154 -28.312  0.00  0.00     0.069 C 
ATOM     12  C5  IDS d1714     -23.899  -2.521 -26.351  0.00  0.00     0.127 C 
ATOM     13  O3  IDS d1714     -22.832  -5.187 -28.008  0.00  0.00    -0.393 OA
ATOM     14  O1S IDS d1714     -23.227  -2.203 -32.110  0.00  0.00    -0.572 OA
ATOM     15  O62 IDS d1714     -25.352  -2.560 -24.436  0.00  0.00    -0.646 OA
ATOM     16  H   IDS d1714     -22.307  -3.491 -29.645  0.00  0.00     0.097 H 
ATOM     17  H   IDS d1714     -22.065  -1.132 -28.686  0.00  0.00     0.133 H 
ATOM     18  H   IDS d1714     -24.540  -4.543 -26.359  0.00  0.00     0.041 H 
ATOM     19  H   IDS d1714     -25.517  -3.432 -27.341  0.00  0.00     0.041 H 
ATOM     20  H   IDS d1714     -24.547  -4.516 -28.967  0.00  0.00     0.087 H 
ATOM     21  H   IDS d1714     -23.064  -2.966 -25.851  0.00  0.00     0.100 H 
ATOM     22  H   IDS d1714     -22.150  -4.835 -27.415  0.00  0.00     0.210 HD
ATOM     23  O5  SGN d1709      -5.851 -12.591 -23.636  0.00  0.00    -0.350 OA
ATOM     24  O2S SGN d1709      -7.303 -15.039 -19.891  0.00  0.00    -0.296 OA
ATOM     25  O4S SGN d1709      -3.425 -10.240 -27.583  0.00  0.00    -0.572 OA
ATOM     26  O1  SGN d1709      -6.550 -14.836 -23.514  0.00  0.00    -0.369 OA
ATOM     27  O6  SGN d1709      -4.221 -11.695 -25.787  0.00  0.00    -0.254 OA
ATOM     28  C4  SGN d1709      -7.816 -11.773 -24.692  0.00  0.00     0.095 C 
ATOM     29  C5  SGN d1709      -6.396 -12.298 -24.923  0.00  0.00     0.091 C 
ATOM     30  C1  SGN d1709      -6.540 -13.571 -22.861  0.00  0.00     0.147 C 
ATOM     31  O5S SGN d1709      -1.744 -11.640 -26.287  0.00  0.00    -0.572 OA
ATOM     32  O1S SGN d1709      -9.687 -15.042 -19.775  0.00  0.00    -0.296 OA
ATOM     33  S1  SGN d1709      -8.512 -14.342 -20.244  0.00  0.00     0.156 S 
ATOM     34  N   SGN d1709      -8.674 -14.135 -21.817  0.00  0.00    -0.210 NA
ATOM     35  O4  SGN d1709      -8.360 -11.666 -26.019  0.00  0.00    -0.348 OA
ATOM     36  C2  SGN d1709      -7.968 -13.103 -22.566  0.00  0.00     0.081 C 
ATOM     37  C3  SGN d1709      -8.653 -12.756 -23.893  0.00  0.00     0.083 C 
ATOM     38  O3S SGN d1709      -8.450 -12.904 -19.631  0.00  0.00    -0.296 OA
ATOM     39  C6  SGN d1709      -5.521 -11.196 -25.532  0.00  0.00     0.067 C 
ATOM     40  S2  SGN d1709      -3.111 -10.730 -26.243  0.00  0.00     0.251 S 
ATOM     41  O6S SGN d1709      -2.954  -9.700 -25.206  0.00  0.00    -0.572 OA
ATOM     42  O3  SGN d1709      -9.916 -12.173 -23.571  0.00  0.00    -0.391 OA
ATOM     43  H   SGN d1709      -7.325 -15.935 -20.265  0.00  0.00     0.231 HD
ATOM     44  H   SGN d1709      -5.638 -15.116 -23.692  0.00  0.00     0.212 HD
ATOM     45  H   SGN d1709      -7.814 -10.854 -24.144  0.00  0.00     0.091 H 
ATOM     46  H   SGN d1709      -6.421 -13.148 -25.572  0.00  0.00     0.090 H 
ATOM     47  H   SGN d1709      -6.017 -13.689 -21.934  0.00  0.00     0.131 H 
ATOM     48  H   SGN d1709      -9.711 -15.931 -20.164  0.00  0.00     0.231 HD
ATOM     49  H   SGN d1709      -9.667 -13.965 -21.975  0.00  0.00     0.140 HD
ATOM     50  H   SGN d1709      -7.969 -12.223 -21.958  0.00  0.00     0.076 H 
ATOM     51  H   SGN d1709      -8.773 -13.635 -24.491  0.00  0.00     0.089 H 
ATOM     52  H   SGN d1709      -8.351 -12.968 -18.668  0.00  0.00     0.231 HD
ATOM     53  H   SGN d1709      -5.959 -10.863 -26.450  0.00  0.00     0.080 H 
ATOM     54  H   SGN d1709      -5.456 -10.380 -24.844  0.00  0.00     0.080 H 
ATOM     55  H   SGN d1709      -9.777 -11.380 -23.030  0.00  0.00     0.210 HD
ATOM     56  O1S IDS d1712     -20.197  -6.698 -23.889  0.00  0.00    -0.572 OA
ATOM     57  O2S IDS d1712     -18.048  -7.178 -22.795  0.00  0.00    -0.572 OA
ATOM     58  O61 IDS d1712     -14.868  -1.956 -27.525  0.00  0.00    -0.646 OA
ATOM     59  O5  IDS d1712     -16.513  -5.116 -27.249  0.00  0.00    -0.340 OA
ATOM     60  C4  IDS d1712     -16.196  -3.537 -25.449  0.00  0.00     0.103 C 
ATOM     61  O2  IDS d1712     -18.181  -5.971 -24.874  0.00  0.00    -0.244 OA
ATOM     62  O4  IDS d1712     -17.578  -3.161 -25.504  0.00  0.00    -0.348 OA
ATOM     63  C1  IDS d1712     -16.435  -6.290 -26.453  0.00  0.00     0.161 C 
ATOM     64  S   IDS d1712     -18.865  -6.200 -23.521  0.00  0.00     0.252 S 
ATOM     65  C5  IDS d1712     -15.686  -4.032 -26.809  0.00  0.00     0.152 C 
ATOM     66  O62 IDS d1712     -16.241  -3.006 -28.880  0.00  0.00    -0.646 OA
ATOM     67  O3S IDS d1712     -18.903  -4.876 -22.832  0.00  0.00    -0.572 OA
ATOM     68  C6  IDS d1712     -15.601  -2.928 -27.816  0.00  0.00     0.206 C 
ATOM     69  C3  IDS d1712     -16.078  -4.694 -24.467  0.00  0.00     0.094 C 
ATOM     70  O3  IDS d1712     -14.691  -4.975 -24.227  0.00  0.00    -0.390 OA
ATOM     71  C2  IDS d1712     -16.753  -5.978 -25.014  0.00  0.00     0.134 C 
ATOM     72  H   IDS d1712     -15.620  -2.683 -25.159  0.00  0.00     0.092 H 
ATOM     73  H   IDS d1712     -17.147  -6.987 -26.844  0.00  0.00     0.133 H 
ATOM     74  H   IDS d1712     -14.683  -4.388 -26.699  0.00  0.00     0.104 H 
ATOM     75  H   IDS d1712     -16.572  -4.406 -23.563  0.00  0.00     0.091 H 
ATOM     76  H   IDS d1712     -14.265  -5.234 -25.059  0.00  0.00     0.210 HD
ATOM     77  H   IDS d1712     -16.328  -6.743 -24.397  0.00  0.00     0.097 H 
ATOM     78  O62 IDS d1710     -12.210  -9.807 -24.369  0.00  0.00    -0.646 OA
ATOM     79  O2  IDS d1710      -9.178  -8.959 -28.313  0.00  0.00    -0.244 OA
ATOM     80  O1S IDS d1710      -8.398  -6.674 -28.855  0.00  0.00    -0.572 OA
ATOM     81  C3  IDS d1710     -10.243 -11.126 -28.400  0.00  0.00     0.094 C 
ATOM     82  O3  IDS d1710      -9.956 -12.525 -28.408  0.00  0.00    -0.390 OA
ATOM     83  O4  IDS d1710     -12.006  -9.551 -27.799  0.00  0.00    -0.348 OA
ATOM     84  O5  IDS d1710     -10.112 -10.119 -25.747  0.00  0.00    -0.340 OA
ATOM     85  C6  IDS d1710     -12.312 -10.802 -25.132  0.00  0.00     0.206 C 
ATOM     86  O2S IDS d1710      -7.018  -8.161 -27.494  0.00  0.00    -0.572 OA
ATOM     87  C5  IDS d1710     -11.169 -11.038 -26.085  0.00  0.00     0.152 C 
ATOM     88  S   IDS d1710      -7.940  -8.050 -28.643  0.00  0.00     0.252 S 
ATOM     89  C2  IDS d1710      -9.029 -10.326 -27.903  0.00  0.00     0.134 C 
ATOM     90  O3S IDS d1710      -7.388  -8.677 -29.847  0.00  0.00    -0.572 OA
ATOM     91  C4  IDS d1710     -11.509 -10.876 -27.574  0.00  0.00     0.103 C 
ATOM     92  C1  IDS d1710      -8.855 -10.364 -26.376  0.00  0.00     0.161 C 
ATOM     93  O61 IDS d1710     -13.301 -11.567 -25.147  0.00  0.00    -0.646 OA
ATOM     94  H   IDS d1710     -10.434 -10.782 -29.395  0.00  0.00     0.091 H 
ATOM     95  H   IDS d1710      -9.784 -12.826 -27.501  0.00  0.00     0.210 HD
ATOM     96  H   IDS d1710     -10.890 -12.064 -25.968  0.00  0.00     0.104 H 
ATOM     97  H   IDS d1710      -8.159 -10.780 -28.332  0.00  0.00     0.097 H 
ATOM     98  H   IDS d1710     -12.260 -11.579 -27.868  0.00  0.00     0.092 H 
ATOM     99  H   IDS d1710      -8.167  -9.612 -26.054  0.00  0.00     0.133 H 
ATOM    100  C4  SGN d1713     -20.439  -1.842 -26.862  0.00  0.00     0.095 C 
ATOM    101  N   SGN d1713     -19.013  -1.918 -23.403  0.00  0.00    -0.210 NA
ATOM    102  O4S SGN d1713     -20.932  -0.100 -31.015  0.00  0.00    -0.572 OA
ATOM    103  O4  SGN d1713     -21.347  -2.708 -27.564  0.00  0.00    -0.348 OA
ATOM    104  C2  SGN d1713     -19.154  -1.493 -24.775  0.00  0.00     0.081 C 
ATOM    105  O6  SGN d1713     -19.474  -0.107 -28.935  0.00  0.00    -0.254 OA
ATOM    106  O2S SGN d1713     -18.766   0.308 -22.540  0.00  0.00    -0.296 OA
ATOM    107  O3S SGN d1713     -18.671  -1.654 -20.867  0.00  0.00    -0.296 OA
ATOM    108  C6  SGN d1713     -19.093  -1.487 -28.998  0.00  0.00     0.067 C 
ATOM    109  O5S SGN d1713     -18.537   0.390 -31.244  0.00  0.00    -0.572 OA
ATOM    110  C5  SGN d1713     -19.101  -2.060 -27.613  0.00  0.00     0.091 C 
ATOM    111  O3  SGN d1713     -21.524  -1.766 -24.743  0.00  0.00    -0.391 OA
ATOM    112  O1S SGN d1713     -16.871  -1.166 -22.477  0.00  0.00    -0.296 OA
ATOM    113  S1  SGN d1713     -18.286  -1.022 -22.293  0.00  0.00     0.156 S 
ATOM    114  O5  SGN d1713     -18.045  -1.356 -26.921  0.00  0.00    -0.349 OA
ATOM    115  S2  SGN d1713     -19.822   0.571 -30.307  0.00  0.00     0.251 S 
ATOM    116  O6S SGN d1713     -20.061   1.953 -29.960  0.00  0.00    -0.572 OA
ATOM    117  C3  SGN d1713     -20.332  -2.225 -25.389  0.00  0.00     0.083 C 
ATOM    118  C1  SGN d1713     -17.868  -1.752 -25.569  0.00  0.00     0.150 C 
ATOM    119  H   SGN d1713     -20.751  -0.818 -26.854  0.00  0.00     0.091 H 
ATOM    120  H   SGN d1713     -18.504  -2.802 -23.432  0.00  0.00     0.140 HD
ATOM    121  H   SGN d1713     -19.331  -0.438 -24.806  0.00  0.00     0.076 H 
ATOM    122  H   SGN d1713     -19.725   0.337 -22.399  0.00  0.00     0.231 HD
ATOM    123  H   SGN d1713     -19.626  -1.567 -20.722  0.00  0.00     0.231 HD
ATOM    124  H   SGN d1713     -18.110  -1.569 -29.414  0.00  0.00     0.080 H 
ATOM    125  H   SGN d1713     -19.782  -2.025 -29.615  0.00  0.00     0.080 H 
ATOM    126  H   SGN d1713     -18.967  -3.122 -27.653  0.00  0.00     0.090 H 
ATOM    127  H   SGN d1713     -22.293  -2.223 -25.121  0.00  0.00     0.210 HD
ATOM    128  H   SGN d1713     -16.616  -0.790 -23.334  0.00  0.00     0.231 HD
ATOM    129  H   SGN d1713     -20.206  -3.281 -25.278  0.00  0.00     0.089 H 
ATOM    130  H   SGN d1713     -17.058  -1.188 -25.156  0.00  0.00     0.131 H 
ATOM    131  C2  SGN d1711     -13.085  -8.119 -29.351  0.00  0.00     0.081 C 
ATOM    132  O4S SGN d1711     -18.899  -9.214 -26.365  0.00  0.00    -0.572 OA
ATOM    133  S1  SGN d1711     -11.519  -8.097 -31.496  0.00  0.00     0.156 S 
ATOM    134  C3  SGN d1711     -13.563  -7.098 -28.303  0.00  0.00     0.083 C 
ATOM    135  O2S SGN d1711     -12.301  -7.140 -32.217  0.00  0.00    -0.296 OA
ATOM    136  O3  SGN d1711     -13.738  -5.803 -28.887  0.00  0.00    -0.391 OA
ATOM    137  N   SGN d1711     -11.792  -7.781 -29.943  0.00  0.00    -0.210 NA
ATOM    138  C4  SGN d1711     -14.893  -7.602 -27.717  0.00  0.00     0.095 C 
ATOM    139  O4  SGN d1711     -15.125  -6.850 -26.506  0.00  0.00    -0.348 OA
ATOM    140  O6S SGN d1711     -19.051 -10.415 -28.396  0.00  0.00    -0.572 OA
ATOM    141  S2  SGN d1711     -18.329 -10.277 -27.200  0.00  0.00     0.251 S 
ATOM    142  O5  SGN d1711     -14.310  -9.881 -28.215  0.00  0.00    -0.349 OA
ATOM    143  C5  SGN d1711     -14.709  -9.029 -27.125  0.00  0.00     0.091 C 
ATOM    144  O1S SGN d1711     -11.877  -9.480 -31.741  0.00  0.00    -0.296 OA
ATOM    145  O6  SGN d1711     -16.912  -9.779 -27.557  0.00  0.00    -0.254 OA
ATOM    146  O5S SGN d1711     -18.119 -11.603 -26.341  0.00  0.00    -0.572 OA
ATOM    147  O3S SGN d1711      -9.948  -7.894 -31.656  0.00  0.00    -0.296 OA
ATOM    148  C1  SGN d1711     -13.046  -9.552 -28.781  0.00  0.00     0.150 C 
ATOM    149  C6  SGN d1711     -15.951  -9.681 -26.514  0.00  0.00     0.067 C 
ATOM    150  H   SGN d1711     -13.813  -8.079 -30.134  0.00  0.00     0.076 H 
ATOM    151  H   SGN d1711     -12.827  -7.005 -27.531  0.00  0.00     0.089 H 
ATOM    152  H   SGN d1711     -13.243  -7.321 -32.077  0.00  0.00     0.231 HD
ATOM    153  H   SGN d1711     -14.401  -5.854 -29.593  0.00  0.00     0.210 HD
ATOM    154  H   SGN d1711     -11.082  -8.282 -29.410  0.00  0.00     0.140 HD
ATOM    155  H   SGN d1711     -15.641  -7.539 -28.480  0.00  0.00     0.091 H 
ATOM    156  H   SGN d1711     -14.005  -8.920 -26.328  0.00  0.00     0.090 H 
ATOM    157  H   SGN d1711     -12.835  -9.589 -31.640  0.00  0.00     0.231 HD
ATOM    158  H   SGN d1711      -9.481  -8.572 -31.144  0.00  0.00     0.231 HD
ATOM    159  H   SGN d1711     -12.850 -10.287 -29.533  0.00  0.00     0.131 H 
ATOM    160  H   SGN d1711     -16.331  -9.077 -25.717  0.00  0.00     0.080 H 
ATOM    161  H   SGN d1711     -15.721 -10.644 -26.108  0.00  0.00     0.080 H 
ENDROOT
TORSDOF 50
ENDMDL
MODEL 28
REMARK VINA RESULT:      -7.0      2.410      3.208
REMARK  0 active torsions:
REMARK  status: ('A' for Active; 'I' for Inactive)
REMARK       I    between atoms: C2_1  and  O2_12 
REMARK       I    between atoms: C1_4  and  O4_37 
REMARK       I    between atoms: O2S_5  and  S1_43 
REMARK       I    between atoms: O2_11  and  C2_82 
REMARK       I    between atoms: O2_11  and  S_80 
REMARK       I    between atoms: O2_12  and  S_23 
REMARK       I    between atoms: C4_13  and  O4_37 
REMARK       I    between atoms: C2_14  and  N_39 
REMARK       I    between atoms: O1_18  and  C1_32 
REMARK       I    between atoms: C4_19  and  O4_53 
REMARK       I    between atoms: O6_20  and  C6_76 
REMARK       I    between atoms: O6_20  and  S2_95 
REMARK       I    between atoms: S1_21  and  N_39 
REMARK       I    between atoms: S1_21  and  O1S_79 
REMARK       I    between atoms: S1_21  and  O2S_30 
REMARK       I    between atoms: S1_21  and  O3S_94 
REMARK       I    between atoms: C3_24  and  O3_26 
REMARK       I    between atoms: C3_25  and  O3_36 
REMARK       I    between atoms: C6_27  and  C5_83 
REMARK       I    between atoms: C4_28  and  O4_51 
REMARK       I    between atoms: N_29  and  C2_40 
REMARK       I    between atoms: N_29  and  S1_71 
REMARK       I    between atoms: C5_31  and  C6_76 
REMARK       I    between atoms: O1S_35  and  S1_43 
REMARK       I    between atoms: O4_38  and  C4_93 
REMARK       I    between atoms: O4_38  and  C1_96 
REMARK       I    between atoms: O6_41  and  C6_54 
REMARK       I    between atoms: O6_41  and  S2_84 
REMARK       I    between atoms: C4_42  and  O4_49 
REMARK       I    between atoms: S1_43  and  N_47 
REMARK       I    between atoms: S1_43  and  O3S_69 
REMARK       I    between atoms: O2S_44  and  S1_71 
REMARK       I    between atoms: N_47  and  C2_56 
REMARK       I    between atoms: O2_48  and  C2_99 
REMARK       I    between atoms: O2_48  and  S_63 
REMARK       I    between atoms: O4_49  and  C1_57 
REMARK       I    between atoms: O4_51  and  C1_102 
REMARK       I    between atoms: O3S_52  and  S1_71 
REMARK       I    between atoms: O4_53  and  C1_105 
REMARK       I    between atoms: C6_54  and  C5_59 
REMARK       I    between atoms: O3_60  and  C3_100 
REMARK       I    between atoms: O1S_61  and  S1_71 
REMARK       I    between atoms: S2_62  and  O6_81 
REMARK       I    between atoms: C5_65  and  C6_89 
REMARK       I    between atoms: C6_67  and  C5_74 
REMARK       I    between atoms: C3_68  and  O3_104 
REMARK       I    between atoms: C3_70  and  O3_85 
REMARK       I    between atoms: C5_77  and  C6_101 
REMARK       I    between atoms: O6_81  and  C6_101 
REMARK       I    between atoms: C3_92  and  O3_98 
ROOT
ATOM      1  C2  IDS d1714     -20.999  -4.233 -29.340  0.00  0.00     0.132 C 
ATOM      2  O3S IDS d1714     -23.645  -3.512 -32.010  0.00  0.00    -0.572 OA
ATOM      3  C1  IDS d1714     -20.322  -3.142 -28.553  0.00  0.00     0.161 C 
ATOM      4  O2S IDS d1714     -22.421  -5.566 -31.564  0.00  0.00    -0.572 OA
ATOM      5  O2  IDS d1714     -21.987  -3.616 -30.180  0.00  0.00    -0.244 OA
ATOM      6  S   IDS d1714     -22.342  -4.083 -31.604  0.00  0.00     0.252 S 
ATOM      7  C6  IDS d1714     -22.576  -2.747 -25.626  0.00  0.00     0.203 C 
ATOM      8  O5  IDS d1714     -21.284  -2.583 -27.640  0.00  0.00    -0.343 OA
ATOM      9  C4  IDS d1714     -22.401  -4.746 -27.230  0.00  0.00    -0.005 C 
ATOM     10  O61 IDS d1714     -22.662  -1.500 -25.739  0.00  0.00    -0.646 OA
ATOM     11  C3  IDS d1714     -21.687  -5.285 -28.477  0.00  0.00     0.069 C 
ATOM     12  C5  IDS d1714     -21.743  -3.500 -26.650  0.00  0.00     0.127 C 
ATOM     13  O3  IDS d1714     -20.738  -6.300 -28.114  0.00  0.00    -0.393 OA
ATOM     14  O1S IDS d1714     -21.211  -3.648 -32.431  0.00  0.00    -0.572 OA
ATOM     15  O62 IDS d1714     -23.148  -3.373 -24.703  0.00  0.00    -0.646 OA
ATOM     16  H   IDS d1714     -20.240  -4.745 -29.893  0.00  0.00     0.097 H 
ATOM     17  H   IDS d1714     -19.957  -2.319 -29.131  0.00  0.00     0.133 H 
ATOM     18  H   IDS d1714     -22.399  -5.510 -26.481  0.00  0.00     0.041 H 
ATOM     19  H   IDS d1714     -23.392  -4.472 -27.525  0.00  0.00     0.041 H 
ATOM     20  H   IDS d1714     -22.471  -5.691 -29.082  0.00  0.00     0.087 H 
ATOM     21  H   IDS d1714     -20.900  -3.912 -26.136  0.00  0.00     0.100 H 
ATOM     22  H   IDS d1714     -20.039  -5.908 -27.567  0.00  0.00     0.210 HD
ATOM     23  O5  SGN d1709      -3.711 -13.494 -23.573  0.00  0.00    -0.350 OA
ATOM     24  O2S SGN d1709      -5.089 -15.623 -19.611  0.00  0.00    -0.296 OA
ATOM     25  O4S SGN d1709      -1.365 -11.489 -27.753  0.00  0.00    -0.572 OA
ATOM     26  O1  SGN d1709      -4.424 -15.716 -23.256  0.00  0.00    -0.369 OA
ATOM     27  O6  SGN d1709      -2.128 -12.788 -25.828  0.00  0.00    -0.254 OA
ATOM     28  C4  SGN d1709      -5.695 -12.744 -24.644  0.00  0.00     0.095 C 
ATOM     29  C5  SGN d1709      -4.285 -13.300 -24.866  0.00  0.00     0.091 C 
ATOM     30  C1  SGN d1709      -4.388 -14.403 -22.706  0.00  0.00     0.147 C 
ATOM     31  O5S SGN d1709       0.336 -12.797 -26.390  0.00  0.00    -0.572 OA
ATOM     32  O1S SGN d1709      -7.469 -15.594 -19.438  0.00  0.00    -0.296 OA
ATOM     33  S1  SGN d1709      -6.301 -14.945 -19.990  0.00  0.00     0.156 S 
ATOM     34  N   SGN d1709      -6.500 -14.862 -21.570  0.00  0.00    -0.210 NA
ATOM     35  O4  SGN d1709      -6.271 -12.738 -25.962  0.00  0.00    -0.348 OA
ATOM     36  C2  SGN d1709      -5.805 -13.899 -22.416  0.00  0.00     0.081 C 
ATOM     37  C3  SGN d1709      -6.519 -13.653 -23.749  0.00  0.00     0.083 C 
ATOM     38  O3S SGN d1709      -6.213 -13.464 -19.495  0.00  0.00    -0.296 OA
ATOM     39  C6  SGN d1709      -3.418 -12.259 -25.582  0.00  0.00     0.067 C 
ATOM     40  S2  SGN d1709      -1.022 -11.874 -26.385  0.00  0.00     0.251 S 
ATOM     41  O6S SGN d1709      -0.832 -10.766 -25.438  0.00  0.00    -0.572 OA
ATOM     42  O3  SGN d1709      -7.770 -13.034 -23.445  0.00  0.00    -0.391 OA
ATOM     43  H   SGN d1709      -5.127 -16.545 -19.912  0.00  0.00     0.231 HD
ATOM     44  H   SGN d1709      -3.519 -16.018 -23.433  0.00  0.00     0.212 HD
ATOM     45  H   SGN d1709      -5.672 -11.785 -24.171  0.00  0.00     0.091 H 
ATOM     46  H   SGN d1709      -4.333 -14.199 -25.445  0.00  0.00     0.090 H 
ATOM     47  H   SGN d1709      -3.844 -14.453 -21.786  0.00  0.00     0.131 H 
ATOM     48  H   SGN d1709      -7.509 -16.510 -19.754  0.00  0.00     0.231 HD
ATOM     49  H   SGN d1709      -7.495 -14.696 -21.718  0.00  0.00     0.140 HD
ATOM     50  H   SGN d1709      -5.784 -12.974 -21.880  0.00  0.00     0.076 H 
ATOM     51  H   SGN d1709      -6.661 -14.575 -24.272  0.00  0.00     0.089 H 
ATOM     52  H   SGN d1709      -6.090 -13.451 -18.532  0.00  0.00     0.231 HD
ATOM     53  H   SGN d1709      -3.875 -11.995 -26.513  0.00  0.00     0.080 H 
ATOM     54  H   SGN d1709      -3.329 -11.391 -24.963  0.00  0.00     0.080 H 
ATOM     55  H   SGN d1709      -7.612 -12.201 -22.972  0.00  0.00     0.210 HD
ATOM     56  O1S IDS d1712     -18.013  -7.504 -23.951  0.00  0.00    -0.572 OA
ATOM     57  O2S IDS d1712     -15.842  -7.915 -22.875  0.00  0.00    -0.572 OA
ATOM     58  O61 IDS d1712     -12.740  -3.117 -28.082  0.00  0.00    -0.646 OA
ATOM     59  O5  IDS d1712     -14.401  -6.229 -27.514  0.00  0.00    -0.340 OA
ATOM     60  C4  IDS d1712     -14.029  -4.515 -25.855  0.00  0.00     0.103 C 
ATOM     61  O2  IDS d1712     -16.017  -6.877 -25.040  0.00  0.00    -0.244 OA
ATOM     62  O4  IDS d1712     -15.408  -4.131 -25.907  0.00  0.00    -0.348 OA
ATOM     63  C1  IDS d1712     -14.313  -7.337 -26.630  0.00  0.00     0.161 C 
ATOM     64  S   IDS d1712     -16.669  -6.991 -23.657  0.00  0.00     0.252 S 
ATOM     65  C5  IDS d1712     -13.556  -5.121 -27.183  0.00  0.00     0.152 C 
ATOM     66  O62 IDS d1712     -14.154  -4.259 -29.315  0.00  0.00    -0.646 OA
ATOM     67  O3S IDS d1712     -16.680  -5.616 -23.075  0.00  0.00    -0.572 OA
ATOM     68  C6  IDS d1712     -13.487  -4.102 -28.277  0.00  0.00     0.206 C 
ATOM     69  C3  IDS d1712     -13.895  -5.591 -24.787  0.00  0.00     0.094 C 
ATOM     70  O3  IDS d1712     -12.505  -5.866 -24.558  0.00  0.00    -0.390 OA
ATOM     71  C2  IDS d1712     -14.593  -6.909 -25.213  0.00  0.00     0.134 C 
ATOM     72  H   IDS d1712     -13.439  -3.646 -25.647  0.00  0.00     0.092 H 
ATOM     73  H   IDS d1712     -15.040  -8.056 -26.947  0.00  0.00     0.133 H 
ATOM     74  H   IDS d1712     -12.553  -5.478 -27.068  0.00  0.00     0.104 H 
ATOM     75  H   IDS d1712     -14.364  -5.227 -23.897  0.00  0.00     0.091 H 
ATOM     76  H   IDS d1712     -12.101  -6.194 -25.377  0.00  0.00     0.210 HD
ATOM     77  H   IDS d1712     -14.158  -7.626 -24.547  0.00  0.00     0.097 H 
ATOM     78  O62 IDS d1710     -10.065 -10.717 -24.374  0.00  0.00    -0.646 OA
ATOM     79  O2  IDS d1710      -7.125 -10.215 -28.444  0.00  0.00    -0.244 OA
ATOM     80  O1S IDS d1710      -6.340  -7.987 -29.185  0.00  0.00    -0.572 OA
ATOM     81  C3  IDS d1710      -8.207 -12.372 -28.332  0.00  0.00     0.094 C 
ATOM     82  O3  IDS d1710      -7.932 -13.770 -28.235  0.00  0.00    -0.390 OA
ATOM     83  O4  IDS d1710      -9.943 -10.737 -27.817  0.00  0.00    -0.348 OA
ATOM     84  O5  IDS d1710      -8.004 -11.158 -25.772  0.00  0.00    -0.340 OA
ATOM     85  C6  IDS d1710     -10.193 -11.768 -25.052  0.00  0.00     0.206 C 
ATOM     86  O2S IDS d1710      -4.939  -9.375 -27.743  0.00  0.00    -0.572 OA
ATOM     87  C5  IDS d1710      -9.076 -12.090 -26.010  0.00  0.00     0.152 C 
ATOM     88  S   IDS d1710      -5.888  -9.347 -28.875  0.00  0.00     0.252 S 
ATOM     89  C2  IDS d1710      -6.976 -11.547 -27.931  0.00  0.00     0.134 C 
ATOM     90  O3S IDS d1710      -5.371 -10.073 -30.039  0.00  0.00    -0.572 OA
ATOM     91  C4  IDS d1710      -9.451 -12.044 -27.499  0.00  0.00     0.103 C 
ATOM     92  C1  IDS d1710      -6.765 -11.464 -26.410  0.00  0.00     0.161 C 
ATOM     93  O61 IDS d1710     -11.187 -12.523 -24.983  0.00  0.00    -0.646 OA
ATOM     94  H   IDS d1710      -8.421 -12.106 -29.347  0.00  0.00     0.091 H 
ATOM     95  H   IDS d1710      -7.740 -13.999 -27.312  0.00  0.00     0.210 HD
ATOM     96  H   IDS d1710      -8.802 -13.107 -25.819  0.00  0.00     0.104 H 
ATOM     97  H   IDS d1710      -6.120 -12.041 -28.342  0.00  0.00     0.097 H 
ATOM     98  H   IDS d1710     -10.214 -12.761 -27.718  0.00  0.00     0.092 H 
ATOM     99  H   IDS d1710      -6.063 -10.695 -26.165  0.00  0.00     0.133 H 
ATOM    100  C4  SGN d1713     -18.292  -2.897 -27.296  0.00  0.00     0.095 C 
ATOM    101  N   SGN d1713     -16.781  -2.712 -23.878  0.00  0.00    -0.210 NA
ATOM    102  O4S SGN d1713     -18.874  -1.487 -31.562  0.00  0.00    -0.572 OA
ATOM    103  O4  SGN d1713     -19.223  -3.808 -27.905  0.00  0.00    -0.348 OA
ATOM    104  C2  SGN d1713     -16.953  -2.396 -25.275  0.00  0.00     0.081 C 
ATOM    105  O6  SGN d1713     -17.365  -1.342 -29.524  0.00  0.00    -0.254 OA
ATOM    106  O2S SGN d1713     -16.496  -0.426 -23.201  0.00  0.00    -0.296 OA
ATOM    107  O3S SGN d1713     -16.375  -2.250 -21.380  0.00  0.00    -0.296 OA
ATOM    108  C6  SGN d1713     -16.996  -2.727 -29.485  0.00  0.00     0.067 C 
ATOM    109  O5S SGN d1713     -16.482  -1.040 -31.886  0.00  0.00    -0.572 OA
ATOM    110  C5  SGN d1713     -16.975  -3.188 -28.059  0.00  0.00     0.091 C 
ATOM    111  O3  SGN d1713     -19.324  -2.643 -25.165  0.00  0.00    -0.391 OA
ATOM    112  O1S SGN d1713     -14.611  -1.909 -23.066  0.00  0.00    -0.296 OA
ATOM    113  S1  SGN d1713     -16.021  -1.737 -22.860  0.00  0.00     0.156 S 
ATOM    114  O5  SGN d1713     -15.896  -2.441 -27.451  0.00  0.00    -0.349 OA
ATOM    115  S2  SGN d1713     -17.742  -0.773 -30.936  0.00  0.00     0.251 S 
ATOM    116  O6S SGN d1713     -17.962   0.635 -30.695  0.00  0.00    -0.572 OA
ATOM    117  C3  SGN d1713     -18.152  -3.163 -25.800  0.00  0.00     0.083 C 
ATOM    118  C1  SGN d1713     -15.689  -2.730 -26.077  0.00  0.00     0.150 C 
ATOM    119  H   SGN d1713     -18.595  -1.873 -27.363  0.00  0.00     0.091 H 
ATOM    120  H   SGN d1713     -16.280  -3.600 -23.848  0.00  0.00     0.140 HD
ATOM    121  H   SGN d1713     -17.123  -1.345 -25.386  0.00  0.00     0.076 H 
ATOM    122  H   SGN d1713     -17.451  -0.377 -23.040  0.00  0.00     0.231 HD
ATOM    123  H   SGN d1713     -17.325  -2.143 -21.219  0.00  0.00     0.231 HD
ATOM    124  H   SGN d1713     -16.024  -2.851 -29.917  0.00  0.00     0.080 H 
ATOM    125  H   SGN d1713     -17.704  -3.305 -30.041  0.00  0.00     0.080 H 
ATOM    126  H   SGN d1713     -16.850  -4.250 -28.018  0.00  0.00     0.090 H 
ATOM    127  H   SGN d1713     -20.105  -3.121 -25.487  0.00  0.00     0.210 HD
ATOM    128  H   SGN d1713     -14.375  -1.605 -23.956  0.00  0.00     0.231 HD
ATOM    129  H   SGN d1713     -18.030  -4.209 -25.609  0.00  0.00     0.089 H 
ATOM    130  H   SGN d1713     -14.865  -2.142 -25.729  0.00  0.00     0.131 H 
ATOM    131  C2  SGN d1711     -11.049  -9.423 -29.452  0.00  0.00     0.081 C 
ATOM    132  O4S SGN d1711     -16.796 -10.221 -26.250  0.00  0.00    -0.572 OA
ATOM    133  S1  SGN d1711      -9.537  -9.586 -31.629  0.00  0.00     0.156 S 
ATOM    134  C3  SGN d1711     -11.493  -8.317 -28.477  0.00  0.00     0.083 C 
ATOM    135  O2S SGN d1711     -10.329  -8.682 -32.405  0.00  0.00    -0.296 OA
ATOM    136  O3  SGN d1711     -11.673  -7.071 -29.159  0.00  0.00    -0.391 OA
ATOM    137  N   SGN d1711      -9.769  -9.145 -30.100  0.00  0.00    -0.210 NA
ATOM    138  C4  SGN d1711     -12.812  -8.760 -27.822  0.00  0.00     0.095 C 
ATOM    139  O4  SGN d1711     -13.009  -7.912 -26.669  0.00  0.00    -0.348 OA
ATOM    140  O6S SGN d1711     -17.007 -11.578 -28.174  0.00  0.00    -0.572 OA
ATOM    141  S2  SGN d1711     -16.255 -11.353 -27.010  0.00  0.00     0.251 S 
ATOM    142  O5  SGN d1711     -12.259 -11.077 -28.150  0.00  0.00    -0.349 OA
ATOM    143  C5  SGN d1711     -12.625 -10.137 -27.122  0.00  0.00     0.091 C 
ATOM    144  O1S SGN d1711      -9.911 -10.981 -31.754  0.00  0.00    -0.296 OA
ATOM    145  O6  SGN d1711     -14.843 -10.898 -27.440  0.00  0.00    -0.254 OA
ATOM    146  O5S SGN d1711     -16.034 -12.608 -26.053  0.00  0.00    -0.572 OA
ATOM    147  O3S SGN d1711      -7.968  -9.412 -31.842  0.00  0.00    -0.296 OA
ATOM    148  C1  SGN d1711     -11.007 -10.806 -28.771  0.00  0.00     0.150 C 
ATOM    149  C6  SGN d1711     -13.856 -10.727 -26.431  0.00  0.00     0.067 C 
ATOM    150  H   SGN d1711     -11.796  -9.438 -30.218  0.00  0.00     0.076 H 
ATOM    151  H   SGN d1711     -10.738  -8.170 -27.734  0.00  0.00     0.089 H 
ATOM    152  H   SGN d1711     -11.269  -8.843 -32.229  0.00  0.00     0.231 HD
ATOM    153  H   SGN d1711     -12.354  -7.171 -29.843  0.00  0.00     0.210 HD
ATOM    154  H   SGN d1711      -9.050  -9.610 -29.546  0.00  0.00     0.140 HD
ATOM    155  H   SGN d1711     -13.578  -8.751 -28.569  0.00  0.00     0.091 H 
ATOM    156  H   SGN d1711     -11.900  -9.972 -26.353  0.00  0.00     0.090 H 
ATOM    157  H   SGN d1711     -10.868 -11.073 -31.622  0.00  0.00     0.231 HD
ATOM    158  H   SGN d1711      -7.494 -10.052 -31.289  0.00  0.00     0.231 HD
ATOM    159  H   SGN d1711     -10.836 -11.600 -29.466  0.00  0.00     0.131 H 
ATOM    160  H   SGN d1711     -14.212 -10.057 -25.676  0.00  0.00     0.080 H 
ATOM    161  H   SGN d1711     -13.624 -11.656 -25.955  0.00  0.00     0.080 H 
ENDROOT
TORSDOF 50
ENDMDL
MODEL 29
REMARK VINA RESULT:      -6.9      3.306      6.812
REMARK  0 active torsions:
REMARK  status: ('A' for Active; 'I' for Inactive)
REMARK       I    between atoms: C2_1  and  O2_12 
REMARK       I    between atoms: C1_4  and  O4_37 
REMARK       I    between atoms: O2S_5  and  S1_43 
REMARK       I    between atoms: O2_11  and  C2_82 
REMARK       I    between atoms: O2_11  and  S_80 
REMARK       I    between atoms: O2_12  and  S_23 
REMARK       I    between atoms: C4_13  and  O4_37 
REMARK       I    between atoms: C2_14  and  N_39 
REMARK       I    between atoms: O1_18  and  C1_32 
REMARK       I    between atoms: C4_19  and  O4_53 
REMARK       I    between atoms: O6_20  and  C6_76 
REMARK       I    between atoms: O6_20  and  S2_95 
REMARK       I    between atoms: S1_21  and  N_39 
REMARK       I    between atoms: S1_21  and  O1S_79 
REMARK       I    between atoms: S1_21  and  O2S_30 
REMARK       I    between atoms: S1_21  and  O3S_94 
REMARK       I    between atoms: C3_24  and  O3_26 
REMARK       I    between atoms: C3_25  and  O3_36 
REMARK       I    between atoms: C6_27  and  C5_83 
REMARK       I    between atoms: C4_28  and  O4_51 
REMARK       I    between atoms: N_29  and  C2_40 
REMARK       I    between atoms: N_29  and  S1_71 
REMARK       I    between atoms: C5_31  and  C6_76 
REMARK       I    between atoms: O1S_35  and  S1_43 
REMARK       I    between atoms: O4_38  and  C4_93 
REMARK       I    between atoms: O4_38  and  C1_96 
REMARK       I    between atoms: O6_41  and  C6_54 
REMARK       I    between atoms: O6_41  and  S2_84 
REMARK       I    between atoms: C4_42  and  O4_49 
REMARK       I    between atoms: S1_43  and  N_47 
REMARK       I    between atoms: S1_43  and  O3S_69 
REMARK       I    between atoms: O2S_44  and  S1_71 
REMARK       I    between atoms: N_47  and  C2_56 
REMARK       I    between atoms: O2_48  and  C2_99 
REMARK       I    between atoms: O2_48  and  S_63 
REMARK       I    between atoms: O4_49  and  C1_57 
REMARK       I    between atoms: O4_51  and  C1_102 
REMARK       I    between atoms: O3S_52  and  S1_71 
REMARK       I    between atoms: O4_53  and  C1_105 
REMARK       I    between atoms: C6_54  and  C5_59 
REMARK       I    between atoms: O3_60  and  C3_100 
REMARK       I    between atoms: O1S_61  and  S1_71 
REMARK       I    between atoms: S2_62  and  O6_81 
REMARK       I    between atoms: C5_65  and  C6_89 
REMARK       I    between atoms: C6_67  and  C5_74 
REMARK       I    between atoms: C3_68  and  O3_104 
REMARK       I    between atoms: C3_70  and  O3_85 
REMARK       I    between atoms: C5_77  and  C6_101 
REMARK       I    between atoms: O6_81  and  C6_101 
REMARK       I    between atoms: C3_92  and  O3_98 
ROOT
ATOM      1  C2  IDS d1714     -20.332  -0.081 -26.792  0.00  0.00     0.132 C 
ATOM      2  O3S IDS d1714     -21.416   3.524 -26.102  0.00  0.00    -0.572 OA
ATOM      3  C1  IDS d1714     -21.091  -1.271 -26.267  0.00  0.00     0.161 C 
ATOM      4  O2S IDS d1714     -19.305   2.686 -26.970  0.00  0.00    -0.572 OA
ATOM      5  O2  IDS d1714     -21.062   1.100 -26.421  0.00  0.00    -0.244 OA
ATOM      6  S   IDS d1714     -20.417   2.437 -26.016  0.00  0.00     0.252 S 
ATOM      7  C6  IDS d1714     -23.539  -1.923 -28.985  0.00  0.00     0.203 C 
ATOM      8  O5  IDS d1714     -22.333  -1.366 -26.987  0.00  0.00    -0.343 OA
ATOM      9  C4  IDS d1714     -21.352  -0.581 -29.113  0.00  0.00    -0.005 C 
ATOM     10  O61 IDS d1714     -24.528  -1.972 -28.214  0.00  0.00    -0.646 OA
ATOM     11  C3  IDS d1714     -20.147  -0.081 -28.305  0.00  0.00     0.069 C 
ATOM     12  C5  IDS d1714     -22.175  -1.632 -28.379  0.00  0.00     0.127 C 
ATOM     13  O3  IDS d1714     -18.969  -0.830 -28.642  0.00  0.00    -0.393 OA
ATOM     14  O1S IDS d1714     -19.895   2.205 -24.665  0.00  0.00    -0.572 OA
ATOM     15  O62 IDS d1714     -23.648  -2.108 -30.220  0.00  0.00    -0.646 OA
ATOM     16  H   IDS d1714     -19.351  -0.117 -26.366  0.00  0.00     0.097 H 
ATOM     17  H   IDS d1714     -21.357  -1.224 -25.232  0.00  0.00     0.133 H 
ATOM     18  H   IDS d1714     -20.994  -1.007 -30.027  0.00  0.00     0.041 H 
ATOM     19  H   IDS d1714     -21.991   0.260 -29.282  0.00  0.00     0.041 H 
ATOM     20  H   IDS d1714     -20.042   0.947 -28.585  0.00  0.00     0.087 H 
ATOM     21  H   IDS d1714     -21.576  -2.510 -28.503  0.00  0.00     0.100 H 
ATOM     22  H   IDS d1714     -19.088  -1.756 -28.379  0.00  0.00     0.210 HD
ATOM     23  O5  SGN d1709      -5.856 -14.516 -26.895  0.00  0.00    -0.350 OA
ATOM     24  O2S SGN d1709      -6.198 -16.125 -31.302  0.00  0.00    -0.296 OA
ATOM     25  O4S SGN d1709      -4.840 -13.384 -21.927  0.00  0.00    -0.572 OA
ATOM     26  O1  SGN d1709      -4.587 -13.928 -28.789  0.00  0.00    -0.369 OA
ATOM     27  O6  SGN d1709      -4.846 -14.063 -24.275  0.00  0.00    -0.254 OA
ATOM     28  C4  SGN d1709      -7.139 -12.516 -26.821  0.00  0.00     0.095 C 
ATOM     29  C5  SGN d1709      -5.889 -13.224 -26.287  0.00  0.00     0.091 C 
ATOM     30  C1  SGN d1709      -5.780 -14.548 -28.319  0.00  0.00     0.147 C 
ATOM     31  O5S SGN d1709      -3.363 -15.320 -22.660  0.00  0.00    -0.572 OA
ATOM     32  O1S SGN d1709      -7.526 -14.647 -32.624  0.00  0.00    -0.296 OA
ATOM     33  S1  SGN d1709      -7.244 -15.135 -31.293  0.00  0.00     0.156 S 
ATOM     34  N   SGN d1709      -6.898 -13.873 -30.383  0.00  0.00    -0.210 NA
ATOM     35  O4  SGN d1709      -7.016 -11.177 -26.312  0.00  0.00    -0.348 OA
ATOM     36  C2  SGN d1709      -7.014 -13.877 -28.929  0.00  0.00     0.081 C 
ATOM     37  C3  SGN d1709      -7.148 -12.469 -28.338  0.00  0.00     0.083 C 
ATOM     38  O3S SGN d1709      -8.523 -15.777 -30.662  0.00  0.00    -0.296 OA
ATOM     39  C6  SGN d1709      -6.019 -13.450 -24.777  0.00  0.00     0.067 C 
ATOM     40  S2  SGN d1709      -4.802 -14.546 -22.814  0.00  0.00     0.251 S 
ATOM     41  O6S SGN d1709      -5.883 -15.525 -22.629  0.00  0.00    -0.572 OA
ATOM     42  O3  SGN d1709      -8.391 -11.938 -28.802  0.00  0.00    -0.391 OA
ATOM     43  H   SGN d1709      -5.395 -15.742 -31.691  0.00  0.00     0.231 HD
ATOM     44  H   SGN d1709      -3.817 -14.365 -28.393  0.00  0.00     0.212 HD
ATOM     45  H   SGN d1709      -8.035 -13.018 -26.523  0.00  0.00     0.091 H 
ATOM     46  H   SGN d1709      -5.019 -12.638 -26.497  0.00  0.00     0.090 H 
ATOM     47  H   SGN d1709      -5.755 -15.572 -28.628  0.00  0.00     0.131 H 
ATOM     48  H   SGN d1709      -6.724 -14.253 -33.001  0.00  0.00     0.231 HD
ATOM     49  H   SGN d1709      -7.503 -13.119 -30.709  0.00  0.00     0.140 HD
ATOM     50  H   SGN d1709      -7.906 -14.418 -28.691  0.00  0.00     0.076 H 
ATOM     51  H   SGN d1709      -6.327 -11.856 -28.645  0.00  0.00     0.089 H 
ATOM     52  H   SGN d1709      -8.783 -16.556 -31.178  0.00  0.00     0.231 HD
ATOM     53  H   SGN d1709      -6.164 -12.509 -24.288  0.00  0.00     0.080 H 
ATOM     54  H   SGN d1709      -6.857 -14.088 -24.588  0.00  0.00     0.080 H 
ATOM     55  H   SGN d1709      -9.116 -12.512 -28.510  0.00  0.00     0.210 HD
ATOM     56  O1S IDS d1712     -17.950  -5.493 -30.491  0.00  0.00    -0.572 OA
ATOM     57  O2S IDS d1712     -16.838  -7.674 -30.268  0.00  0.00    -0.572 OA
ATOM     58  O61 IDS d1712     -17.285  -6.734 -22.609  0.00  0.00    -0.646 OA
ATOM     59  O5  IDS d1712     -15.895  -5.552 -25.680  0.00  0.00    -0.340 OA
ATOM     60  C4  IDS d1712     -17.588  -7.260 -25.473  0.00  0.00     0.103 C 
ATOM     61  O2  IDS d1712     -17.040  -6.150 -28.416  0.00  0.00    -0.244 OA
ATOM     62  O4  IDS d1712     -18.597  -6.350 -25.926  0.00  0.00    -0.348 OA
ATOM     63  C1  IDS d1712     -15.266  -6.082 -26.838  0.00  0.00     0.161 C 
ATOM     64  S   IDS d1712     -17.743  -6.691 -29.666  0.00  0.00     0.252 S 
ATOM     65  C5  IDS d1712     -16.430  -6.529 -24.781  0.00  0.00     0.152 C 
ATOM     66  O62 IDS d1712     -16.727  -4.716 -23.273  0.00  0.00    -0.646 OA
ATOM     67  O3S IDS d1712     -19.020  -7.311 -29.203  0.00  0.00    -0.572 OA
ATOM     68  C6  IDS d1712     -16.839  -5.940 -23.467  0.00  0.00     0.206 C 
ATOM     69  C3  IDS d1712     -17.020  -7.959 -26.699  0.00  0.00     0.094 C 
ATOM     70  O3  IDS d1712     -16.149  -9.021 -26.283  0.00  0.00    -0.390 OA
ATOM     71  C2  IDS d1712     -16.211  -6.981 -27.591  0.00  0.00     0.134 C 
ATOM     72  H   IDS d1712     -18.029  -7.940 -24.773  0.00  0.00     0.092 H 
ATOM     73  H   IDS d1712     -14.978  -5.254 -27.452  0.00  0.00     0.133 H 
ATOM     74  H   IDS d1712     -15.661  -7.235 -24.544  0.00  0.00     0.104 H 
ATOM     75  H   IDS d1712     -17.842  -8.340 -27.268  0.00  0.00     0.091 H 
ATOM     76  H   IDS d1712     -15.412  -8.653 -25.771  0.00  0.00     0.210 HD
ATOM     77  H   IDS d1712     -15.636  -7.647 -28.201  0.00  0.00     0.097 H 
ATOM     78  O62 IDS d1710     -11.114 -10.068 -28.037  0.00  0.00    -0.646 OA
ATOM     79  O2  IDS d1710      -8.639  -9.190 -23.728  0.00  0.00    -0.244 OA
ATOM     80  O1S IDS d1710      -9.737  -9.521 -21.535  0.00  0.00    -0.572 OA
ATOM     81  C3  IDS d1710      -7.548  -8.214 -25.650  0.00  0.00     0.094 C 
ATOM     82  O3  IDS d1710      -6.335  -8.258 -26.403  0.00  0.00    -0.390 OA
ATOM     83  O4  IDS d1710      -9.912  -7.661 -25.885  0.00  0.00    -0.348 OA
ATOM     84  O5  IDS d1710      -9.230 -10.383 -26.379  0.00  0.00    -0.340 OA
ATOM     85  C6  IDS d1710     -10.133  -9.333 -28.319  0.00  0.00     0.206 C 
ATOM     86  O2S IDS d1710      -8.380 -11.299 -22.519  0.00  0.00    -0.572 OA
ATOM     87  C5  IDS d1710      -8.982  -9.346 -27.348  0.00  0.00     0.152 C 
ATOM     88  S   IDS d1710      -8.532  -9.845 -22.304  0.00  0.00     0.252 S 
ATOM     89  C2  IDS d1710      -7.681  -9.460 -24.762  0.00  0.00     0.134 C 
ATOM     90  O3S IDS d1710      -7.310  -9.244 -21.761  0.00  0.00    -0.572 OA
ATOM     91  C4  IDS d1710      -8.729  -8.025 -26.606  0.00  0.00     0.103 C 
ATOM     92  C1  IDS d1710      -8.131 -10.713 -25.531  0.00  0.00     0.161 C 
ATOM     93  O61 IDS d1710     -10.084  -8.598 -29.329  0.00  0.00    -0.646 OA
ATOM     94  H   IDS d1710      -7.537  -7.377 -24.983  0.00  0.00     0.091 H 
ATOM     95  H   IDS d1710      -6.356  -9.020 -27.005  0.00  0.00     0.210 HD
ATOM     96  H   IDS d1710      -8.101  -9.516 -27.932  0.00  0.00     0.104 H 
ATOM     97  H   IDS d1710      -6.709  -9.666 -24.363  0.00  0.00     0.097 H 
ATOM     98  H   IDS d1710      -8.495  -7.244 -27.299  0.00  0.00     0.092 H 
ATOM     99  H   IDS d1710      -8.447 -11.480 -24.856  0.00  0.00     0.133 H 
ATOM    100  C4  SGN d1713     -20.628  -3.586 -25.834  0.00  0.00     0.095 C 
ATOM    101  N   SGN d1713     -21.095  -7.103 -27.026  0.00  0.00    -0.210 NA
ATOM    102  O4S SGN d1713     -20.651  -0.326 -22.689  0.00  0.00    -0.572 OA
ATOM    103  O4  SGN d1713     -20.202  -2.381 -26.491  0.00  0.00    -0.348 OA
ATOM    104  C2  SGN d1713     -20.978  -6.026 -26.073  0.00  0.00     0.081 C 
ATOM    105  O6  SGN d1713     -20.637  -2.839 -23.063  0.00  0.00    -0.254 OA
ATOM    106  O2S SGN d1713     -22.963  -8.130 -25.922  0.00  0.00    -0.296 OA
ATOM    107  O3S SGN d1713     -22.059  -9.250 -28.063  0.00  0.00    -0.296 OA
ATOM    108  C6  SGN d1713     -19.367  -2.906 -23.725  0.00  0.00     0.067 C 
ATOM    109  O5S SGN d1713     -19.642  -1.775 -20.982  0.00  0.00    -0.572 OA
ATOM    110  C5  SGN d1713     -19.459  -3.881 -24.860  0.00  0.00     0.091 C 
ATOM    111  O3  SGN d1713     -22.064  -4.467 -27.518  0.00  0.00    -0.391 OA
ATOM    112  O1S SGN d1713     -20.852  -9.275 -25.916  0.00  0.00    -0.296 OA
ATOM    113  S1  SGN d1713     -21.794  -8.498 -26.669  0.00  0.00     0.156 S 
ATOM    114  O5  SGN d1713     -19.678  -5.160 -24.224  0.00  0.00    -0.349 OA
ATOM    115  S2  SGN d1713     -20.822  -1.650 -22.055  0.00  0.00     0.251 S 
ATOM    116  O6S SGN d1713     -22.123  -1.889 -21.473  0.00  0.00    -0.572 OA
ATOM    117  C3  SGN d1713     -20.833  -4.721 -26.834  0.00  0.00     0.083 C 
ATOM    118  C1  SGN d1713     -19.791  -6.249 -25.129  0.00  0.00     0.150 C 
ATOM    119  H   SGN d1713     -21.570  -3.488 -25.338  0.00  0.00     0.091 H 
ATOM    120  H   SGN d1713     -20.143  -7.329 -27.316  0.00  0.00     0.140 HD
ATOM    121  H   SGN d1713     -21.857  -5.990 -25.464  0.00  0.00     0.076 H 
ATOM    122  H   SGN d1713     -23.555  -7.609 -26.486  0.00  0.00     0.231 HD
ATOM    123  H   SGN d1713     -22.695  -8.741 -28.589  0.00  0.00     0.231 HD
ATOM    124  H   SGN d1713     -18.619  -3.232 -23.032  0.00  0.00     0.080 H 
ATOM    125  H   SGN d1713     -19.104  -1.939 -24.100  0.00  0.00     0.080 H 
ATOM    126  H   SGN d1713     -18.572  -3.834 -25.457  0.00  0.00     0.090 H 
ATOM    127  H   SGN d1713     -21.993  -3.635 -28.012  0.00  0.00     0.210 HD
ATOM    128  H   SGN d1713     -20.677  -8.838 -25.067  0.00  0.00     0.231 HD
ATOM    129  H   SGN d1713     -20.009  -4.783 -27.514  0.00  0.00     0.089 H 
ATOM    130  H   SGN d1713     -19.934  -7.145 -24.562  0.00  0.00     0.131 H 
ATOM    131  C2  SGN d1711     -10.992  -5.933 -24.674  0.00  0.00     0.081 C 
ATOM    132  O4S SGN d1711     -14.425  -4.244 -30.084  0.00  0.00    -0.572 OA
ATOM    133  S1  SGN d1711      -9.361  -5.357 -22.659  0.00  0.00     0.156 S 
ATOM    134  C3  SGN d1711     -12.413  -6.504 -24.836  0.00  0.00     0.083 C 
ATOM    135  O2S SGN d1711     -10.234  -4.398 -22.054  0.00  0.00    -0.296 OA
ATOM    136  O3  SGN d1711     -13.264  -6.079 -23.767  0.00  0.00    -0.391 OA
ATOM    137  N   SGN d1711     -10.328  -6.371 -23.448  0.00  0.00    -0.210 NA
ATOM    138  C4  SGN d1711     -12.970  -6.019 -26.185  0.00  0.00     0.095 C 
ATOM    139  O4  SGN d1711     -14.116  -6.847 -26.482  0.00  0.00    -0.348 OA
ATOM    140  O6S SGN d1711     -12.842  -2.507 -29.833  0.00  0.00    -0.572 OA
ATOM    141  S2  SGN d1711     -13.003  -3.889 -30.018  0.00  0.00     0.251 S 
ATOM    142  O5  SGN d1711     -10.751  -5.806 -27.086  0.00  0.00    -0.349 OA
ATOM    143  C5  SGN d1711     -12.017  -6.443 -27.340  0.00  0.00     0.091 C 
ATOM    144  O1S SGN d1711      -8.419  -4.803 -23.612  0.00  0.00    -0.296 OA
ATOM    145  O6  SGN d1711     -12.480  -4.601 -28.752  0.00  0.00    -0.254 OA
ATOM    146  O5S SGN d1711     -12.213  -4.540 -31.239  0.00  0.00    -0.572 OA
ATOM    147  O3S SGN d1711      -8.605  -6.288 -21.611  0.00  0.00    -0.296 OA
ATOM    148  C1  SGN d1711     -10.105  -6.244 -25.896  0.00  0.00     0.150 C 
ATOM    149  C6  SGN d1711     -12.425  -6.022 -28.753  0.00  0.00     0.067 C 
ATOM    150  H   SGN d1711     -11.123  -4.873 -24.602  0.00  0.00     0.076 H 
ATOM    151  H   SGN d1711     -12.375  -7.572 -24.810  0.00  0.00     0.089 H 
ATOM    152  H   SGN d1711     -10.659  -3.867 -22.745  0.00  0.00     0.231 HD
ATOM    153  H   SGN d1711     -13.320  -5.110 -23.762  0.00  0.00     0.210 HD
ATOM    154  H   SGN d1711      -9.766  -7.186 -23.691  0.00  0.00     0.140 HD
ATOM    155  H   SGN d1711     -13.136  -4.964 -26.121  0.00  0.00     0.091 H 
ATOM    156  H   SGN d1711     -12.018  -7.512 -27.334  0.00  0.00     0.090 H 
ATOM    157  H   SGN d1711      -8.892  -4.239 -24.244  0.00  0.00     0.231 HD
ATOM    158  H   SGN d1711      -8.033  -6.911 -22.086  0.00  0.00     0.231 HD
ATOM    159  H   SGN d1711      -9.164  -5.737 -25.858  0.00  0.00     0.131 H 
ATOM    160  H   SGN d1711     -13.384  -6.428 -28.997  0.00  0.00     0.080 H 
ATOM    161  H   SGN d1711     -11.728  -6.381 -29.480  0.00  0.00     0.080 H 
ENDROOT
TORSDOF 50
ENDMDL
MODEL 30
REMARK VINA RESULT:      -6.9      3.410     15.375
REMARK  0 active torsions:
REMARK  status: ('A' for Active; 'I' for Inactive)
REMARK       I    between atoms: C2_1  and  O2_12 
REMARK       I    between atoms: C1_4  and  O4_37 
REMARK       I    between atoms: O2S_5  and  S1_43 
REMARK       I    between atoms: O2_11  and  C2_82 
REMARK       I    between atoms: O2_11  and  S_80 
REMARK       I    between atoms: O2_12  and  S_23 
REMARK       I    between atoms: C4_13  and  O4_37 
REMARK       I    between atoms: C2_14  and  N_39 
REMARK       I    between atoms: O1_18  and  C1_32 
REMARK       I    between atoms: C4_19  and  O4_53 
REMARK       I    between atoms: O6_20  and  C6_76 
REMARK       I    between atoms: O6_20  and  S2_95 
REMARK       I    between atoms: S1_21  and  N_39 
REMARK       I    between atoms: S1_21  and  O1S_79 
REMARK       I    between atoms: S1_21  and  O2S_30 
REMARK       I    between atoms: S1_21  and  O3S_94 
REMARK       I    between atoms: C3_24  and  O3_26 
REMARK       I    between atoms: C3_25  and  O3_36 
REMARK       I    between atoms: C6_27  and  C5_83 
REMARK       I    between atoms: C4_28  and  O4_51 
REMARK       I    between atoms: N_29  and  C2_40 
REMARK       I    between atoms: N_29  and  S1_71 
REMARK       I    between atoms: C5_31  and  C6_76 
REMARK       I    between atoms: O1S_35  and  S1_43 
REMARK       I    between atoms: O4_38  and  C4_93 
REMARK       I    between atoms: O4_38  and  C1_96 
REMARK       I    between atoms: O6_41  and  C6_54 
REMARK       I    between atoms: O6_41  and  S2_84 
REMARK       I    between atoms: C4_42  and  O4_49 
REMARK       I    between atoms: S1_43  and  N_47 
REMARK       I    between atoms: S1_43  and  O3S_69 
REMARK       I    between atoms: O2S_44  and  S1_71 
REMARK       I    between atoms: N_47  and  C2_56 
REMARK       I    between atoms: O2_48  and  C2_99 
REMARK       I    between atoms: O2_48  and  S_63 
REMARK       I    between atoms: O4_49  and  C1_57 
REMARK       I    between atoms: O4_51  and  C1_102 
REMARK       I    between atoms: O3S_52  and  S1_71 
REMARK       I    between atoms: O4_53  and  C1_105 
REMARK       I    between atoms: C6_54  and  C5_59 
REMARK       I    between atoms: O3_60  and  C3_100 
REMARK       I    between atoms: O1S_61  and  S1_71 
REMARK       I    between atoms: S2_62  and  O6_81 
REMARK       I    between atoms: C5_65  and  C6_89 
REMARK       I    between atoms: C6_67  and  C5_74 
REMARK       I    between atoms: C3_68  and  O3_104 
REMARK       I    between atoms: C3_70  and  O3_85 
REMARK       I    between atoms: C5_77  and  C6_101 
REMARK       I    between atoms: O6_81  and  C6_101 
REMARK       I    between atoms: C3_92  and  O3_98 
ROOT
ATOM      1  C2  IDS d1714      -7.289 -12.513 -28.550  0.00  0.00     0.132 C 
ATOM      2  O3S IDS d1714      -5.728 -15.748 -29.873  0.00  0.00    -0.572 OA
ATOM      3  C1  IDS d1714      -7.203 -12.103 -27.103  0.00  0.00     0.161 C 
ATOM      4  O2S IDS d1714      -7.341 -14.267 -30.930  0.00  0.00    -0.572 OA
ATOM      5  O2  IDS d1714      -6.526 -13.721 -28.707  0.00  0.00    -0.244 OA
ATOM      6  S   IDS d1714      -6.903 -14.878 -29.649  0.00  0.00     0.252 S 
ATOM      7  C6  IDS d1714      -4.053 -10.135 -27.013  0.00  0.00     0.203 C 
ATOM      8  O5  IDS d1714      -5.844 -11.719 -26.825  0.00  0.00    -0.343 OA
ATOM      9  C4  IDS d1714      -5.490 -10.728 -29.058  0.00  0.00    -0.005 C 
ATOM     10  O61 IDS d1714      -3.582 -10.752 -26.027  0.00  0.00    -0.646 OA
ATOM     11  C3  IDS d1714      -6.750 -11.471 -29.524  0.00  0.00     0.069 C 
ATOM     12  C5  IDS d1714      -5.409 -10.568 -27.545  0.00  0.00     0.127 C 
ATOM     13  O3  IDS d1714      -7.792 -10.538 -29.850  0.00  0.00    -0.393 OA
ATOM     14  O1S IDS d1714      -8.028 -15.547 -28.985  0.00  0.00    -0.572 OA
ATOM     15  O62 IDS d1714      -3.442  -9.185 -27.557  0.00  0.00    -0.646 OA
ATOM     16  H   IDS d1714      -8.325 -12.639 -28.784  0.00  0.00     0.097 H 
ATOM     17  H   IDS d1714      -7.440 -12.869 -26.395  0.00  0.00     0.133 H 
ATOM     18  H   IDS d1714      -5.486  -9.755 -29.503  0.00  0.00     0.041 H 
ATOM     19  H   IDS d1714      -4.647 -11.313 -29.360  0.00  0.00     0.041 H 
ATOM     20  H   IDS d1714      -6.437 -12.016 -30.390  0.00  0.00     0.087 H 
ATOM     21  H   IDS d1714      -6.093  -9.765 -27.369  0.00  0.00     0.100 H 
ATOM     22  H   IDS d1714      -8.058 -10.058 -29.050  0.00  0.00     0.210 HD
ATOM     23  O5  SGN d1709     -23.346   0.032 -26.911  0.00  0.00    -0.350 OA
ATOM     24  O2S SGN d1709     -21.460   4.119 -28.277  0.00  0.00    -0.296 OA
ATOM     25  O4S SGN d1709     -26.190  -3.993 -25.265  0.00  0.00    -0.572 OA
ATOM     26  O1  SGN d1709     -23.395   1.050 -29.034  0.00  0.00    -0.369 OA
ATOM     27  O6  SGN d1709     -25.286  -1.921 -26.195  0.00  0.00    -0.254 OA
ATOM     28  C4  SGN d1709     -21.762  -1.648 -27.475  0.00  0.00     0.095 C 
ATOM     29  C5  SGN d1709     -23.254  -1.322 -27.358  0.00  0.00     0.091 C 
ATOM     30  C1  SGN d1709     -22.765   1.023 -27.757  0.00  0.00     0.147 C 
ATOM     31  O5S SGN d1709     -27.619  -1.891 -25.224  0.00  0.00    -0.572 OA
ATOM     32  O1S SGN d1709     -19.333   3.751 -29.297  0.00  0.00    -0.296 OA
ATOM     33  S1  SGN d1709     -20.314   3.250 -28.360  0.00  0.00     0.156 S 
ATOM     34  N   SGN d1709     -20.690   1.767 -28.807  0.00  0.00    -0.210 NA
ATOM     35  O4  SGN d1709     -21.744  -2.948 -28.088  0.00  0.00    -0.348 OA
ATOM     36  C2  SGN d1709     -21.260   0.777 -27.902  0.00  0.00     0.081 C 
ATOM     37  C3  SGN d1709     -21.044  -0.664 -28.380  0.00  0.00     0.083 C 
ATOM     38  O3S SGN d1709     -19.690   3.118 -26.932  0.00  0.00    -0.296 OA
ATOM     39  C6  SGN d1709     -23.898  -2.190 -26.272  0.00  0.00     0.067 C 
ATOM     40  S2  SGN d1709     -26.123  -2.546 -25.064  0.00  0.00     0.251 S 
ATOM     41  O6S SGN d1709     -25.552  -2.105 -23.783  0.00  0.00    -0.572 OA
ATOM     42  O3  SGN d1709     -19.637  -0.907 -28.347  0.00  0.00    -0.391 OA
ATOM     43  H   SGN d1709     -21.860   4.211 -29.156  0.00  0.00     0.231 HD
ATOM     44  H   SGN d1709     -24.346   1.207 -28.922  0.00  0.00     0.212 HD
ATOM     45  H   SGN d1709     -21.273  -1.605 -26.524  0.00  0.00     0.091 H 
ATOM     46  H   SGN d1709     -23.739  -1.488 -28.297  0.00  0.00     0.090 H 
ATOM     47  H   SGN d1709     -22.916   1.979 -27.301  0.00  0.00     0.131 H 
ATOM     48  H   SGN d1709     -19.735   3.828 -30.177  0.00  0.00     0.231 HD
ATOM     49  H   SGN d1709     -19.827   1.355 -29.163  0.00  0.00     0.140 HD
ATOM     50  H   SGN d1709     -20.758   0.889 -26.964  0.00  0.00     0.076 H 
ATOM     51  H   SGN d1709     -21.436  -0.791 -29.367  0.00  0.00     0.089 H 
ATOM     52  H   SGN d1709     -19.441   3.997 -26.606  0.00  0.00     0.231 HD
ATOM     53  H   SGN d1709     -23.750  -3.223 -26.509  0.00  0.00     0.080 H 
ATOM     54  H   SGN d1709     -23.445  -1.966 -25.329  0.00  0.00     0.080 H 
ATOM     55  H   SGN d1709     -19.309  -0.785 -27.442  0.00  0.00     0.210 HD
ATOM     56  O1S IDS d1712      -9.046  -5.764 -28.498  0.00  0.00    -0.572 OA
ATOM     57  O2S IDS d1712     -10.671  -4.175 -27.560  0.00  0.00    -0.572 OA
ATOM     58  O61 IDS d1712     -13.562 -10.069 -23.479  0.00  0.00    -0.646 OA
ATOM     59  O5  IDS d1712     -13.014  -8.675 -26.723  0.00  0.00    -0.340 OA
ATOM     60  C4  IDS d1712     -12.129  -7.802 -24.653  0.00  0.00     0.103 C 
ATOM     61  O2  IDS d1712     -10.945  -6.557 -27.345  0.00  0.00    -0.244 OA
ATOM     62  O4  IDS d1712     -10.823  -8.297 -24.974  0.00  0.00    -0.348 OA
ATOM     63  C1  IDS d1712     -13.156  -7.425 -27.382  0.00  0.00     0.161 C 
ATOM     64  S   IDS d1712      -9.919  -5.418 -27.368  0.00  0.00     0.252 S 
ATOM     65  C5  IDS d1712     -13.233  -8.641 -25.308  0.00  0.00     0.152 C 
ATOM     66  O62 IDS d1712     -13.193 -11.015 -25.427  0.00  0.00    -0.646 OA
ATOM     67  O3S IDS d1712      -9.214  -5.452 -26.051  0.00  0.00    -0.572 OA
ATOM     68  C6  IDS d1712     -13.334 -10.009 -24.708  0.00  0.00     0.206 C 
ATOM     69  C3  IDS d1712     -12.232  -6.391 -25.215  0.00  0.00     0.094 C 
ATOM     70  O3  IDS d1712     -13.444  -5.779 -24.749  0.00  0.00    -0.390 OA
ATOM     71  C2  IDS d1712     -12.248  -6.393 -26.766  0.00  0.00     0.134 C 
ATOM     72  H   IDS d1712     -12.257  -7.837 -23.591  0.00  0.00     0.092 H 
ATOM     73  H   IDS d1712     -12.897  -7.576 -28.410  0.00  0.00     0.133 H 
ATOM     74  H   IDS d1712     -14.182  -8.182 -25.119  0.00  0.00     0.104 H 
ATOM     75  H   IDS d1712     -11.376  -5.844 -24.882  0.00  0.00     0.091 H 
ATOM     76  H   IDS d1712     -14.206  -6.291 -25.062  0.00  0.00     0.210 HD
ATOM     77  H   IDS d1712     -12.632  -5.420 -26.994  0.00  0.00     0.097 H 
ATOM     78  O62 IDS d1710     -17.183  -3.153 -27.688  0.00  0.00    -0.646 OA
ATOM     79  O2  IDS d1710     -21.027  -6.352 -27.013  0.00  0.00    -0.244 OA
ATOM     80  O1S IDS d1710     -21.193  -7.735 -24.967  0.00  0.00    -0.572 OA
ATOM     81  C3  IDS d1710     -20.809  -5.622 -29.305  0.00  0.00     0.094 C 
ATOM     82  O3  IDS d1710     -21.503  -4.917 -30.336  0.00  0.00    -0.390 OA
ATOM     83  O4  IDS d1710     -18.551  -6.188 -28.578  0.00  0.00    -0.348 OA
ATOM     84  O5  IDS d1710     -19.625  -3.782 -27.493  0.00  0.00    -0.340 OA
ATOM     85  C6  IDS d1710     -17.689  -3.364 -28.820  0.00  0.00     0.206 C 
ATOM     86  O2S IDS d1710     -22.363  -5.595 -25.110  0.00  0.00    -0.572 OA
ATOM     87  C5  IDS d1710     -19.115  -3.851 -28.839  0.00  0.00     0.152 C 
ATOM     88  S   IDS d1710     -21.947  -6.818 -25.827  0.00  0.00     0.252 S 
ATOM     89  C2  IDS d1710     -21.436  -5.330 -27.933  0.00  0.00     0.134 C 
ATOM     90  O3S IDS d1710     -23.071  -7.454 -26.518  0.00  0.00    -0.572 OA
ATOM     91  C4  IDS d1710     -19.318  -5.277 -29.373  0.00  0.00     0.103 C 
ATOM     92  C1  IDS d1710     -21.034  -3.962 -27.357  0.00  0.00     0.161 C 
ATOM     93  O61 IDS d1710     -17.071  -3.214 -29.897  0.00  0.00    -0.646 OA
ATOM     94  H   IDS d1710     -20.902  -6.677 -29.452  0.00  0.00     0.091 H 
ATOM     95  H   IDS d1710     -21.411  -3.962 -30.193  0.00  0.00     0.210 HD
ATOM     96  H   IDS d1710     -19.638  -3.215 -29.522  0.00  0.00     0.104 H 
ATOM     97  H   IDS d1710     -22.498  -5.315 -28.071  0.00  0.00     0.097 H 
ATOM     98  H   IDS d1710     -18.991  -5.348 -30.390  0.00  0.00     0.092 H 
ATOM     99  H   IDS d1710     -21.281  -3.901 -26.318  0.00  0.00     0.133 H 
ATOM    100  C4  SGN d1713      -8.410 -10.646 -25.627  0.00  0.00     0.095 C 
ATOM    101  N   SGN d1713      -8.401  -7.350 -23.855  0.00  0.00    -0.210 NA
ATOM    102  O4S SGN d1713      -8.968 -15.136 -25.849  0.00  0.00    -0.572 OA
ATOM    103  O4  SGN d1713      -8.148 -11.024 -26.989  0.00  0.00    -0.348 OA
ATOM    104  C2  SGN d1713      -8.652  -8.758 -24.043  0.00  0.00     0.081 C 
ATOM    105  O6  SGN d1713      -9.476 -13.055 -24.485  0.00  0.00    -0.254 OA
ATOM    106  O2S SGN d1713      -7.598  -7.599 -21.606  0.00  0.00    -0.296 OA
ATOM    107  O3S SGN d1713      -7.678  -5.221 -22.604  0.00  0.00    -0.296 OA
ATOM    108  C6  SGN d1713     -10.266 -12.388 -25.478  0.00  0.00     0.067 C 
ATOM    109  O5S SGN d1713     -10.993 -15.092 -24.461  0.00  0.00    -0.572 OA
ATOM    110  C5  SGN d1713      -9.926 -10.928 -25.474  0.00  0.00     0.091 C 
ATOM    111  O3  SGN d1713      -6.653  -9.069 -25.310  0.00  0.00    -0.391 OA
ATOM    112  O1S SGN d1713      -9.695  -6.482 -21.962  0.00  0.00    -0.296 OA
ATOM    113  S1  SGN d1713      -8.343  -6.669 -22.407  0.00  0.00     0.156 S 
ATOM    114  O5  SGN d1713     -10.372 -10.454 -24.184  0.00  0.00    -0.349 OA
ATOM    115  S2  SGN d1713      -9.466 -14.622 -24.557  0.00  0.00     0.251 S 
ATOM    116  O6S SGN d1713      -8.695 -15.017 -23.400  0.00  0.00    -0.572 OA
ATOM    117  C3  SGN d1713      -8.078  -9.176 -25.384  0.00  0.00     0.083 C 
ATOM    118  C1  SGN d1713     -10.151  -9.069 -23.963  0.00  0.00     0.150 C 
ATOM    119  H   SGN d1713      -7.813 -11.180 -24.917  0.00  0.00     0.091 H 
ATOM    120  H   SGN d1713      -9.134  -6.861 -24.369  0.00  0.00     0.140 HD
ATOM    121  H   SGN d1713      -8.177  -9.313 -23.261  0.00  0.00     0.076 H 
ATOM    122  H   SGN d1713      -6.699  -7.680 -21.959  0.00  0.00     0.231 HD
ATOM    123  H   SGN d1713      -6.763  -5.324 -22.906  0.00  0.00     0.231 HD
ATOM    124  H   SGN d1713     -11.305 -12.515 -25.254  0.00  0.00     0.080 H 
ATOM    125  H   SGN d1713     -10.060 -12.803 -26.443  0.00  0.00     0.080 H 
ATOM    126  H   SGN d1713     -10.391 -10.440 -26.306  0.00  0.00     0.090 H 
ATOM    127  H   SGN d1713      -6.265  -9.332 -26.159  0.00  0.00     0.210 HD
ATOM    128  H   SGN d1713     -10.117  -7.347 -21.836  0.00  0.00     0.231 HD
ATOM    129  H   SGN d1713      -8.480  -8.562 -26.162  0.00  0.00     0.089 H 
ATOM    130  H   SGN d1713     -10.529  -8.817 -22.993  0.00  0.00     0.131 H 
ATOM    131  C2  SGN d1711     -17.732  -8.407 -28.413  0.00  0.00     0.081 C 
ATOM    132  O4S SGN d1711     -11.888  -6.465 -30.860  0.00  0.00    -0.572 OA
ATOM    133  S1  SGN d1711     -19.888  -9.958 -28.445  0.00  0.00     0.156 S 
ATOM    134  C3  SGN d1711     -16.606  -8.076 -27.418  0.00  0.00     0.083 C 
ATOM    135  O2S SGN d1711     -19.171 -11.181 -28.252  0.00  0.00    -0.296 OA
ATOM    136  O3  SGN d1711     -16.263  -9.220 -26.629  0.00  0.00    -0.391 OA
ATOM    137  N   SGN d1711     -18.975  -8.822 -27.766  0.00  0.00    -0.210 NA
ATOM    138  C4  SGN d1711     -15.385  -7.597 -28.221  0.00  0.00     0.095 C 
ATOM    139  O4  SGN d1711     -14.497  -6.951 -27.282  0.00  0.00    -0.348 OA
ATOM    140  O6S SGN d1711     -12.883  -7.683 -32.625  0.00  0.00    -0.572 OA
ATOM    141  S2  SGN d1711     -13.029  -6.575 -31.775  0.00  0.00     0.251 S 
ATOM    142  O5  SGN d1711     -16.794  -6.844 -30.018  0.00  0.00    -0.349 OA
ATOM    143  C5  SGN d1711     -15.774  -6.383 -29.112  0.00  0.00     0.091 C 
ATOM    144  O1S SGN d1711     -20.100  -9.592 -29.832  0.00  0.00    -0.296 OA
ATOM    145  O6  SGN d1711     -14.244  -6.837 -30.859  0.00  0.00    -0.254 OA
ATOM    146  O5S SGN d1711     -13.311  -5.173 -32.479  0.00  0.00    -0.572 OA
ATOM    147  O3S SGN d1711     -21.257  -9.882 -27.635  0.00  0.00    -0.296 OA
ATOM    148  C1  SGN d1711     -18.005  -7.238 -29.381  0.00  0.00     0.150 C 
ATOM    149  C6  SGN d1711     -14.667  -5.795 -29.989  0.00  0.00     0.067 C 
ATOM    150  H   SGN d1711     -17.373  -9.244 -28.975  0.00  0.00     0.076 H 
ATOM    151  H   SGN d1711     -16.934  -7.310 -26.746  0.00  0.00     0.089 H 
ATOM    152  H   SGN d1711     -18.352 -11.161 -28.771  0.00  0.00     0.231 HD
ATOM    153  H   SGN d1711     -15.960  -9.935 -27.210  0.00  0.00     0.210 HD
ATOM    154  H   SGN d1711     -19.556  -7.988 -27.680  0.00  0.00     0.140 HD
ATOM    155  H   SGN d1711     -14.993  -8.430 -28.766  0.00  0.00     0.091 H 
ATOM    156  H   SGN d1711     -16.061  -5.608 -28.432  0.00  0.00     0.090 H 
ATOM    157  H   SGN d1711     -19.259  -9.642 -30.312  0.00  0.00     0.231 HD
ATOM    158  H   SGN d1711     -21.689  -9.032 -27.811  0.00  0.00     0.231 HD
ATOM    159  H   SGN d1711     -18.685  -7.504 -30.163  0.00  0.00     0.131 H 
ATOM    160  H   SGN d1711     -13.850  -5.466 -29.382  0.00  0.00     0.080 H 
ATOM    161  H   SGN d1711     -15.020  -4.950 -30.542  0.00  0.00     0.080 H 
ENDROOT
TORSDOF 50
ENDMDL
MODEL 31
REMARK VINA RESULT:      -6.7      3.450      7.804
REMARK  0 active torsions:
REMARK  status: ('A' for Active; 'I' for Inactive)
REMARK       I    between atoms: C2_1  and  O2_12 
REMARK       I    between atoms: C1_4  and  O4_37 
REMARK       I    between atoms: O2S_5  and  S1_43 
REMARK       I    between atoms: O2_11  and  C2_82 
REMARK       I    between atoms: O2_11  and  S_80 
REMARK       I    between atoms: O2_12  and  S_23 
REMARK       I    between atoms: C4_13  and  O4_37 
REMARK       I    between atoms: C2_14  and  N_39 
REMARK       I    between atoms: O1_18  and  C1_32 
REMARK       I    between atoms: C4_19  and  O4_53 
REMARK       I    between atoms: O6_20  and  C6_76 
REMARK       I    between atoms: O6_20  and  S2_95 
REMARK       I    between atoms: S1_21  and  N_39 
REMARK       I    between atoms: S1_21  and  O1S_79 
REMARK       I    between atoms: S1_21  and  O2S_30 
REMARK       I    between atoms: S1_21  and  O3S_94 
REMARK       I    between atoms: C3_24  and  O3_26 
REMARK       I    between atoms: C3_25  and  O3_36 
REMARK       I    between atoms: C6_27  and  C5_83 
REMARK       I    between atoms: C4_28  and  O4_51 
REMARK       I    between atoms: N_29  and  C2_40 
REMARK       I    between atoms: N_29  and  S1_71 
REMARK       I    between atoms: C5_31  and  C6_76 
REMARK       I    between atoms: O1S_35  and  S1_43 
REMARK       I    between atoms: O4_38  and  C4_93 
REMARK       I    between atoms: O4_38  and  C1_96 
REMARK       I    between atoms: O6_41  and  C6_54 
REMARK       I    between atoms: O6_41  and  S2_84 
REMARK       I    between atoms: C4_42  and  O4_49 
REMARK       I    between atoms: S1_43  and  N_47 
REMARK       I    between atoms: S1_43  and  O3S_69 
REMARK       I    between atoms: O2S_44  and  S1_71 
REMARK       I    between atoms: N_47  and  C2_56 
REMARK       I    between atoms: O2_48  and  C2_99 
REMARK       I    between atoms: O2_48  and  S_63 
REMARK       I    between atoms: O4_49  and  C1_57 
REMARK       I    between atoms: O4_51  and  C1_102 
REMARK       I    between atoms: O3S_52  and  S1_71 
REMARK       I    between atoms: O4_53  and  C1_105 
REMARK       I    between atoms: C6_54  and  C5_59 
REMARK       I    between atoms: O3_60  and  C3_100 
REMARK       I    between atoms: O1S_61  and  S1_71 
REMARK       I    between atoms: S2_62  and  O6_81 
REMARK       I    between atoms: C5_65  and  C6_89 
REMARK       I    between atoms: C6_67  and  C5_74 
REMARK       I    between atoms: C3_68  and  O3_104 
REMARK       I    between atoms: C3_70  and  O3_85 
REMARK       I    between atoms: C5_77  and  C6_101 
REMARK       I    between atoms: O6_81  and  C6_101 
REMARK       I    between atoms: C3_92  and  O3_98 
ROOT
ATOM      1  C2  IDS d1714     -20.302  -3.746 -27.432  0.00  0.00     0.132 C 
ATOM      2  O3S IDS d1714     -22.254  -0.539 -26.687  0.00  0.00    -0.572 OA
ATOM      3  C1  IDS d1714     -20.842  -5.116 -27.117  0.00  0.00     0.161 C 
ATOM      4  O2S IDS d1714     -19.907  -0.820 -27.259  0.00  0.00    -0.572 OA
ATOM      5  O2  IDS d1714     -21.324  -2.789 -27.106  0.00  0.00    -0.244 OA
ATOM      6  S   IDS d1714     -21.059  -1.393 -26.515  0.00  0.00     0.252 S 
ATOM      7  C6  IDS d1714     -22.671  -5.995 -30.229  0.00  0.00     0.203 C 
ATOM      8  O5  IDS d1714     -21.916  -5.398 -28.031  0.00  0.00    -0.343 OA
ATOM      9  C4  IDS d1714     -20.845  -4.215 -29.915  0.00  0.00    -0.005 C 
ATOM     10  O61 IDS d1714     -23.723  -6.329 -29.631  0.00  0.00    -0.646 OA
ATOM     11  C3  IDS d1714     -19.910  -3.555 -28.893  0.00  0.00     0.069 C 
ATOM     12  C5  IDS d1714     -21.507  -5.484 -29.394  0.00  0.00     0.127 C 
ATOM     13  O3  IDS d1714     -18.558  -4.001 -29.086  0.00  0.00    -0.393 OA
ATOM     14  O1S IDS d1714     -20.695  -1.643 -25.116  0.00  0.00    -0.572 OA
ATOM     15  O62 IDS d1714     -22.559  -6.074 -31.475  0.00  0.00    -0.646 OA
ATOM     16  H   IDS d1714     -19.409  -3.615 -26.859  0.00  0.00     0.097 H 
ATOM     17  H   IDS d1714     -21.256  -5.230 -26.136  0.00  0.00     0.133 H 
ATOM     18  H   IDS d1714     -20.275  -4.462 -30.786  0.00  0.00     0.041 H 
ATOM     19  H   IDS d1714     -21.626  -3.516 -30.129  0.00  0.00     0.041 H 
ATOM     20  H   IDS d1714     -19.999  -2.506 -29.084  0.00  0.00     0.087 H 
ATOM     21  H   IDS d1714     -20.716  -6.199 -29.478  0.00  0.00     0.100 H 
ATOM     22  H   IDS d1714     -18.503  -4.953 -28.907  0.00  0.00     0.210 HD
ATOM     23  O5  SGN d1709      -3.096 -14.711 -26.174  0.00  0.00    -0.350 OA
ATOM     24  O2S SGN d1709      -2.439 -15.907 -30.676  0.00  0.00    -0.296 OA
ATOM     25  O4S SGN d1709      -3.073 -13.893 -21.043  0.00  0.00    -0.572 OA
ATOM     26  O1  SGN d1709      -1.735 -13.682 -27.797  0.00  0.00    -0.369 OA
ATOM     27  O6  SGN d1709      -2.594 -14.319 -23.402  0.00  0.00    -0.254 OA
ATOM     28  C4  SGN d1709      -4.790 -13.045 -26.174  0.00  0.00     0.095 C 
ATOM     29  C5  SGN d1709      -3.503 -13.523 -25.495  0.00  0.00     0.091 C 
ATOM     30  C1  SGN d1709      -2.813 -14.583 -27.567  0.00  0.00     0.147 C 
ATOM     31  O5S SGN d1709      -1.111 -15.389 -21.657  0.00  0.00    -0.572 OA
ATOM     32  O1S SGN d1709      -3.864 -14.618 -32.093  0.00  0.00    -0.296 OA
ATOM     33  S1  SGN d1709      -3.671 -15.167 -30.769  0.00  0.00     0.156 S 
ATOM     34  N   SGN d1709      -3.750 -13.957 -29.733  0.00  0.00    -0.210 NA
ATOM     35  O4  SGN d1709      -5.044 -11.769 -25.563  0.00  0.00    -0.348 OA
ATOM     36  C2  SGN d1709      -4.067 -14.131 -28.321  0.00  0.00     0.081 C 
ATOM     37  C3  SGN d1709      -4.595 -12.849 -27.666  0.00  0.00     0.083 C 
ATOM     38  O3S SGN d1709      -4.850 -16.124 -30.395  0.00  0.00    -0.296 OA
ATOM     39  C6  SGN d1709      -3.792 -13.921 -24.043  0.00  0.00     0.067 C 
ATOM     40  S2  SGN d1709      -2.651 -14.926 -21.988  0.00  0.00     0.251 S 
ATOM     41  O6S SGN d1709      -3.499 -16.125 -22.045  0.00  0.00    -0.572 OA
ATOM     42  O3  SGN d1709      -5.846 -12.549 -28.287  0.00  0.00    -0.391 OA
ATOM     43  H   SGN d1709      -1.695 -15.326 -30.905  0.00  0.00     0.231 HD
ATOM     44  H   SGN d1709      -0.951 -13.984 -27.312  0.00  0.00     0.212 HD
ATOM     45  H   SGN d1709      -5.585 -13.753 -26.057  0.00  0.00     0.091 H 
ATOM     46  H   SGN d1709      -2.765 -12.748 -25.524  0.00  0.00     0.090 H 
ATOM     47  H   SGN d1709      -2.516 -15.543 -27.935  0.00  0.00     0.131 H 
ATOM     48  H   SGN d1709      -3.125 -14.028 -32.309  0.00  0.00     0.231 HD
ATOM     49  H   SGN d1709      -4.455 -13.319 -30.101  0.00  0.00     0.140 HD
ATOM     50  H   SGN d1709      -4.839 -14.869 -28.265  0.00  0.00     0.076 H 
ATOM     51  H   SGN d1709      -3.897 -12.049 -27.796  0.00  0.00     0.089 H 
ATOM     52  H   SGN d1709      -4.852 -16.885 -30.997  0.00  0.00     0.231 HD
ATOM     53  H   SGN d1709      -4.211 -13.086 -23.523  0.00  0.00     0.080 H 
ATOM     54  H   SGN d1709      -4.483 -14.738 -24.034  0.00  0.00     0.080 H 
ATOM     55  H   SGN d1709      -6.459 -13.290 -28.154  0.00  0.00     0.210 HD
ATOM     56  O1S IDS d1712     -16.268  -8.134 -31.054  0.00  0.00    -0.572 OA
ATOM     57  O2S IDS d1712     -14.739 -10.042 -30.801  0.00  0.00    -0.572 OA
ATOM     58  O61 IDS d1712     -16.467  -9.989 -23.267  0.00  0.00    -0.646 OA
ATOM     59  O5  IDS d1712     -14.956  -8.238 -25.990  0.00  0.00    -0.340 OA
ATOM     60  C4  IDS d1712     -16.235 -10.278 -26.171  0.00  0.00     0.103 C 
ATOM     61  O2  IDS d1712     -15.538  -8.788 -28.908  0.00  0.00    -0.244 OA
ATOM     62  O4  IDS d1712     -17.347  -9.561 -26.719  0.00  0.00    -0.348 OA
ATOM     63  C1  IDS d1712     -14.066  -8.505 -27.065  0.00  0.00     0.161 C 
ATOM     64  S   IDS d1712     -15.918  -9.338 -30.288  0.00  0.00     0.252 S 
ATOM     65  C5  IDS d1712     -15.381  -9.392 -25.256  0.00  0.00     0.152 C 
ATOM     66  O62 IDS d1712     -16.287  -7.843 -23.697  0.00  0.00    -0.646 OA
ATOM     67  O3S IDS d1712     -17.076 -10.257 -30.078  0.00  0.00    -0.572 OA
ATOM     68  C6  IDS d1712     -16.093  -9.037 -23.988  0.00  0.00     0.206 C 
ATOM     69  C3  IDS d1712     -15.356 -10.715 -27.335  0.00  0.00     0.094 C 
ATOM     70  O3  IDS d1712     -14.338 -11.605 -26.856  0.00  0.00    -0.390 OA
ATOM     71  C2  IDS d1712     -14.670  -9.504 -28.018  0.00  0.00     0.134 C 
ATOM     72  H   IDS d1712     -16.607 -11.102 -25.598  0.00  0.00     0.092 H 
ATOM     73  H   IDS d1712     -13.888  -7.578 -27.569  0.00  0.00     0.133 H 
ATOM     74  H   IDS d1712     -14.514  -9.939 -24.946  0.00  0.00     0.104 H 
ATOM     75  H   IDS d1712     -15.983 -11.202 -28.052  0.00  0.00     0.091 H 
ATOM     76  H   IDS d1712     -13.782 -11.143 -26.209  0.00  0.00     0.210 HD
ATOM     77  H   IDS d1712     -13.880  -9.968 -28.571  0.00  0.00     0.097 H 
ATOM     78  O62 IDS d1710      -8.999 -11.384 -27.846  0.00  0.00    -0.646 OA
ATOM     79  O2  IDS d1710      -7.421 -10.438 -23.147  0.00  0.00    -0.244 OA
ATOM     80  O1S IDS d1710      -8.716 -11.211 -21.185  0.00  0.00    -0.572 OA
ATOM     81  C3  IDS d1710      -6.315  -9.066 -24.800  0.00  0.00     0.094 C 
ATOM     82  O3  IDS d1710      -5.029  -8.778 -25.351  0.00  0.00    -0.390 OA
ATOM     83  O4  IDS d1710      -8.686  -9.005 -25.373  0.00  0.00    -0.348 OA
ATOM     84  O5  IDS d1710      -7.348 -11.458 -25.932  0.00  0.00    -0.340 OA
ATOM     85  C6  IDS d1710      -8.179 -10.434 -27.918  0.00  0.00     0.206 C 
ATOM     86  O2S IDS d1710      -6.870 -12.554 -22.055  0.00  0.00    -0.572 OA
ATOM     87  C5  IDS d1710      -7.203 -10.300 -26.778  0.00  0.00     0.152 C 
ATOM     88  S   IDS d1710      -7.373 -11.194 -21.771  0.00  0.00     0.252 S 
ATOM     89  C2  IDS d1710      -6.290 -10.394 -24.030  0.00  0.00     0.134 C 
ATOM     90  O3S IDS d1710      -6.407 -10.406 -21.000  0.00  0.00    -0.572 OA
ATOM     91  C4  IDS d1710      -7.361  -9.036 -25.919  0.00  0.00     0.103 C 
ATOM     92  C1  IDS d1710      -6.334 -11.631 -24.943  0.00  0.00     0.161 C 
ATOM     93  O61 IDS d1710      -8.153  -9.607 -28.856  0.00  0.00    -0.646 OA
ATOM     94  H   IDS d1710      -6.588  -8.317 -24.085  0.00  0.00     0.091 H 
ATOM     95  H   IDS d1710      -4.793  -9.462 -25.997  0.00  0.00     0.210 HD
ATOM     96  H   IDS d1710      -6.233 -10.221 -27.222  0.00  0.00     0.104 H 
ATOM     97  H   IDS d1710      -5.363 -10.429 -23.495  0.00  0.00     0.097 H 
ATOM     98  H   IDS d1710      -7.212  -8.158 -26.511  0.00  0.00     0.092 H 
ATOM     99  H   IDS d1710      -6.562 -12.511 -24.379  0.00  0.00     0.133 H 
ATOM    100  C4  SGN d1713     -19.938  -7.312 -26.770  0.00  0.00     0.095 C 
ATOM    101  N   SGN d1713     -19.431 -10.710 -28.253  0.00  0.00    -0.210 NA
ATOM    102  O4S SGN d1713     -21.137  -4.462 -23.459  0.00  0.00    -0.572 OA
ATOM    103  O4  SGN d1713     -19.705  -5.984 -27.269  0.00  0.00    -0.348 OA
ATOM    104  C2  SGN d1713     -19.695  -9.734 -27.224  0.00  0.00     0.081 C 
ATOM    105  O6  SGN d1713     -20.508  -6.864 -23.992  0.00  0.00    -0.254 OA
ATOM    106  O2S SGN d1713     -21.159 -12.214 -27.533  0.00  0.00    -0.296 OA
ATOM    107  O3S SGN d1713     -19.733 -12.899 -29.571  0.00  0.00    -0.296 OA
ATOM    108  C6  SGN d1713     -19.174  -6.596 -24.445  0.00  0.00     0.067 C 
ATOM    109  O5S SGN d1713     -20.081  -5.828 -21.713  0.00  0.00    -0.572 OA
ATOM    110  C5  SGN d1713     -18.883  -7.449 -25.643  0.00  0.00     0.091 C 
ATOM    111  O3  SGN d1713     -20.886  -8.304 -28.717  0.00  0.00    -0.391 OA
ATOM    112  O1S SGN d1713     -18.867 -12.883 -27.264  0.00  0.00    -0.296 OA
ATOM    113  S1  SGN d1713     -19.843 -12.251 -28.106  0.00  0.00     0.156 S 
ATOM    114  O5  SGN d1713     -18.898  -8.803 -25.137  0.00  0.00    -0.349 OA
ATOM    115  S2  SGN d1713     -21.095  -5.849 -22.951  0.00  0.00     0.251 S 
ATOM    116  O6S SGN d1713     -22.379  -6.414 -22.602  0.00  0.00    -0.572 OA
ATOM    117  C3  SGN d1713     -19.739  -8.359 -27.863  0.00  0.00     0.083 C 
ATOM    118  C1  SGN d1713     -18.634  -9.795 -26.118  0.00  0.00     0.150 C 
ATOM    119  H   SGN d1713     -20.939  -7.465 -26.426  0.00  0.00     0.091 H 
ATOM    120  H   SGN d1713     -18.422 -10.700 -28.401  0.00  0.00     0.140 HD
ATOM    121  H   SGN d1713     -20.637  -9.946 -26.762  0.00  0.00     0.076 H 
ATOM    122  H   SGN d1713     -21.767 -11.776 -28.149  0.00  0.00     0.231 HD
ATOM    123  H   SGN d1713     -20.385 -12.485 -30.157  0.00  0.00     0.231 HD
ATOM    124  H   SGN d1713     -18.478  -6.823 -23.665  0.00  0.00     0.080 H 
ATOM    125  H   SGN d1713     -19.084  -5.562 -24.708  0.00  0.00     0.080 H 
ATOM    126  H   SGN d1713     -17.953  -7.156 -26.085  0.00  0.00     0.090 H 
ATOM    127  H   SGN d1713     -20.935  -7.430 -29.137  0.00  0.00     0.210 HD
ATOM    128  H   SGN d1713     -18.917 -12.505 -26.372  0.00  0.00     0.231 HD
ATOM    129  H   SGN d1713     -18.835  -8.177 -28.405  0.00  0.00     0.089 H 
ATOM    130  H   SGN d1713     -18.652 -10.753 -25.642  0.00  0.00     0.131 H 
ATOM    131  C2  SGN d1711     -10.286  -7.673 -24.239  0.00  0.00     0.081 C 
ATOM    132  O4S SGN d1711     -13.208  -6.216 -30.006  0.00  0.00    -0.572 OA
ATOM    133  S1  SGN d1711      -9.128  -6.970 -21.955  0.00  0.00     0.156 S 
ATOM    134  C3  SGN d1711     -11.505  -8.512 -24.664  0.00  0.00     0.083 C 
ATOM    135  O2S SGN d1711     -10.270  -6.283 -21.435  0.00  0.00    -0.296 OA
ATOM    136  O3  SGN d1711     -12.573  -8.386 -23.719  0.00  0.00    -0.391 OA
ATOM    137  N   SGN d1711      -9.721  -8.081 -22.954  0.00  0.00    -0.210 NA
ATOM    138  C4  SGN d1711     -11.959  -8.025 -26.050  0.00  0.00     0.095 C 
ATOM    139  O4  SGN d1711     -12.836  -9.042 -26.581  0.00  0.00    -0.348 OA
ATOM    140  O6S SGN d1711     -12.106  -4.218 -29.389  0.00  0.00    -0.572 OA
ATOM    141  S2  SGN d1711     -11.926  -5.577 -29.689  0.00  0.00     0.251 S 
ATOM    142  O5  SGN d1711      -9.740  -7.258 -26.568  0.00  0.00    -0.349 OA
ATOM    143  C5  SGN d1711     -10.782  -8.119 -27.063  0.00  0.00     0.091 C 
ATOM    144  O1S SGN d1711      -8.209  -6.138 -22.706  0.00  0.00    -0.296 OA
ATOM    145  O6  SGN d1711     -11.441  -6.285 -28.405  0.00  0.00    -0.254 OA
ATOM    146  O5S SGN d1711     -10.844  -5.920 -30.808  0.00  0.00    -0.572 OA
ATOM    147  O3S SGN d1711      -8.339  -7.821 -20.864  0.00  0.00    -0.296 OA
ATOM    148  C1  SGN d1711      -9.188  -7.666 -25.321  0.00  0.00     0.150 C 
ATOM    149  C6  SGN d1711     -11.070  -7.655 -28.491  0.00  0.00     0.067 C 
ATOM    150  H   SGN d1711     -10.659  -6.678 -24.119  0.00  0.00     0.076 H 
ATOM    151  H   SGN d1711     -11.232  -9.546 -24.703  0.00  0.00     0.089 H 
ATOM    152  H   SGN d1711     -10.701  -5.787 -22.149  0.00  0.00     0.231 HD
ATOM    153  H   SGN d1711     -12.844  -7.457 -23.660  0.00  0.00     0.210 HD
ATOM    154  H   SGN d1711      -8.962  -8.731 -23.158  0.00  0.00     0.140 HD
ATOM    155  H   SGN d1711     -12.365  -7.040 -25.943  0.00  0.00     0.091 H 
ATOM    156  H   SGN d1711     -10.544  -9.160 -27.128  0.00  0.00     0.090 H 
ATOM    157  H   SGN d1711      -8.702  -5.626 -23.366  0.00  0.00     0.231 HD
ATOM    158  H   SGN d1711      -7.581  -8.258 -21.281  0.00  0.00     0.231 HD
ATOM    159  H   SGN d1711      -8.399  -6.978 -25.099  0.00  0.00     0.131 H 
ATOM    160  H   SGN d1711     -11.869  -8.228 -28.913  0.00  0.00     0.080 H 
ATOM    161  H   SGN d1711     -10.213  -7.784 -29.120  0.00  0.00     0.080 H 
ENDROOT
TORSDOF 50
ENDMDL
MODEL 32
REMARK VINA RESULT:      -6.6      3.030     15.125
REMARK  0 active torsions:
REMARK  status: ('A' for Active; 'I' for Inactive)
REMARK       I    between atoms: C2_1  and  O2_12 
REMARK       I    between atoms: C1_4  and  O4_37 
REMARK       I    between atoms: O2S_5  and  S1_43 
REMARK       I    between atoms: O2_11  and  C2_82 
REMARK       I    between atoms: O2_11  and  S_80 
REMARK       I    between atoms: O2_12  and  S_23 
REMARK       I    between atoms: C4_13  and  O4_37 
REMARK       I    between atoms: C2_14  and  N_39 
REMARK       I    between atoms: O1_18  and  C1_32 
REMARK       I    between atoms: C4_19  and  O4_53 
REMARK       I    between atoms: O6_20  and  C6_76 
REMARK       I    between atoms: O6_20  and  S2_95 
REMARK       I    between atoms: S1_21  and  N_39 
REMARK       I    between atoms: S1_21  and  O1S_79 
REMARK       I    between atoms: S1_21  and  O2S_30 
REMARK       I    between atoms: S1_21  and  O3S_94 
REMARK       I    between atoms: C3_24  and  O3_26 
REMARK       I    between atoms: C3_25  and  O3_36 
REMARK       I    between atoms: C6_27  and  C5_83 
REMARK       I    between atoms: C4_28  and  O4_51 
REMARK       I    between atoms: N_29  and  C2_40 
REMARK       I    between atoms: N_29  and  S1_71 
REMARK       I    between atoms: C5_31  and  C6_76 
REMARK       I    between atoms: O1S_35  and  S1_43 
REMARK       I    between atoms: O4_38  and  C4_93 
REMARK       I    between atoms: O4_38  and  C1_96 
REMARK       I    between atoms: O6_41  and  C6_54 
REMARK       I    between atoms: O6_41  and  S2_84 
REMARK       I    between atoms: C4_42  and  O4_49 
REMARK       I    between atoms: S1_43  and  N_47 
REMARK       I    between atoms: S1_43  and  O3S_69 
REMARK       I    between atoms: O2S_44  and  S1_71 
REMARK       I    between atoms: N_47  and  C2_56 
REMARK       I    between atoms: O2_48  and  C2_99 
REMARK       I    between atoms: O2_48  and  S_63 
REMARK       I    between atoms: O4_49  and  C1_57 
REMARK       I    between atoms: O4_51  and  C1_102 
REMARK       I    between atoms: O3S_52  and  S1_71 
REMARK       I    between atoms: O4_53  and  C1_105 
REMARK       I    between atoms: C6_54  and  C5_59 
REMARK       I    between atoms: O3_60  and  C3_100 
REMARK       I    between atoms: O1S_61  and  S1_71 
REMARK       I    between atoms: S2_62  and  O6_81 
REMARK       I    between atoms: C5_65  and  C6_89 
REMARK       I    between atoms: C6_67  and  C5_74 
REMARK       I    between atoms: C3_68  and  O3_104 
REMARK       I    between atoms: C3_70  and  O3_85 
REMARK       I    between atoms: C5_77  and  C6_101 
REMARK       I    between atoms: O6_81  and  C6_101 
REMARK       I    between atoms: C3_92  and  O3_98 
ROOT
ATOM      1  C2  IDS d1714      -4.368 -10.474 -27.910  0.00  0.00     0.132 C 
ATOM      2  O3S IDS d1714      -1.162 -10.268 -29.991  0.00  0.00    -0.572 OA
ATOM      3  C1  IDS d1714      -5.149 -11.752 -27.747  0.00  0.00     0.161 C 
ATOM      4  O2S IDS d1714      -2.553  -8.475 -29.116  0.00  0.00    -0.572 OA
ATOM      5  O2  IDS d1714      -3.188 -10.778 -28.672  0.00  0.00    -0.244 OA
ATOM      6  S   IDS d1714      -2.549  -9.838 -29.709  0.00  0.00     0.252 S 
ATOM      7  C6  IDS d1714      -3.587 -13.271 -24.739  0.00  0.00     0.203 C 
ATOM      8  O5  IDS d1714      -4.389 -12.640 -26.910  0.00  0.00    -0.343 OA
ATOM      9  C4  IDS d1714      -3.498 -10.819 -25.501  0.00  0.00    -0.005 C 
ATOM     10  O61 IDS d1714      -3.418 -14.393 -25.274  0.00  0.00    -0.646 OA
ATOM     11  C3  IDS d1714      -3.941  -9.836 -26.593  0.00  0.00     0.069 C 
ATOM     12  C5  IDS d1714      -4.207 -12.165 -25.578  0.00  0.00     0.127 C 
ATOM     13  O3  IDS d1714      -4.996  -8.989 -26.109  0.00  0.00    -0.393 OA
ATOM     14  O1S IDS d1714      -3.445  -9.898 -30.869  0.00  0.00    -0.572 OA
ATOM     15  O62 IDS d1714      -3.266 -13.046 -23.548  0.00  0.00    -0.646 OA
ATOM     16  H   IDS d1714      -5.009  -9.768 -28.395  0.00  0.00     0.097 H 
ATOM     17  H   IDS d1714      -5.336 -12.292 -28.652  0.00  0.00     0.133 H 
ATOM     18  H   IDS d1714      -3.703 -10.381 -24.546  0.00  0.00     0.041 H 
ATOM     19  H   IDS d1714      -2.454 -11.003 -25.645  0.00  0.00     0.041 H 
ATOM     20  H   IDS d1714      -3.063  -9.266 -26.816  0.00  0.00     0.087 H 
ATOM     21  H   IDS d1714      -5.163 -11.938 -25.153  0.00  0.00     0.100 H 
ATOM     22  H   IDS d1714      -5.779  -9.527 -25.914  0.00  0.00     0.210 HD
ATOM     23  O5  SGN d1709     -22.936  -3.323 -23.218  0.00  0.00    -0.350 OA
ATOM     24  O2S SGN d1709     -22.579  -2.840 -18.552  0.00  0.00    -0.296 OA
ATOM     25  O4S SGN d1709     -24.191  -3.576 -28.253  0.00  0.00    -0.572 OA
ATOM     26  O1  SGN d1709     -22.420  -1.398 -21.963  0.00  0.00    -0.369 OA
ATOM     27  O6  SGN d1709     -23.940  -3.098 -25.869  0.00  0.00    -0.254 OA
ATOM     28  C4  SGN d1709     -20.728  -3.703 -24.012  0.00  0.00     0.095 C 
ATOM     29  C5  SGN d1709     -22.079  -3.053 -24.328  0.00  0.00     0.091 C 
ATOM     30  C1  SGN d1709     -22.514  -2.820 -21.951  0.00  0.00     0.147 C 
ATOM     31  O5S SGN d1709     -26.215  -2.794 -26.928  0.00  0.00    -0.572 OA
ATOM     32  O1S SGN d1709     -20.299  -3.018 -17.871  0.00  0.00    -0.296 OA
ATOM     33  S1  SGN d1709     -21.282  -3.378 -18.869  0.00  0.00     0.156 S 
ATOM     34  N   SGN d1709     -20.732  -2.886 -20.282  0.00  0.00    -0.210 NA
ATOM     35  O4  SGN d1709     -19.874  -3.250 -25.076  0.00  0.00    -0.348 OA
ATOM     36  C2  SGN d1709     -21.174  -3.446 -21.553  0.00  0.00     0.081 C 
ATOM     37  C3  SGN d1709     -20.169  -3.215 -22.688  0.00  0.00     0.083 C 
ATOM     38  O3S SGN d1709     -21.406  -4.933 -18.979  0.00  0.00    -0.296 OA
ATOM     39  C6  SGN d1709     -22.714  -3.729 -25.549  0.00  0.00     0.067 C 
ATOM     40  S2  SGN d1709     -24.849  -3.705 -26.954  0.00  0.00     0.251 S 
ATOM     41  O6S SGN d1709     -25.190  -5.074 -26.543  0.00  0.00    -0.572 OA
ATOM     42  O3  SGN d1709     -18.989  -3.949 -22.356  0.00  0.00    -0.391 OA
ATOM     43  H   SGN d1709     -22.520  -1.874 -18.480  0.00  0.00     0.231 HD
ATOM     44  H   SGN d1709     -23.276  -1.020 -22.216  0.00  0.00     0.212 HD
ATOM     45  H   SGN d1709     -20.809  -4.768 -23.939  0.00  0.00     0.091 H 
ATOM     46  H   SGN d1709     -21.947  -2.008 -24.513  0.00  0.00     0.090 H 
ATOM     47  H   SGN d1709     -23.251  -3.089 -21.224  0.00  0.00     0.131 H 
ATOM     48  H   SGN d1709     -20.234  -2.052 -17.814  0.00  0.00     0.231 HD
ATOM     49  H   SGN d1709     -19.722  -3.023 -20.252  0.00  0.00     0.140 HD
ATOM     50  H   SGN d1709     -21.269  -4.502 -21.410  0.00  0.00     0.076 H 
ATOM     51  H   SGN d1709     -19.960  -2.172 -22.793  0.00  0.00     0.089 H 
ATOM     52  H   SGN d1709     -21.739  -5.292 -18.142  0.00  0.00     0.231 HD
ATOM     53  H   SGN d1709     -22.048  -3.651 -26.383  0.00  0.00     0.080 H 
ATOM     54  H   SGN d1709     -22.896  -4.759 -25.325  0.00  0.00     0.080 H 
ATOM     55  H   SGN d1709     -19.208  -4.890 -22.267  0.00  0.00     0.210 HD
ATOM     56  O1S IDS d1712      -8.634  -9.287 -22.521  0.00  0.00    -0.572 OA
ATOM     57  O2S IDS d1712     -11.008  -9.217 -21.887  0.00  0.00    -0.572 OA
ATOM     58  O61 IDS d1712     -12.635 -11.666 -29.036  0.00  0.00    -0.646 OA
ATOM     59  O5  IDS d1712     -11.296  -9.039 -27.018  0.00  0.00    -0.340 OA
ATOM     60  C4  IDS d1712     -11.945 -11.226 -26.225  0.00  0.00     0.103 C 
ATOM     61  O2  IDS d1712     -10.305  -9.400 -24.182  0.00  0.00    -0.244 OA
ATOM     62  O4  IDS d1712     -10.571 -11.615 -26.101  0.00  0.00    -0.348 OA
ATOM     63  C1  IDS d1712     -11.632  -8.328 -25.836  0.00  0.00     0.161 C 
ATOM     64  S   IDS d1712      -9.984  -9.822 -22.744  0.00  0.00     0.252 S 
ATOM     65  C5  IDS d1712     -12.139 -10.160 -27.311  0.00  0.00     0.152 C 
ATOM     66  O62 IDS d1712     -11.040 -10.206 -29.418  0.00  0.00    -0.646 OA
ATOM     67  O3S IDS d1712     -10.036 -11.315 -22.715  0.00  0.00    -0.572 OA
ATOM     68  C6  IDS d1712     -11.913 -10.706 -28.686  0.00  0.00     0.206 C 
ATOM     69  C3  IDS d1712     -12.365 -10.610 -24.898  0.00  0.00     0.094 C 
ATOM     70  O3  IDS d1712     -13.783 -10.386 -24.904  0.00  0.00    -0.390 OA
ATOM     71  C2  IDS d1712     -11.655  -9.254 -24.647  0.00  0.00     0.134 C 
ATOM     72  H   IDS d1712     -12.523 -12.088 -26.486  0.00  0.00     0.092 H 
ATOM     73  H   IDS d1712     -10.889  -7.570 -25.697  0.00  0.00     0.133 H 
ATOM     74  H   IDS d1712     -13.158  -9.833 -27.304  0.00  0.00     0.104 H 
ATOM     75  H   IDS d1712     -12.089 -11.290 -24.121  0.00  0.00     0.091 H 
ATOM     76  H   IDS d1712     -14.010  -9.767 -25.616  0.00  0.00     0.210 HD
ATOM     77  H   IDS d1712     -12.261  -8.814 -23.883  0.00  0.00     0.097 H 
ATOM     78  O62 IDS d1710     -16.436  -5.850 -23.522  0.00  0.00    -0.646 OA
ATOM     79  O2  IDS d1710     -18.367  -4.723 -28.046  0.00  0.00    -0.244 OA
ATOM     80  O1S IDS d1710     -18.858  -6.495 -29.702  0.00  0.00    -0.572 OA
ATOM     81  C3  IDS d1710     -17.443  -2.797 -26.917  0.00  0.00     0.094 C 
ATOM     82  O3  IDS d1710     -17.801  -1.522 -26.383  0.00  0.00    -0.390 OA
ATOM     83  O4  IDS d1710     -15.788  -4.571 -26.655  0.00  0.00    -0.348 OA
ATOM     84  O5  IDS d1710     -18.152  -4.853 -25.090  0.00  0.00    -0.340 OA
ATOM     85  C6  IDS d1710     -16.211  -4.629 -23.724  0.00  0.00     0.206 C 
ATOM     86  O2S IDS d1710     -20.611  -5.679 -28.209  0.00  0.00    -0.572 OA
ATOM     87  C5  IDS d1710     -17.100  -3.939 -24.724  0.00  0.00     0.152 C 
ATOM     88  S   IDS d1710     -19.433  -5.327 -29.029  0.00  0.00     0.252 S 
ATOM     89  C2  IDS d1710     -18.692  -3.666 -27.131  0.00  0.00     0.134 C 
ATOM     90  O3S IDS d1710     -19.713  -4.208 -29.933  0.00  0.00    -0.572 OA
ATOM     91  C4  IDS d1710     -16.402  -3.452 -26.003  0.00  0.00     0.103 C 
ATOM     92  C1  IDS d1710     -19.231  -4.290 -25.833  0.00  0.00     0.161 C 
ATOM     93  O61 IDS d1710     -15.295  -3.989 -23.163  0.00  0.00    -0.646 OA
ATOM     94  H   IDS d1710     -16.996  -2.682 -27.882  0.00  0.00     0.091 H 
ATOM     95  H   IDS d1710     -18.204  -1.639 -25.508  0.00  0.00     0.210 HD
ATOM     96  H   IDS d1710     -17.460  -3.053 -24.244  0.00  0.00     0.104 H 
ATOM     97  H   IDS d1710     -19.457  -3.024 -27.515  0.00  0.00     0.097 H 
ATOM     98  H   IDS d1710     -15.645  -2.733 -25.768  0.00  0.00     0.092 H 
ATOM     99  H   IDS d1710     -19.932  -5.068 -26.049  0.00  0.00     0.133 H 
ATOM    100  C4  SGN d1713      -7.394 -12.362 -27.157  0.00  0.00     0.095 C 
ATOM    101  N   SGN d1713      -9.617 -13.727 -24.474  0.00  0.00    -0.210 NA
ATOM    102  O4S SGN d1713      -5.809 -12.139 -31.395  0.00  0.00    -0.572 OA
ATOM    103  O4  SGN d1713      -6.396 -11.328 -27.167  0.00  0.00    -0.348 OA
ATOM    104  C2  SGN d1713      -9.124 -13.517 -25.814  0.00  0.00     0.081 C 
ATOM    105  O6  SGN d1713      -7.725 -12.962 -29.945  0.00  0.00    -0.254 OA
ATOM    106  O2S SGN d1713      -9.935 -16.089 -24.757  0.00  0.00    -0.296 OA
ATOM    107  O3S SGN d1713     -10.547 -15.053 -22.475  0.00  0.00    -0.296 OA
ATOM    108  C6  SGN d1713      -8.160 -11.674 -29.490  0.00  0.00     0.067 C 
ATOM    109  O5S SGN d1713      -8.044 -12.348 -32.389  0.00  0.00    -0.572 OA
ATOM    110  C5  SGN d1713      -8.521 -11.765 -28.038  0.00  0.00     0.091 C 
ATOM    111  O3  SGN d1713      -6.852 -13.415 -25.091  0.00  0.00    -0.391 OA
ATOM    112  O1S SGN d1713     -11.872 -14.689 -24.520  0.00  0.00    -0.296 OA
ATOM    113  S1  SGN d1713     -10.537 -14.977 -24.079  0.00  0.00     0.156 S 
ATOM    114  O5  SGN d1713      -9.670 -12.642 -28.002  0.00  0.00    -0.349 OA
ATOM    115  S2  SGN d1713      -7.016 -12.990 -31.344  0.00  0.00     0.251 S 
ATOM    116  O6S SGN d1713      -6.787 -14.396 -31.588  0.00  0.00    -0.572 OA
ATOM    117  C3  SGN d1713      -7.877 -12.656 -25.740  0.00  0.00     0.083 C 
ATOM    118  C1  SGN d1713     -10.192 -12.867 -26.701  0.00  0.00     0.150 C 
ATOM    119  H   SGN d1713      -7.034 -13.302 -27.521  0.00  0.00     0.091 H 
ATOM    120  H   SGN d1713     -10.155 -12.893 -24.237  0.00  0.00     0.140 HD
ATOM    121  H   SGN d1713      -8.883 -14.460 -26.258  0.00  0.00     0.076 H 
ATOM    122  H   SGN d1713      -9.038 -16.229 -24.415  0.00  0.00     0.231 HD
ATOM    123  H   SGN d1713      -9.652 -15.247 -22.155  0.00  0.00     0.231 HD
ATOM    124  H   SGN d1713      -9.016 -11.365 -30.053  0.00  0.00     0.080 H 
ATOM    125  H   SGN d1713      -7.375 -10.960 -29.622  0.00  0.00     0.080 H 
ATOM    126  H   SGN d1713      -8.703 -10.787 -27.642  0.00  0.00     0.090 H 
ATOM    127  H   SGN d1713      -6.043 -12.882 -25.033  0.00  0.00     0.210 HD
ATOM    128  H   SGN d1713     -11.889 -14.639 -25.489  0.00  0.00     0.231 HD
ATOM    129  H   SGN d1713      -8.088 -11.749 -25.214  0.00  0.00     0.089 H 
ATOM    130  H   SGN d1713     -11.043 -13.510 -26.786  0.00  0.00     0.131 H 
ATOM    131  C2  SGN d1711     -14.283  -5.237 -28.362  0.00  0.00     0.081 C 
ATOM    132  O4S SGN d1711      -9.439  -5.876 -23.885  0.00  0.00    -0.572 OA
ATOM    133  S1  SGN d1711     -15.279  -4.234 -30.611  0.00  0.00     0.156 S 
ATOM    134  C3  SGN d1711     -14.014  -6.637 -27.783  0.00  0.00     0.083 C 
ATOM    135  O2S SGN d1711     -14.291  -4.821 -31.463  0.00  0.00    -0.296 OA
ATOM    136  O3  SGN d1711     -13.627  -7.554 -28.812  0.00  0.00    -0.391 OA
ATOM    137  N   SGN d1711     -15.372  -5.211 -29.337  0.00  0.00    -0.210 NA
ATOM    138  C4  SGN d1711     -12.897  -6.513 -26.733  0.00  0.00     0.095 C 
ATOM    139  O4  SGN d1711     -12.921  -7.730 -25.955  0.00  0.00    -0.348 OA
ATOM    140  O6S SGN d1711      -8.871  -3.919 -25.083  0.00  0.00    -0.572 OA
ATOM    141  S2  SGN d1711      -9.852  -4.526 -24.282  0.00  0.00     0.251 S 
ATOM    142  O5  SGN d1711     -13.475  -4.218 -26.311  0.00  0.00    -0.349 OA
ATOM    143  C5  SGN d1711     -13.302  -5.481 -25.642  0.00  0.00     0.091 C 
ATOM    144  O1S SGN d1711     -14.954  -2.905 -30.132  0.00  0.00    -0.296 OA
ATOM    145  O6  SGN d1711     -11.109  -4.739 -25.153  0.00  0.00    -0.254 OA
ATOM    146  O5S SGN d1711     -10.341  -3.699 -23.011  0.00  0.00    -0.572 OA
ATOM    147  O3S SGN d1711     -16.750  -4.261 -31.220  0.00  0.00    -0.296 OA
ATOM    148  C1  SGN d1711     -14.543  -4.198 -27.253  0.00  0.00     0.150 C 
ATOM    149  C6  SGN d1711     -12.286  -5.231 -24.526  0.00  0.00     0.067 C 
ATOM    150  H   SGN d1711     -13.386  -4.971 -28.881  0.00  0.00     0.076 H 
ATOM    151  H   SGN d1711     -14.908  -7.018 -27.335  0.00  0.00     0.089 H 
ATOM    152  H   SGN d1711     -13.423  -4.771 -31.034  0.00  0.00     0.231 HD
ATOM    153  H   SGN d1711     -12.817  -7.237 -29.240  0.00  0.00     0.210 HD
ATOM    154  H   SGN d1711     -16.218  -4.955 -28.829  0.00  0.00     0.140 HD
ATOM    155  H   SGN d1711     -11.985  -6.278 -27.239  0.00  0.00     0.091 H 
ATOM    156  H   SGN d1711     -14.171  -5.889 -25.170  0.00  0.00     0.090 H 
ATOM    157  H   SGN d1711     -14.057  -2.903 -29.764  0.00  0.00     0.231 HD
ATOM    158  H   SGN d1711     -17.366  -3.850 -30.594  0.00  0.00     0.231 HD
ATOM    159  H   SGN d1711     -14.594  -3.198 -27.632  0.00  0.00     0.131 H 
ATOM    160  H   SGN d1711     -12.076  -6.142 -24.007  0.00  0.00     0.080 H 
ATOM    161  H   SGN d1711     -12.663  -4.531 -23.810  0.00  0.00     0.080 H 
ENDROOT
TORSDOF 50
ENDMDL
MODEL 33
REMARK VINA RESULT:      -6.6      3.105      4.431
REMARK  0 active torsions:
REMARK  status: ('A' for Active; 'I' for Inactive)
REMARK       I    between atoms: C2_1  and  O2_12 
REMARK       I    between atoms: C1_4  and  O4_37 
REMARK       I    between atoms: O2S_5  and  S1_43 
REMARK       I    between atoms: O2_11  and  C2_82 
REMARK       I    between atoms: O2_11  and  S_80 
REMARK       I    between atoms: O2_12  and  S_23 
REMARK       I    between atoms: C4_13  and  O4_37 
REMARK       I    between atoms: C2_14  and  N_39 
REMARK       I    between atoms: O1_18  and  C1_32 
REMARK       I    between atoms: C4_19  and  O4_53 
REMARK       I    between atoms: O6_20  and  C6_76 
REMARK       I    between atoms: O6_20  and  S2_95 
REMARK       I    between atoms: S1_21  and  N_39 
REMARK       I    between atoms: S1_21  and  O1S_79 
REMARK       I    between atoms: S1_21  and  O2S_30 
REMARK       I    between atoms: S1_21  and  O3S_94 
REMARK       I    between atoms: C3_24  and  O3_26 
REMARK       I    between atoms: C3_25  and  O3_36 
REMARK       I    between atoms: C6_27  and  C5_83 
REMARK       I    between atoms: C4_28  and  O4_51 
REMARK       I    between atoms: N_29  and  C2_40 
REMARK       I    between atoms: N_29  and  S1_71 
REMARK       I    between atoms: C5_31  and  C6_76 
REMARK       I    between atoms: O1S_35  and  S1_43 
REMARK       I    between atoms: O4_38  and  C4_93 
REMARK       I    between atoms: O4_38  and  C1_96 
REMARK       I    between atoms: O6_41  and  C6_54 
REMARK       I    between atoms: O6_41  and  S2_84 
REMARK       I    between atoms: C4_42  and  O4_49 
REMARK       I    between atoms: S1_43  and  N_47 
REMARK       I    between atoms: S1_43  and  O3S_69 
REMARK       I    between atoms: O2S_44  and  S1_71 
REMARK       I    between atoms: N_47  and  C2_56 
REMARK       I    between atoms: O2_48  and  C2_99 
REMARK       I    between atoms: O2_48  and  S_63 
REMARK       I    between atoms: O4_49  and  C1_57 
REMARK       I    between atoms: O4_51  and  C1_102 
REMARK       I    between atoms: O3S_52  and  S1_71 
REMARK       I    between atoms: O4_53  and  C1_105 
REMARK       I    between atoms: C6_54  and  C5_59 
REMARK       I    between atoms: O3_60  and  C3_100 
REMARK       I    between atoms: O1S_61  and  S1_71 
REMARK       I    between atoms: S2_62  and  O6_81 
REMARK       I    between atoms: C5_65  and  C6_89 
REMARK       I    between atoms: C6_67  and  C5_74 
REMARK       I    between atoms: C3_68  and  O3_104 
REMARK       I    between atoms: C3_70  and  O3_85 
REMARK       I    between atoms: C5_77  and  C6_101 
REMARK       I    between atoms: O6_81  and  C6_101 
REMARK       I    between atoms: C3_92  and  O3_98 
ROOT
ATOM      1  C2  IDS d1714     -19.039  -2.208 -29.552  0.00  0.00     0.132 C 
ATOM      2  O3S IDS d1714     -21.500  -1.059 -32.248  0.00  0.00    -0.572 OA
ATOM      3  C1  IDS d1714     -18.246  -1.241 -28.712  0.00  0.00     0.161 C 
ATOM      4  O2S IDS d1714     -20.565  -3.269 -31.852  0.00  0.00    -0.572 OA
ATOM      5  O2  IDS d1714     -19.917  -1.439 -30.390  0.00  0.00    -0.244 OA
ATOM      6  S   IDS d1714     -20.293  -1.808 -31.836  0.00  0.00     0.252 S 
ATOM      7  C6  IDS d1714     -20.502  -0.653 -25.820  0.00  0.00     0.203 C 
ATOM      8  O5  IDS d1714     -19.150  -0.592 -27.800  0.00  0.00    -0.343 OA
ATOM      9  C4  IDS d1714     -20.548  -2.603 -27.492  0.00  0.00    -0.005 C 
ATOM     10  O61 IDS d1714     -20.423   0.597 -25.889  0.00  0.00    -0.646 OA
ATOM     11  C3  IDS d1714     -19.879  -3.189 -28.743  0.00  0.00     0.069 C 
ATOM     12  C5  IDS d1714     -19.748  -1.474 -26.854  0.00  0.00     0.127 C 
ATOM     13  O3  IDS d1714     -19.079  -4.331 -28.397  0.00  0.00    -0.393 OA
ATOM     14  O1S IDS d1714     -19.095  -1.498 -32.624  0.00  0.00    -0.572 OA
ATOM     15  O62 IDS d1714     -21.174  -1.230 -24.933  0.00  0.00    -0.646 OA
ATOM     16  H   IDS d1714     -18.339  -2.795 -30.108  0.00  0.00     0.097 H 
ATOM     17  H   IDS d1714     -17.763  -0.455 -29.253  0.00  0.00     0.133 H 
ATOM     18  H   IDS d1714     -20.665  -3.386 -26.771  0.00  0.00     0.041 H 
ATOM     19  H   IDS d1714     -21.487  -2.193 -27.797  0.00  0.00     0.041 H 
ATOM     20  H   IDS d1714     -20.693  -3.469 -29.378  0.00  0.00     0.087 H 
ATOM     21  H   IDS d1714     -18.979  -2.010 -26.337  0.00  0.00     0.100 H 
ATOM     22  H   IDS d1714     -18.349  -4.052 -27.822  0.00  0.00     0.210 HD
ATOM     23  O5  SGN d1709      -3.249 -13.834 -23.771  0.00  0.00    -0.350 OA
ATOM     24  O2S SGN d1709      -4.991 -15.896 -19.919  0.00  0.00    -0.296 OA
ATOM     25  O4S SGN d1709      -0.559 -12.014 -27.826  0.00  0.00    -0.572 OA
ATOM     26  O1  SGN d1709      -4.252 -15.954 -23.550  0.00  0.00    -0.369 OA
ATOM     27  O6  SGN d1709      -1.532 -13.266 -25.966  0.00  0.00    -0.254 OA
ATOM     28  C4  SGN d1709      -5.092 -12.796 -24.855  0.00  0.00     0.095 C 
ATOM     29  C5  SGN d1709      -3.761 -13.524 -25.068  0.00  0.00     0.091 C 
ATOM     30  C1  SGN d1709      -4.060 -14.675 -22.952  0.00  0.00     0.147 C 
ATOM     31  O5S SGN d1709       0.924 -13.578 -26.477  0.00  0.00    -0.572 OA
ATOM     32  O1S SGN d1709      -7.351 -15.562 -19.794  0.00  0.00    -0.296 OA
ATOM     33  S1  SGN d1709      -6.095 -15.053 -20.298  0.00  0.00     0.156 S 
ATOM     34  N   SGN d1709      -6.242 -14.892 -21.877  0.00  0.00    -0.210 NA
ATOM     35  O4  SGN d1709      -5.628 -12.671 -26.183  0.00  0.00    -0.348 OA
ATOM     36  C2  SGN d1709      -5.406 -14.001 -22.673  0.00  0.00     0.081 C 
ATOM     37  C3  SGN d1709      -6.049 -13.619 -24.011  0.00  0.00     0.083 C 
ATOM     38  O3S SGN d1709      -5.828 -13.613 -19.747  0.00  0.00    -0.296 OA
ATOM     39  C6  SGN d1709      -2.748 -12.581 -25.728  0.00  0.00     0.067 C 
ATOM     40  S2  SGN d1709      -0.302 -12.486 -26.467  0.00  0.00     0.251 S 
ATOM     41  O6S SGN d1709       0.005 -11.444 -25.476  0.00  0.00    -0.572 OA
ATOM     42  O3  SGN d1709      -7.216 -12.852 -23.710  0.00  0.00    -0.391 OA
ATOM     43  H   SGN d1709      -5.141 -16.794 -20.253  0.00  0.00     0.231 HD
ATOM     44  H   SGN d1709      -3.390 -16.365 -23.719  0.00  0.00     0.212 HD
ATOM     45  H   SGN d1709      -4.957 -11.864 -24.347  0.00  0.00     0.091 H 
ATOM     46  H   SGN d1709      -3.910 -14.389 -25.680  0.00  0.00     0.090 H 
ATOM     47  H   SGN d1709      -3.550 -14.826 -22.023  0.00  0.00     0.131 H 
ATOM     48  H   SGN d1709      -7.502 -16.454 -20.144  0.00  0.00     0.231 HD
ATOM     49  H   SGN d1709      -7.203 -14.593 -22.039  0.00  0.00     0.140 HD
ATOM     50  H   SGN d1709      -5.279 -13.104 -22.103  0.00  0.00     0.076 H 
ATOM     51  H   SGN d1709      -6.296 -14.497 -24.570  0.00  0.00     0.089 H 
ATOM     52  H   SGN d1709      -5.729 -13.649 -18.782  0.00  0.00     0.231 HD
ATOM     53  H   SGN d1709      -3.144 -12.229 -26.657  0.00  0.00     0.080 H 
ATOM     54  H   SGN d1709      -2.562 -11.754 -25.076  0.00  0.00     0.080 H 
ATOM     55  H   SGN d1709      -6.963 -12.064 -23.204  0.00  0.00     0.210 HD
ATOM     56  O1S IDS d1712     -16.639  -6.019 -24.226  0.00  0.00    -0.572 OA
ATOM     57  O2S IDS d1712     -14.567  -6.745 -23.121  0.00  0.00    -0.572 OA
ATOM     58  O61 IDS d1712     -10.739  -2.222 -28.084  0.00  0.00    -0.646 OA
ATOM     59  O5  IDS d1712     -12.804  -5.108 -27.665  0.00  0.00    -0.340 OA
ATOM     60  C4  IDS d1712     -12.254  -3.514 -25.937  0.00  0.00     0.103 C 
ATOM     61  O2  IDS d1712     -14.552  -5.621 -25.249  0.00  0.00    -0.244 OA
ATOM     62  O4  IDS d1712     -13.570  -2.951 -26.003  0.00  0.00    -0.348 OA
ATOM     63  C1  IDS d1712     -12.883  -6.247 -26.820  0.00  0.00     0.161 C 
ATOM     64  S   IDS d1712     -15.247  -5.696 -23.886  0.00  0.00     0.252 S 
ATOM     65  C5  IDS d1712     -11.831  -4.132 -27.276  0.00  0.00     0.152 C 
ATOM     66  O62 IDS d1712     -12.257  -3.128 -29.388  0.00  0.00    -0.646 OA
ATOM     67  O3S IDS d1712     -15.095  -4.351 -23.254  0.00  0.00    -0.572 OA
ATOM     68  C6  IDS d1712     -11.602  -3.094 -28.331  0.00  0.00     0.206 C 
ATOM     69  C3  IDS d1712     -12.287  -4.633 -24.907  0.00  0.00     0.094 C 
ATOM     70  O3  IDS d1712     -10.951  -5.094 -24.659  0.00  0.00    -0.390 OA
ATOM     71  C2  IDS d1712     -13.140  -5.833 -25.394  0.00  0.00     0.134 C 
ATOM     72  H   IDS d1712     -11.561  -2.737 -25.686  0.00  0.00     0.092 H 
ATOM     73  H   IDS d1712     -13.688  -6.854 -27.178  0.00  0.00     0.133 H 
ATOM     74  H   IDS d1712     -10.886  -4.620 -27.154  0.00  0.00     0.104 H 
ATOM     75  H   IDS d1712     -12.728  -4.241 -24.014  0.00  0.00     0.091 H 
ATOM     76  H   IDS d1712     -10.573  -5.445 -25.481  0.00  0.00     0.210 HD
ATOM     77  H   IDS d1712     -12.819  -6.623 -24.747  0.00  0.00     0.097 H 
ATOM     78  O62 IDS d1710      -9.167 -10.226 -24.601  0.00  0.00    -0.646 OA
ATOM     79  O2  IDS d1710      -6.085  -9.976 -28.589  0.00  0.00    -0.244 OA
ATOM     80  O1S IDS d1710      -5.000  -7.847 -29.232  0.00  0.00    -0.572 OA
ATOM     81  C3  IDS d1710      -7.441 -11.976 -28.578  0.00  0.00     0.094 C 
ATOM     82  O3  IDS d1710      -7.351 -13.401 -28.526  0.00  0.00    -0.390 OA
ATOM     83  O4  IDS d1710      -8.962 -10.146 -28.039  0.00  0.00    -0.348 OA
ATOM     84  O5  IDS d1710      -7.146 -10.885 -25.972  0.00  0.00    -0.340 OA
ATOM     85  C6  IDS d1710      -9.413 -11.228 -25.319  0.00  0.00     0.206 C 
ATOM     86  O2S IDS d1710      -3.827  -9.453 -27.813  0.00  0.00    -0.572 OA
ATOM     87  C5  IDS d1710      -8.324 -11.661 -26.266  0.00  0.00     0.152 C 
ATOM     88  S   IDS d1710      -4.736  -9.263 -28.963  0.00  0.00     0.252 S 
ATOM     89  C2  IDS d1710      -6.123 -11.333 -28.121  0.00  0.00     0.134 C 
ATOM     90  O3S IDS d1710      -4.288 -10.011 -30.141  0.00  0.00    -0.572 OA
ATOM     91  C4  IDS d1710      -8.652 -11.517 -27.760  0.00  0.00     0.103 C 
ATOM     92  C1  IDS d1710      -5.942 -11.329 -26.594  0.00  0.00     0.161 C 
ATOM     93  O61 IDS d1710     -10.499 -11.849 -25.298  0.00  0.00    -0.646 OA
ATOM     94  H   IDS d1710      -7.593 -11.651 -29.586  0.00  0.00     0.091 H 
ATOM     95  H   IDS d1710      -7.215 -13.683 -27.608  0.00  0.00     0.210 HD
ATOM     96  H   IDS d1710      -8.188 -12.710 -26.106  0.00  0.00     0.104 H 
ATOM     97  H   IDS d1710      -5.329 -11.921 -28.533  0.00  0.00     0.097 H 
ATOM     98  H   IDS d1710      -9.496 -12.121 -28.020  0.00  0.00     0.092 H 
ATOM     99  H   IDS d1710      -5.152 -10.667 -26.308  0.00  0.00     0.133 H 
ATOM    100  C4  SGN d1713     -16.234  -1.306 -27.406  0.00  0.00     0.095 C 
ATOM    101  N   SGN d1713     -14.798  -1.434 -23.953  0.00  0.00    -0.210 NA
ATOM    102  O4S SGN d1713     -16.520   0.310 -31.629  0.00  0.00    -0.572 OA
ATOM    103  O4  SGN d1713     -17.259  -2.066 -28.066  0.00  0.00    -0.348 OA
ATOM    104  C2  SGN d1713     -14.892  -1.052 -25.341  0.00  0.00     0.081 C 
ATOM    105  O6  SGN d1713     -15.056   0.188 -29.556  0.00  0.00    -0.254 OA
ATOM    106  O2S SGN d1713     -14.236   0.771 -23.187  0.00  0.00    -0.296 OA
ATOM    107  O3S SGN d1713     -14.398  -1.112 -21.432  0.00  0.00    -0.296 OA
ATOM    108  C6  SGN d1713     -14.871  -1.233 -29.561  0.00  0.00     0.067 C 
ATOM    109  O5S SGN d1713     -14.083   0.451 -31.887  0.00  0.00    -0.572 OA
ATOM    110  C5  SGN d1713     -14.946  -1.740 -28.152  0.00  0.00     0.091 C 
ATOM    111  O3  SGN d1713     -17.277  -0.991 -25.289  0.00  0.00    -0.391 OA
ATOM    112  O1S SGN d1713     -12.563  -0.949 -23.068  0.00  0.00    -0.296 OA
ATOM    113  S1  SGN d1713     -13.943  -0.601 -22.885  0.00  0.00     0.156 S 
ATOM    114  O5  SGN d1713     -13.796  -1.161 -27.495  0.00  0.00    -0.349 OA
ATOM    115  S2  SGN d1713     -15.321   0.849 -30.955  0.00  0.00     0.251 S 
ATOM    116  O6S SGN d1713     -15.362   2.264 -30.667  0.00  0.00    -0.572 OA
ATOM    117  C3  SGN d1713     -16.166  -1.637 -25.918  0.00  0.00     0.083 C 
ATOM    118  C1  SGN d1713     -13.662  -1.521 -26.128  0.00  0.00     0.150 C 
ATOM    119  H   SGN d1713     -16.400  -0.249 -27.442  0.00  0.00     0.091 H 
ATOM    120  H   SGN d1713     -14.417  -2.380 -23.945  0.00  0.00     0.140 HD
ATOM    121  H   SGN d1713     -14.921   0.016 -25.417  0.00  0.00     0.076 H 
ATOM    122  H   SGN d1713     -15.180   0.939 -23.044  0.00  0.00     0.231 HD
ATOM    123  H   SGN d1713     -15.330  -0.887 -21.287  0.00  0.00     0.231 HD
ATOM    124  H   SGN d1713     -13.914  -1.469 -29.976  0.00  0.00     0.080 H 
ATOM    125  H   SGN d1713     -15.635  -1.695 -30.151  0.00  0.00     0.080 H 
ATOM    126  H   SGN d1713     -14.962  -2.811 -28.147  0.00  0.00     0.090 H 
ATOM    127  H   SGN d1713     -18.105  -1.351 -25.644  0.00  0.00     0.210 HD
ATOM    128  H   SGN d1713     -12.267  -0.648 -23.941  0.00  0.00     0.231 HD
ATOM    129  H   SGN d1713     -16.187  -2.696 -25.762  0.00  0.00     0.089 H 
ATOM    130  H   SGN d1713     -12.778  -1.057 -25.742  0.00  0.00     0.131 H 
ATOM    131  C2  SGN d1711      -9.847  -8.646 -29.648  0.00  0.00     0.081 C 
ATOM    132  O4S SGN d1711     -15.727  -8.793 -26.596  0.00  0.00    -0.572 OA
ATOM    133  S1  SGN d1711      -8.314  -8.932 -31.798  0.00  0.00     0.156 S 
ATOM    134  C3  SGN d1711     -10.168  -7.525 -28.643  0.00  0.00     0.083 C 
ATOM    135  O2S SGN d1711      -8.962  -7.907 -32.557  0.00  0.00    -0.296 OA
ATOM    136  O3  SGN d1711     -10.167  -6.244 -29.283  0.00  0.00    -0.391 OA
ATOM    137  N   SGN d1711      -8.526  -8.516 -30.259  0.00  0.00    -0.210 NA
ATOM    138  C4  SGN d1711     -11.550  -7.813 -28.032  0.00  0.00     0.095 C 
ATOM    139  O4  SGN d1711     -11.663  -6.986 -26.853  0.00  0.00    -0.348 OA
ATOM    140  O6S SGN d1711     -16.065 -10.046 -28.572  0.00  0.00    -0.572 OA
ATOM    141  S2  SGN d1711     -15.319  -9.959 -27.386  0.00  0.00     0.251 S 
ATOM    142  O5  SGN d1711     -11.294 -10.171 -28.432  0.00  0.00    -0.349 OA
ATOM    143  C5  SGN d1711     -11.560  -9.226 -27.379  0.00  0.00     0.091 C 
ATOM    144  O1S SGN d1711      -8.863 -10.262 -31.981  0.00  0.00    -0.296 OA
ATOM    145  O6  SGN d1711     -13.850  -9.679 -27.770  0.00  0.00    -0.254 OA
ATOM    146  O5S SGN d1711     -15.286 -11.264 -26.471  0.00  0.00    -0.572 OA
ATOM    147  O3S SGN d1711      -6.731  -8.957 -31.972  0.00  0.00    -0.296 OA
ATOM    148  C1  SGN d1711     -10.002 -10.044 -29.017  0.00  0.00     0.150 C 
ATOM    149  C6  SGN d1711     -12.874  -9.672 -26.735  0.00  0.00     0.067 C 
ATOM    150  H   SGN d1711     -10.570  -8.538 -30.429  0.00  0.00     0.076 H 
ATOM    151  H   SGN d1711      -9.419  -7.502 -27.880  0.00  0.00     0.089 H 
ATOM    152  H   SGN d1711      -9.919  -7.949 -32.406  0.00  0.00     0.231 HD
ATOM    153  H   SGN d1711     -10.838  -6.231 -29.983  0.00  0.00     0.210 HD
ATOM    154  H   SGN d1711      -7.887  -9.089 -29.708  0.00  0.00     0.140 HD
ATOM    155  H   SGN d1711     -12.289  -7.679 -28.794  0.00  0.00     0.091 H 
ATOM    156  H   SGN d1711     -10.840  -9.182 -26.590  0.00  0.00     0.090 H 
ATOM    157  H   SGN d1711      -9.826 -10.232 -31.872  0.00  0.00     0.231 HD
ATOM    158  H   SGN d1711      -6.358  -9.672 -31.433  0.00  0.00     0.231 HD
ATOM    159  H   SGN d1711      -9.917 -10.830 -29.737  0.00  0.00     0.131 H 
ATOM    160  H   SGN d1711     -13.159  -8.987 -25.964  0.00  0.00     0.080 H 
ATOM    161  H   SGN d1711     -12.777 -10.639 -26.289  0.00  0.00     0.080 H 
ENDROOT
TORSDOF 50
ENDMDL
MODEL 34
REMARK VINA RESULT:      -6.3      1.842      2.079
REMARK  0 active torsions:
REMARK  status: ('A' for Active; 'I' for Inactive)
REMARK       I    between atoms: C2_1  and  O2_12 
REMARK       I    between atoms: C1_4  and  O4_37 
REMARK       I    between atoms: O2S_5  and  S1_43 
REMARK       I    between atoms: O2_11  and  C2_82 
REMARK       I    between atoms: O2_11  and  S_80 
REMARK       I    between atoms: O2_12  and  S_23 
REMARK       I    between atoms: C4_13  and  O4_37 
REMARK       I    between atoms: C2_14  and  N_39 
REMARK       I    between atoms: O1_18  and  C1_32 
REMARK       I    between atoms: C4_19  and  O4_53 
REMARK       I    between atoms: O6_20  and  C6_76 
REMARK       I    between atoms: O6_20  and  S2_95 
REMARK       I    between atoms: S1_21  and  N_39 
REMARK       I    between atoms: S1_21  and  O1S_79 
REMARK       I    between atoms: S1_21  and  O2S_30 
REMARK       I    between atoms: S1_21  and  O3S_94 
REMARK       I    between atoms: C3_24  and  O3_26 
REMARK       I    between atoms: C3_25  and  O3_36 
REMARK       I    between atoms: C6_27  and  C5_83 
REMARK       I    between atoms: C4_28  and  O4_51 
REMARK       I    between atoms: N_29  and  C2_40 
REMARK       I    between atoms: N_29  and  S1_71 
REMARK       I    between atoms: C5_31  and  C6_76 
REMARK       I    between atoms: O1S_35  and  S1_43 
REMARK       I    between atoms: O4_38  and  C4_93 
REMARK       I    between atoms: O4_38  and  C1_96 
REMARK       I    between atoms: O6_41  and  C6_54 
REMARK       I    between atoms: O6_41  and  S2_84 
REMARK       I    between atoms: C4_42  and  O4_49 
REMARK       I    between atoms: S1_43  and  N_47 
REMARK       I    between atoms: S1_43  and  O3S_69 
REMARK       I    between atoms: O2S_44  and  S1_71 
REMARK       I    between atoms: N_47  and  C2_56 
REMARK       I    between atoms: O2_48  and  C2_99 
REMARK       I    between atoms: O2_48  and  S_63 
REMARK       I    between atoms: O4_49  and  C1_57 
REMARK       I    between atoms: O4_51  and  C1_102 
REMARK       I    between atoms: O3S_52  and  S1_71 
REMARK       I    between atoms: O4_53  and  C1_105 
REMARK       I    between atoms: C6_54  and  C5_59 
REMARK       I    between atoms: O3_60  and  C3_100 
REMARK       I    between atoms: O1S_61  and  S1_71 
REMARK       I    between atoms: S2_62  and  O6_81 
REMARK       I    between atoms: C5_65  and  C6_89 
REMARK       I    between atoms: C6_67  and  C5_74 
REMARK       I    between atoms: C3_68  and  O3_104 
REMARK       I    between atoms: C3_70  and  O3_85 
REMARK       I    between atoms: C5_77  and  C6_101 
REMARK       I    between atoms: O6_81  and  C6_101 
REMARK       I    between atoms: C3_92  and  O3_98 
ROOT
ATOM      1  C2  IDS d1714     -23.390  -2.406 -28.851  0.00  0.00     0.132 C 
ATOM      2  O3S IDS d1714     -25.996  -1.112 -31.338  0.00  0.00    -0.572 OA
ATOM      3  C1  IDS d1714     -22.758  -1.524 -27.805  0.00  0.00     0.161 C 
ATOM      4  O2S IDS d1714     -24.729  -3.188 -31.369  0.00  0.00    -0.572 OA
ATOM      5  O2  IDS d1714     -24.376  -1.623 -29.544  0.00  0.00    -0.244 OA
ATOM      6  S   IDS d1714     -24.688  -1.738 -31.046  0.00  0.00     0.252 S 
ATOM      7  C6  IDS d1714     -25.083  -1.896 -24.932  0.00  0.00     0.203 C 
ATOM      8  O5  IDS d1714     -23.753  -1.222 -26.811  0.00  0.00    -0.343 OA
ATOM      9  C4  IDS d1714     -24.822  -3.443 -26.966  0.00  0.00    -0.005 C 
ATOM     10  O61 IDS d1714     -25.199  -0.661 -24.742  0.00  0.00    -0.646 OA
ATOM     11  C3  IDS d1714     -24.068  -3.649 -28.287  0.00  0.00     0.069 C 
ATOM     12  C5  IDS d1714     -24.209  -2.361 -26.085  0.00  0.00     0.127 C 
ATOM     13  O3  IDS d1714     -23.101  -4.702 -28.154  0.00  0.00    -0.393 OA
ATOM     14  O1S IDS d1714     -23.551  -1.093 -31.713  0.00  0.00    -0.572 OA
ATOM     15  O62 IDS d1714     -25.659  -2.738 -24.203  0.00  0.00    -0.646 OA
ATOM     16  H   IDS d1714     -22.606  -2.752 -29.491  0.00  0.00     0.097 H 
ATOM     17  H   IDS d1714     -22.402  -0.579 -28.158  0.00  0.00     0.133 H 
ATOM     18  H   IDS d1714     -24.817  -4.365 -26.425  0.00  0.00     0.041 H 
ATOM     19  H   IDS d1714     -25.813  -3.125 -27.213  0.00  0.00     0.041 H 
ATOM     20  H   IDS d1714     -24.828  -3.912 -28.993  0.00  0.00     0.087 H 
ATOM     21  H   IDS d1714     -23.367  -2.869 -25.663  0.00  0.00     0.100 H 
ATOM     22  H   IDS d1714     -22.424  -4.441 -27.511  0.00  0.00     0.210 HD
ATOM     23  O5  SGN d1709      -5.993 -12.439 -25.032  0.00  0.00    -0.350 OA
ATOM     24  O2S SGN d1709      -7.399 -15.492 -21.741  0.00  0.00    -0.296 OA
ATOM     25  O4S SGN d1709      -3.612  -9.434 -28.539  0.00  0.00    -0.572 OA
ATOM     26  O1  SGN d1709      -6.654 -14.686 -25.281  0.00  0.00    -0.369 OA
ATOM     27  O6  SGN d1709      -4.382 -11.176 -27.006  0.00  0.00    -0.254 OA
ATOM     28  C4  SGN d1709      -7.973 -11.492 -25.943  0.00  0.00     0.095 C 
ATOM     29  C5  SGN d1709      -6.545 -11.949 -26.255  0.00  0.00     0.091 C 
ATOM     30  C1  SGN d1709      -6.664 -13.544 -24.429  0.00  0.00     0.147 C 
ATOM     31  O5S SGN d1709      -1.907 -10.999 -27.487  0.00  0.00    -0.572 OA
ATOM     32  O1S SGN d1709      -9.783 -15.553 -21.630  0.00  0.00    -0.296 OA
ATOM     33  S1  SGN d1709      -8.620 -14.766 -21.977  0.00  0.00     0.156 S 
ATOM     34  N   SGN d1709      -8.788 -14.307 -23.494  0.00  0.00    -0.210 NA
ATOM     35  O4  SGN d1709      -8.520 -11.178 -27.235  0.00  0.00    -0.348 OA
ATOM     36  C2  SGN d1709      -8.100 -13.155 -24.064  0.00  0.00     0.081 C 
ATOM     37  C3  SGN d1709      -8.792 -12.607 -25.317  0.00  0.00     0.083 C 
ATOM     38  O3S SGN d1709      -8.581 -13.448 -21.136  0.00  0.00    -0.296 OA
ATOM     39  C6  SGN d1709      -5.689 -10.748 -26.674  0.00  0.00     0.067 C 
ATOM     40  S2  SGN d1709      -3.288 -10.132 -27.296  0.00  0.00     0.251 S 
ATOM     41  O6S SGN d1709      -3.147  -9.283 -26.104  0.00  0.00    -0.572 OA
ATOM     42  O3  SGN d1709     -10.065 -12.105 -24.906  0.00  0.00    -0.391 OA
ATOM     43  H   SGN d1709      -7.407 -16.314 -22.256  0.00  0.00     0.231 HD
ATOM     44  H   SGN d1709      -5.739 -14.917 -25.501  0.00  0.00     0.212 HD
ATOM     45  H   SGN d1709      -7.985 -10.676 -25.252  0.00  0.00     0.091 H 
ATOM     46  H   SGN d1709      -6.557 -12.682 -27.034  0.00  0.00     0.090 H 
ATOM     47  H   SGN d1709      -6.139 -13.805 -23.534  0.00  0.00     0.131 H 
ATOM     48  H   SGN d1709      -9.792 -16.366 -22.159  0.00  0.00     0.231 HD
ATOM     49  H   SGN d1709      -9.784 -14.131 -23.625  0.00  0.00     0.140 HD
ATOM     50  H   SGN d1709      -8.114 -12.386 -23.319  0.00  0.00     0.076 H 
ATOM     51  H   SGN d1709      -8.898 -13.377 -26.051  0.00  0.00     0.089 H 
ATOM     52  H   SGN d1709      -8.479 -13.666 -20.196  0.00  0.00     0.231 HD
ATOM     53  H   SGN d1709      -6.134 -10.276 -27.525  0.00  0.00     0.080 H 
ATOM     54  H   SGN d1709      -5.636 -10.055 -25.861  0.00  0.00     0.080 H 
ATOM     55  H   SGN d1709      -9.938 -11.409 -24.241  0.00  0.00     0.210 HD
ATOM     56  O1S IDS d1712     -20.435  -6.824 -24.335  0.00  0.00    -0.572 OA
ATOM     57  O2S IDS d1712     -18.277  -7.440 -23.332  0.00  0.00    -0.572 OA
ATOM     58  O61 IDS d1712     -15.191  -1.462 -27.139  0.00  0.00    -0.646 OA
ATOM     59  O5  IDS d1712     -16.782  -4.652 -27.386  0.00  0.00    -0.340 OA
ATOM     60  C4  IDS d1712     -16.490  -3.384 -25.352  0.00  0.00     0.103 C 
ATOM     61  O2  IDS d1712     -18.433  -5.912 -25.185  0.00  0.00    -0.244 OA
ATOM     62  O4  IDS d1712     -17.877  -3.026 -25.346  0.00  0.00    -0.348 OA
ATOM     63  C1  IDS d1712     -16.685  -5.939 -26.794  0.00  0.00     0.161 C 
ATOM     64  S   IDS d1712     -19.111  -6.371 -23.889  0.00  0.00     0.252 S 
ATOM     65  C5  IDS d1712     -15.974  -3.641 -26.773  0.00  0.00     0.152 C 
ATOM     66  O62 IDS d1712     -16.548  -2.299 -28.649  0.00  0.00    -0.646 OA
ATOM     67  O3S IDS d1712     -19.170  -5.178 -22.993  0.00  0.00    -0.572 OA
ATOM     68  C6  IDS d1712     -15.908  -2.385 -27.586  0.00  0.00     0.206 C 
ATOM     69  C3  IDS d1712     -16.351  -4.684 -24.572  0.00  0.00     0.094 C 
ATOM     70  O3  IDS d1712     -14.959  -4.978 -24.379  0.00  0.00    -0.390 OA
ATOM     71  C2  IDS d1712     -17.005  -5.872 -25.323  0.00  0.00     0.134 C 
ATOM     72  H   IDS d1712     -15.927  -2.580 -24.924  0.00  0.00     0.092 H 
ATOM     73  H   IDS d1712     -17.385  -6.574 -27.294  0.00  0.00     0.133 H 
ATOM     74  H   IDS d1712     -14.965  -3.994 -26.722  0.00  0.00     0.104 H 
ATOM     75  H   IDS d1712     -16.848  -4.556 -23.634  0.00  0.00     0.091 H 
ATOM     76  H   IDS d1712     -14.530  -5.089 -25.242  0.00  0.00     0.210 HD
ATOM     77  H   IDS d1712     -16.566  -6.720 -24.839  0.00  0.00     0.097 H 
ATOM     78  O62 IDS d1710     -12.398  -9.679 -25.308  0.00  0.00    -0.646 OA
ATOM     79  O2  IDS d1710      -9.387  -8.146 -29.056  0.00  0.00    -0.244 OA
ATOM     80  O1S IDS d1710      -8.645  -5.791 -29.215  0.00  0.00    -0.572 OA
ATOM     81  C3  IDS d1710     -10.415 -10.287 -29.498  0.00  0.00     0.094 C 
ATOM     82  O3  IDS d1710     -10.105 -11.661 -29.734  0.00  0.00    -0.390 OA
ATOM     83  O4  IDS d1710     -12.204  -8.861 -28.649  0.00  0.00    -0.348 OA
ATOM     84  O5  IDS d1710     -10.298  -9.726 -26.715  0.00  0.00    -0.340 OA
ATOM     85  C6  IDS d1710     -12.485 -10.537 -26.223  0.00  0.00     0.206 C 
ATOM     86  O2S IDS d1710      -7.239  -7.458 -28.114  0.00  0.00    -0.572 OA
ATOM     87  C5  IDS d1710     -11.340 -10.595 -27.201  0.00  0.00     0.152 C 
ATOM     88  S   IDS d1710      -8.164  -7.175 -29.230  0.00  0.00     0.252 S 
ATOM     89  C2  IDS d1710      -9.214  -9.560 -28.876  0.00  0.00     0.134 C 
ATOM     90  O3S IDS d1710      -7.604  -7.587 -30.521  0.00  0.00    -0.572 OA
ATOM     91  C4  IDS d1710     -11.684 -10.197 -28.644  0.00  0.00     0.103 C 
ATOM     92  C1  IDS d1710      -9.038  -9.844 -27.375  0.00  0.00     0.161 C 
ATOM     93  O61 IDS d1710     -13.461 -11.306 -26.365  0.00  0.00    -0.646 OA
ATOM     94  H   IDS d1710     -10.614  -9.789 -30.423  0.00  0.00     0.091 H 
ATOM     95  H   IDS d1710      -9.928 -12.103 -28.889  0.00  0.00     0.210 HD
ATOM     96  H   IDS d1710     -11.043 -11.621 -27.253  0.00  0.00     0.104 H 
ATOM     97  H   IDS d1710      -8.338  -9.923 -29.371  0.00  0.00     0.097 H 
ATOM     98  H   IDS d1710     -12.424 -10.855 -29.050  0.00  0.00     0.092 H 
ATOM     99  H   IDS d1710      -8.361  -9.144 -26.933  0.00  0.00     0.133 H 
ATOM    100  C4  SGN d1713     -20.762  -1.551 -26.473  0.00  0.00     0.095 C 
ATOM    101  N   SGN d1713     -19.330  -2.169 -23.072  0.00  0.00    -0.210 NA
ATOM    102  O4S SGN d1713     -21.290   0.839 -30.285  0.00  0.00    -0.572 OA
ATOM    103  O4  SGN d1713     -21.656  -2.305 -27.308  0.00  0.00    -0.348 OA
ATOM    104  C2  SGN d1713     -19.479  -1.528 -24.356  0.00  0.00     0.081 C 
ATOM    105  O6  SGN d1713     -19.829   0.516 -28.233  0.00  0.00    -0.254 OA
ATOM    106  O2S SGN d1713     -19.118  -0.111 -21.855  0.00  0.00    -0.296 OA
ATOM    107  O3S SGN d1713     -18.989  -2.318 -20.526  0.00  0.00    -0.296 OA
ATOM    108  C6  SGN d1713     -19.425  -0.829 -28.521  0.00  0.00     0.067 C 
ATOM    109  O5S SGN d1713     -18.904   1.400 -30.428  0.00  0.00    -0.572 OA
ATOM    110  C5  SGN d1713     -19.422  -1.621 -27.248  0.00  0.00     0.091 C 
ATOM    111  O3  SGN d1713     -21.845  -1.842 -24.372  0.00  0.00    -0.391 OA
ATOM    112  O1S SGN d1713     -17.199  -1.544 -22.032  0.00  0.00    -0.296 OA
ATOM    113  S1  SGN d1713     -18.617  -1.455 -21.829  0.00  0.00     0.156 S 
ATOM    114  O5  SGN d1713     -18.377  -1.023 -26.449  0.00  0.00    -0.349 OA
ATOM    115  S2  SGN d1713     -20.190   1.403 -29.475  0.00  0.00     0.251 S 
ATOM    116  O6S SGN d1713     -20.452   2.706 -28.907  0.00  0.00    -0.572 OA
ATOM    117  C3  SGN d1713     -20.647  -2.168 -25.082  0.00  0.00     0.083 C 
ATOM    118  C1  SGN d1713     -18.191  -1.632 -25.180  0.00  0.00     0.150 C 
ATOM    119  H   SGN d1713     -21.091  -0.548 -26.298  0.00  0.00     0.091 H 
ATOM    120  H   SGN d1713     -18.806  -3.028 -23.244  0.00  0.00     0.140 HD
ATOM    121  H   SGN d1713     -19.674  -0.485 -24.213  0.00  0.00     0.076 H 
ATOM    122  H   SGN d1713     -20.077  -0.121 -21.713  0.00  0.00     0.231 HD
ATOM    123  H   SGN d1713     -19.944  -2.272 -20.370  0.00  0.00     0.231 HD
ATOM    124  H   SGN d1713     -18.441  -0.825 -28.943  0.00  0.00     0.080 H 
ATOM    125  H   SGN d1713     -20.106  -1.270 -29.218  0.00  0.00     0.080 H 
ATOM    126  H   SGN d1713     -19.271  -2.659 -27.462  0.00  0.00     0.090 H 
ATOM    127  H   SGN d1713     -22.606  -2.242 -24.821  0.00  0.00     0.210 HD
ATOM    128  H   SGN d1713     -16.952  -1.028 -22.816  0.00  0.00     0.231 HD
ATOM    129  H   SGN d1713     -20.502  -3.226 -25.146  0.00  0.00     0.089 H 
ATOM    130  H   SGN d1713     -17.390  -1.129 -24.678  0.00  0.00     0.131 H 
ATOM    131  C2  SGN d1711     -13.308  -7.213 -29.947  0.00  0.00     0.081 C 
ATOM    132  O4S SGN d1711     -19.099  -8.878 -27.189  0.00  0.00    -0.572 OA
ATOM    133  S1  SGN d1711     -11.747  -6.813 -32.058  0.00  0.00     0.156 S 
ATOM    134  C3  SGN d1711     -13.802  -6.386 -28.747  0.00  0.00     0.083 C 
ATOM    135  O2S SGN d1711     -12.545  -5.764 -32.613  0.00  0.00    -0.296 OA
ATOM    136  O3  SGN d1711     -13.999  -5.015 -29.111  0.00  0.00    -0.391 OA
ATOM    137  N   SGN d1711     -12.023  -6.761 -30.474  0.00  0.00    -0.210 NA
ATOM    138  C4  SGN d1711     -15.122  -7.001 -28.253  0.00  0.00     0.095 C 
ATOM    139  O4  SGN d1711     -15.365  -6.461 -26.936  0.00  0.00    -0.348 OA
ATOM    140  O6S SGN d1711     -19.234  -9.732 -29.388  0.00  0.00    -0.572 OA
ATOM    141  S2  SGN d1711     -18.513  -9.781 -28.185  0.00  0.00     0.251 S 
ATOM    142  O5  SGN d1711     -14.502  -9.157 -29.117  0.00  0.00    -0.349 OA
ATOM    143  C5  SGN d1711     -14.914  -8.502 -27.903  0.00  0.00     0.091 C 
ATOM    144  O1S SGN d1711     -12.082  -8.144 -32.526  0.00  0.00    -0.296 OA
ATOM    145  O6  SGN d1711     -17.105  -9.208 -28.454  0.00  0.00    -0.254 OA
ATOM    146  O5S SGN d1711     -18.279 -11.226 -27.554  0.00  0.00    -0.572 OA
ATOM    147  O3S SGN d1711     -10.179  -6.561 -32.180  0.00  0.00    -0.296 OA
ATOM    148  C1  SGN d1711     -13.245  -8.718 -29.620  0.00  0.00     0.150 C 
ATOM    149  C6  SGN d1711     -16.144  -9.266 -27.408  0.00  0.00     0.067 C 
ATOM    150  H   SGN d1711     -14.038  -7.057 -30.714  0.00  0.00     0.076 H 
ATOM    151  H   SGN d1711     -13.066  -6.407 -27.969  0.00  0.00     0.089 H 
ATOM    152  H   SGN d1711     -13.484  -5.981 -32.506  0.00  0.00     0.231 HD
ATOM    153  H   SGN d1711     -14.662  -4.960 -29.817  0.00  0.00     0.210 HD
ATOM    154  H   SGN d1711     -11.303  -7.331 -30.030  0.00  0.00     0.140 HD
ATOM    155  H   SGN d1711     -15.872  -6.826 -28.996  0.00  0.00     0.091 H 
ATOM    156  H   SGN d1711     -14.210  -8.513 -27.097  0.00  0.00     0.090 H 
ATOM    157  H   SGN d1711     -13.038  -8.284 -32.446  0.00  0.00     0.231 HD
ATOM    158  H   SGN d1711      -9.700  -7.306 -31.786  0.00  0.00     0.231 HD
ATOM    159  H   SGN d1711     -13.038  -9.317 -30.482  0.00  0.00     0.131 H 
ATOM    160  H   SGN d1711     -16.533  -8.807 -26.523  0.00  0.00     0.080 H 
ATOM    161  H   SGN d1711     -15.898 -10.278 -27.165  0.00  0.00     0.080 H 
ENDROOT
TORSDOF 50
ENDMDL
MODEL 35
REMARK VINA RESULT:      -6.2      3.738     15.999
REMARK  0 active torsions:
REMARK  status: ('A' for Active; 'I' for Inactive)
REMARK       I    between atoms: C2_1  and  O2_12 
REMARK       I    between atoms: C1_4  and  O4_37 
REMARK       I    between atoms: O2S_5  and  S1_43 
REMARK       I    between atoms: O2_11  and  C2_82 
REMARK       I    between atoms: O2_11  and  S_80 
REMARK       I    between atoms: O2_12  and  S_23 
REMARK       I    between atoms: C4_13  and  O4_37 
REMARK       I    between atoms: C2_14  and  N_39 
REMARK       I    between atoms: O1_18  and  C1_32 
REMARK       I    between atoms: C4_19  and  O4_53 
REMARK       I    between atoms: O6_20  and  C6_76 
REMARK       I    between atoms: O6_20  and  S2_95 
REMARK       I    between atoms: S1_21  and  N_39 
REMARK       I    between atoms: S1_21  and  O1S_79 
REMARK       I    between atoms: S1_21  and  O2S_30 
REMARK       I    between atoms: S1_21  and  O3S_94 
REMARK       I    between atoms: C3_24  and  O3_26 
REMARK       I    between atoms: C3_25  and  O3_36 
REMARK       I    between atoms: C6_27  and  C5_83 
REMARK       I    between atoms: C4_28  and  O4_51 
REMARK       I    between atoms: N_29  and  C2_40 
REMARK       I    between atoms: N_29  and  S1_71 
REMARK       I    between atoms: C5_31  and  C6_76 
REMARK       I    between atoms: O1S_35  and  S1_43 
REMARK       I    between atoms: O4_38  and  C4_93 
REMARK       I    between atoms: O4_38  and  C1_96 
REMARK       I    between atoms: O6_41  and  C6_54 
REMARK       I    between atoms: O6_41  and  S2_84 
REMARK       I    between atoms: C4_42  and  O4_49 
REMARK       I    between atoms: S1_43  and  N_47 
REMARK       I    between atoms: S1_43  and  O3S_69 
REMARK       I    between atoms: O2S_44  and  S1_71 
REMARK       I    between atoms: N_47  and  C2_56 
REMARK       I    between atoms: O2_48  and  C2_99 
REMARK       I    between atoms: O2_48  and  S_63 
REMARK       I    between atoms: O4_49  and  C1_57 
REMARK       I    between atoms: O4_51  and  C1_102 
REMARK       I    between atoms: O3S_52  and  S1_71 
REMARK       I    between atoms: O4_53  and  C1_105 
REMARK       I    between atoms: C6_54  and  C5_59 
REMARK       I    between atoms: O3_60  and  C3_100 
REMARK       I    between atoms: O1S_61  and  S1_71 
REMARK       I    between atoms: S2_62  and  O6_81 
REMARK       I    between atoms: C5_65  and  C6_89 
REMARK       I    between atoms: C6_67  and  C5_74 
REMARK       I    between atoms: C3_68  and  O3_104 
REMARK       I    between atoms: C3_70  and  O3_85 
REMARK       I    between atoms: C5_77  and  C6_101 
REMARK       I    between atoms: O6_81  and  C6_101 
REMARK       I    between atoms: C3_92  and  O3_98 
ROOT
ATOM      1  C2  IDS d1714      -1.901 -11.023 -25.704  0.00  0.00     0.132 C 
ATOM      2  O3S IDS d1714       1.625 -10.379 -24.363  0.00  0.00    -0.572 OA
ATOM      3  C1  IDS d1714      -2.168 -11.397 -27.139  0.00  0.00     0.161 C 
ATOM      4  O2S IDS d1714      -0.528  -9.860 -23.358  0.00  0.00    -0.572 OA
ATOM      5  O2  IDS d1714      -0.477 -10.945 -25.532  0.00  0.00    -0.244 OA
ATOM      6  S   IDS d1714       0.241  -9.928 -24.627  0.00  0.00     0.252 S 
ATOM      7  C6  IDS d1714      -1.969 -15.106 -27.051  0.00  0.00     0.203 C 
ATOM      8  O5  IDS d1714      -1.699 -12.741 -27.348  0.00  0.00    -0.343 OA
ATOM      9  C4  IDS d1714      -2.337 -13.494 -25.085  0.00  0.00    -0.005 C 
ATOM     10  O61 IDS d1714      -1.180 -15.183 -28.024  0.00  0.00    -0.646 OA
ATOM     11  C3  IDS d1714      -2.458 -12.016 -24.690  0.00  0.00     0.069 C 
ATOM     12  C5  IDS d1714      -2.400 -13.723 -26.589  0.00  0.00     0.127 C 
ATOM     13  O3  IDS d1714      -3.825 -11.684 -24.398  0.00  0.00    -0.393 OA
ATOM     14  O1S IDS d1714       0.151  -8.656 -25.353  0.00  0.00    -0.572 OA
ATOM     15  O62 IDS d1714      -2.403 -16.125 -26.464  0.00  0.00    -0.646 OA
ATOM     16  H   IDS d1714      -2.396 -10.092 -25.521  0.00  0.00     0.097 H 
ATOM     17  H   IDS d1714      -1.668 -10.796 -27.869  0.00  0.00     0.133 H 
ATOM     18  H   IDS d1714      -3.137 -14.035 -24.625  0.00  0.00     0.041 H 
ATOM     19  H   IDS d1714      -1.378 -13.833 -24.753  0.00  0.00     0.041 H 
ATOM     20  H   IDS d1714      -1.844 -11.918 -23.819  0.00  0.00     0.087 H 
ATOM     21  H   IDS d1714      -3.449 -13.634 -26.784  0.00  0.00     0.100 H 
ATOM     22  H   IDS d1714      -4.360 -11.780 -25.201  0.00  0.00     0.210 HD
ATOM     23  O5  SGN d1709     -21.370  -5.179 -27.884  0.00  0.00    -0.350 OA
ATOM     24  O2S SGN d1709     -23.650  -9.004 -26.366  0.00  0.00    -0.296 OA
ATOM     25  O4S SGN d1709     -19.686  -0.622 -29.726  0.00  0.00    -0.572 OA
ATOM     26  O1  SGN d1709     -22.260  -5.624 -25.750  0.00  0.00    -0.369 OA
ATOM     27  O6  SGN d1709     -20.875  -2.507 -28.720  0.00  0.00    -0.254 OA
ATOM     28  C4  SGN d1709     -19.093  -5.483 -27.275  0.00  0.00     0.095 C 
ATOM     29  C5  SGN d1709     -20.215  -4.457 -27.455  0.00  0.00     0.091 C 
ATOM     30  C1  SGN d1709     -21.858  -6.184 -26.996  0.00  0.00     0.147 C 
ATOM     31  O5S SGN d1709     -22.227  -0.663 -29.798  0.00  0.00    -0.572 OA
ATOM     32  O1S SGN d1709     -22.141 -10.482 -25.255  0.00  0.00    -0.296 OA
ATOM     33  S1  SGN d1709     -22.282  -9.437 -26.244  0.00  0.00     0.156 S 
ATOM     34  N   SGN d1709     -21.289  -8.257 -25.839  0.00  0.00    -0.210 NA
ATOM     35  O4  SGN d1709     -18.027  -4.723 -26.682  0.00  0.00    -0.348 OA
ATOM     36  C2  SGN d1709     -20.795  -7.266 -26.786  0.00  0.00     0.081 C 
ATOM     37  C3  SGN d1709     -19.498  -6.593 -26.321  0.00  0.00     0.083 C 
ATOM     38  O3S SGN d1709     -21.797  -9.939 -27.643  0.00  0.00    -0.296 OA
ATOM     39  C6  SGN d1709     -19.859  -3.483 -28.584  0.00  0.00     0.067 C 
ATOM     40  S2  SGN d1709     -20.829  -1.517 -29.900  0.00  0.00     0.251 S 
ATOM     41  O6S SGN d1709     -20.845  -2.298 -31.145  0.00  0.00    -0.572 OA
ATOM     42  O3  SGN d1709     -18.490  -7.604 -26.292  0.00  0.00    -0.391 OA
ATOM     43  H   SGN d1709     -23.967  -8.688 -25.505  0.00  0.00     0.231 HD
ATOM     44  H   SGN d1709     -22.932  -4.942 -25.903  0.00  0.00     0.212 HD
ATOM     45  H   SGN d1709     -18.834  -5.953 -28.201  0.00  0.00     0.091 H 
ATOM     46  H   SGN d1709     -20.370  -3.920 -26.542  0.00  0.00     0.090 H 
ATOM     47  H   SGN d1709     -22.722  -6.631 -27.443  0.00  0.00     0.131 H 
ATOM     48  H   SGN d1709     -22.447 -10.156 -24.394  0.00  0.00     0.231 HD
ATOM     49  H   SGN d1709     -20.462  -8.710 -25.450  0.00  0.00     0.140 HD
ATOM     50  H   SGN d1709     -20.585  -7.785 -27.697  0.00  0.00     0.076 H 
ATOM     51  H   SGN d1709     -19.632  -6.152 -25.356  0.00  0.00     0.089 H 
ATOM     52  H   SGN d1709     -22.369 -10.663 -27.944  0.00  0.00     0.231 HD
ATOM     53  H   SGN d1709     -18.932  -3.000 -28.357  0.00  0.00     0.080 H 
ATOM     54  H   SGN d1709     -19.770  -4.027 -29.501  0.00  0.00     0.080 H 
ATOM     55  H   SGN d1709     -18.390  -7.986 -27.179  0.00  0.00     0.210 HD
ATOM     56  O1S IDS d1712      -8.435 -13.464 -25.729  0.00  0.00    -0.572 OA
ATOM     57  O2S IDS d1712     -10.656 -13.093 -26.715  0.00  0.00    -0.572 OA
ATOM     58  O61 IDS d1712      -7.436  -7.539 -31.021  0.00  0.00    -0.646 OA
ATOM     59  O5  IDS d1712      -8.306  -8.634 -27.733  0.00  0.00    -0.340 OA
ATOM     60  C4  IDS d1712      -8.485  -9.957 -29.745  0.00  0.00     0.103 C 
ATOM     61  O2  IDS d1712      -8.861 -11.512 -26.982  0.00  0.00    -0.244 OA
ATOM     62  O4  IDS d1712      -7.334 -10.724 -29.372  0.00  0.00    -0.348 OA
ATOM     63  C1  IDS d1712      -9.420  -9.204 -27.061  0.00  0.00     0.161 C 
ATOM     64  S   IDS d1712      -9.203 -13.003 -26.893  0.00  0.00     0.252 S 
ATOM     65  C5  IDS d1712      -8.441  -8.541 -29.156  0.00  0.00     0.152 C 
ATOM     66  O62 IDS d1712      -6.477  -7.205 -29.074  0.00  0.00    -0.646 OA
ATOM     67  O3S IDS d1712      -8.754 -13.622 -28.176  0.00  0.00    -0.572 OA
ATOM     68  C6  IDS d1712      -7.371  -7.701 -29.782  0.00  0.00     0.206 C 
ATOM     69  C3  IDS d1712      -9.707 -10.655 -29.166  0.00  0.00     0.094 C 
ATOM     70  O3  IDS d1712     -10.897 -10.038 -29.678  0.00  0.00    -0.390 OA
ATOM     71  C2  IDS d1712      -9.735 -10.568 -27.618  0.00  0.00     0.134 C 
ATOM     72  H   IDS d1712      -8.515  -9.881 -30.812  0.00  0.00     0.092 H 
ATOM     73  H   IDS d1712      -9.162  -9.281 -26.025  0.00  0.00     0.133 H 
ATOM     74  H   IDS d1712      -9.359  -8.038 -29.381  0.00  0.00     0.104 H 
ATOM     75  H   IDS d1712      -9.658 -11.686 -29.450  0.00  0.00     0.091 H 
ATOM     76  H   IDS d1712     -10.920  -9.107 -29.409  0.00  0.00     0.210 HD
ATOM     77  H   IDS d1712     -10.754 -10.802 -27.392  0.00  0.00     0.097 H 
ATOM     78  O62 IDS d1710     -15.234  -8.351 -26.873  0.00  0.00    -0.646 OA
ATOM     79  O2  IDS d1710     -14.814  -3.405 -27.778  0.00  0.00    -0.244 OA
ATOM     80  O1S IDS d1710     -13.749  -2.572 -29.852  0.00  0.00    -0.572 OA
ATOM     81  C3  IDS d1710     -15.317  -3.893 -25.467  0.00  0.00     0.094 C 
ATOM     82  O3  IDS d1710     -16.306  -3.683 -24.457  0.00  0.00    -0.390 OA
ATOM     83  O4  IDS d1710     -13.547  -5.449 -26.098  0.00  0.00    -0.348 OA
ATOM     84  O5  IDS d1710     -16.119  -6.003 -27.191  0.00  0.00    -0.340 OA
ATOM     85  C6  IDS d1710     -15.367  -7.763 -25.770  0.00  0.00     0.206 C 
ATOM     86  O2S IDS d1710     -16.175  -2.838 -29.728  0.00  0.00    -0.572 OA
ATOM     87  C5  IDS d1710     -15.787  -6.318 -25.825  0.00  0.00     0.152 C 
ATOM     88  S   IDS d1710     -14.944  -2.442 -29.013  0.00  0.00     0.252 S 
ATOM     89  C2  IDS d1710     -15.898  -3.614 -26.861  0.00  0.00     0.134 C 
ATOM     90  O3S IDS d1710     -15.079  -1.124 -28.385  0.00  0.00    -0.572 OA
ATOM     91  C4  IDS d1710     -14.744  -5.307 -25.323  0.00  0.00     0.103 C 
ATOM     92  C1  IDS d1710     -16.779  -4.755 -27.396  0.00  0.00     0.161 C 
ATOM     93  O61 IDS d1710     -15.149  -8.304 -24.663  0.00  0.00    -0.646 OA
ATOM     94  H   IDS d1710     -14.508  -3.204 -25.341  0.00  0.00     0.091 H 
ATOM     95  H   IDS d1710     -17.034  -4.313 -24.580  0.00  0.00     0.210 HD
ATOM     96  H   IDS d1710     -16.618  -6.222 -25.156  0.00  0.00     0.104 H 
ATOM     97  H   IDS d1710     -16.521  -2.748 -26.772  0.00  0.00     0.097 H 
ATOM     98  H   IDS d1710     -14.512  -5.485 -24.294  0.00  0.00     0.092 H 
ATOM     99  H   IDS d1710     -16.956  -4.637 -28.444  0.00  0.00     0.133 H 
ATOM    100  C4  SGN d1713      -4.034 -11.317 -28.646  0.00  0.00     0.095 C 
ATOM    101  N   SGN d1713      -6.703 -13.301 -30.362  0.00  0.00    -0.210 NA
ATOM    102  O4S SGN d1713      -0.683  -8.272 -28.522  0.00  0.00    -0.572 OA
ATOM    103  O4  SGN d1713      -3.593 -11.250 -27.280  0.00  0.00    -0.348 OA
ATOM    104  C2  SGN d1713      -5.697 -12.278 -30.208  0.00  0.00     0.081 C 
ATOM    105  O6  SGN d1713      -2.660  -9.116 -29.874  0.00  0.00    -0.254 OA
ATOM    106  O2S SGN d1713      -6.008 -13.920 -32.575  0.00  0.00    -0.296 OA
ATOM    107  O3S SGN d1713      -8.014 -15.173 -31.543  0.00  0.00    -0.296 OA
ATOM    108  C6  SGN d1713      -3.673  -8.807 -28.909  0.00  0.00     0.067 C 
ATOM    109  O5S SGN d1713      -1.863  -6.708 -30.002  0.00  0.00    -0.572 OA
ATOM    110  C5  SGN d1713      -4.672  -9.923 -28.873  0.00  0.00     0.091 C 
ATOM    111  O3  SGN d1713      -4.312 -13.673 -28.856  0.00  0.00    -0.391 OA
ATOM    112  O1S SGN d1713      -8.131 -12.831 -32.299  0.00  0.00    -0.296 OA
ATOM    113  S1  SGN d1713      -7.208 -13.807 -31.795  0.00  0.00     0.156 S 
ATOM    114  O5  SGN d1713      -5.299  -9.892 -30.175  0.00  0.00    -0.349 OA
ATOM    115  S2  SGN d1713      -1.372  -8.221 -29.828  0.00  0.00     0.251 S 
ATOM    116  O6S SGN d1713      -0.590  -8.680 -30.954  0.00  0.00    -0.572 OA
ATOM    117  C3  SGN d1713      -5.044 -12.443 -28.850  0.00  0.00     0.083 C 
ATOM    118  C1  SGN d1713      -6.303 -10.878 -30.363  0.00  0.00     0.150 C 
ATOM    119  H   SGN d1713      -3.245 -11.532 -29.336  0.00  0.00     0.091 H 
ATOM    120  H   SGN d1713      -7.532 -12.958 -29.875  0.00  0.00     0.140 HD
ATOM    121  H   SGN d1713      -4.959 -12.384 -30.977  0.00  0.00     0.076 H 
ATOM    122  H   SGN d1713      -5.430 -14.592 -32.182  0.00  0.00     0.231 HD
ATOM    123  H   SGN d1713      -7.408 -15.848 -31.201  0.00  0.00     0.231 HD
ATOM    124  H   SGN d1713      -4.162  -7.895 -29.183  0.00  0.00     0.080 H 
ATOM    125  H   SGN d1713      -3.227  -8.691 -27.943  0.00  0.00     0.080 H 
ATOM    126  H   SGN d1713      -5.350  -9.784 -28.056  0.00  0.00     0.090 H 
ATOM    127  H   SGN d1713      -3.885 -13.799 -27.994  0.00  0.00     0.210 HD
ATOM    128  H   SGN d1713      -7.664 -11.995 -32.459  0.00  0.00     0.231 HD
ATOM    129  H   SGN d1713      -5.788 -12.431 -28.081  0.00  0.00     0.089 H 
ATOM    130  H   SGN d1713      -6.713 -10.760 -31.345  0.00  0.00     0.131 H 
ATOM    131  C2  SGN d1711     -11.258  -4.851 -26.259  0.00  0.00     0.081 C 
ATOM    132  O4S SGN d1711      -9.524 -10.627 -23.513  0.00  0.00    -0.572 OA
ATOM    133  S1  SGN d1711     -11.227  -2.197 -26.353  0.00  0.00     0.156 S 
ATOM    134  C3  SGN d1711     -10.869  -6.009 -27.196  0.00  0.00     0.083 C 
ATOM    135  O2S SGN d1711      -9.812  -2.090 -26.532  0.00  0.00    -0.296 OA
ATOM    136  O3  SGN d1711      -9.725  -5.670 -27.987  0.00  0.00    -0.391 OA
ATOM    137  N   SGN d1711     -11.624  -3.628 -26.971  0.00  0.00    -0.210 NA
ATOM    138  C4  SGN d1711     -10.571  -7.244 -26.330  0.00  0.00     0.095 C 
ATOM    139  O4  SGN d1711     -10.577  -8.385 -27.216  0.00  0.00    -0.348 OA
ATOM    140  O6S SGN d1711      -9.123  -9.031 -21.816  0.00  0.00    -0.572 OA
ATOM    141  S2  SGN d1711     -10.102  -9.589 -22.653  0.00  0.00     0.251 S 
ATOM    142  O5  SGN d1711     -12.020  -6.439 -24.588  0.00  0.00    -0.349 OA
ATOM    143  C5  SGN d1711     -11.800  -7.581 -25.438  0.00  0.00     0.091 C 
ATOM    144  O1S SGN d1711     -11.667  -2.169 -24.972  0.00  0.00    -0.296 OA
ATOM    145  O6  SGN d1711     -10.573  -8.489 -23.629  0.00  0.00    -0.254 OA
ATOM    146  O5S SGN d1711     -11.421 -10.130 -21.941  0.00  0.00    -0.572 OA
ATOM    147  O3S SGN d1711     -12.065  -1.160 -27.224  0.00  0.00    -0.296 OA
ATOM    148  C1  SGN d1711     -12.385  -5.254 -25.287  0.00  0.00     0.150 C 
ATOM    149  C6  SGN d1711     -11.657  -8.782 -24.501  0.00  0.00     0.067 C 
ATOM    150  H   SGN d1711     -10.375  -4.638 -25.695  0.00  0.00     0.076 H 
ATOM    151  H   SGN d1711     -11.675  -6.212 -27.870  0.00  0.00     0.089 H 
ATOM    152  H   SGN d1711      -9.365  -2.746 -25.975  0.00  0.00     0.231 HD
ATOM    153  H   SGN d1711      -8.974  -5.480 -27.404  0.00  0.00     0.210 HD
ATOM    154  H   SGN d1711     -12.639  -3.636 -27.070  0.00  0.00     0.140 HD
ATOM    155  H   SGN d1711      -9.671  -7.060 -25.781  0.00  0.00     0.091 H 
ATOM    156  H   SGN d1711     -12.589  -7.824 -26.117  0.00  0.00     0.090 H 
ATOM    157  H   SGN d1711     -11.149  -2.804 -24.454  0.00  0.00     0.231 HD
ATOM    158  H   SGN d1711     -13.011  -1.287 -27.055  0.00  0.00     0.231 HD
ATOM    159  H   SGN d1711     -12.568  -4.508 -24.542  0.00  0.00     0.131 H 
ATOM    160  H   SGN d1711     -11.449  -9.667 -25.064  0.00  0.00     0.080 H 
ATOM    161  H   SGN d1711     -12.559  -8.953 -23.951  0.00  0.00     0.080 H 
ENDROOT
TORSDOF 50
ENDMDL
MODEL 36
REMARK VINA RESULT:      -6.1      5.353     13.666
REMARK  0 active torsions:
REMARK  status: ('A' for Active; 'I' for Inactive)
REMARK       I    between atoms: C2_1  and  O2_12 
REMARK       I    between atoms: C1_4  and  O4_37 
REMARK       I    between atoms: O2S_5  and  S1_43 
REMARK       I    between atoms: O2_11  and  C2_82 
REMARK       I    between atoms: O2_11  and  S_80 
REMARK       I    between atoms: O2_12  and  S_23 
REMARK       I    between atoms: C4_13  and  O4_37 
REMARK       I    between atoms: C2_14  and  N_39 
REMARK       I    between atoms: O1_18  and  C1_32 
REMARK       I    between atoms: C4_19  and  O4_53 
REMARK       I    between atoms: O6_20  and  C6_76 
REMARK       I    between atoms: O6_20  and  S2_95 
REMARK       I    between atoms: S1_21  and  N_39 
REMARK       I    between atoms: S1_21  and  O1S_79 
REMARK       I    between atoms: S1_21  and  O2S_30 
REMARK       I    between atoms: S1_21  and  O3S_94 
REMARK       I    between atoms: C3_24  and  O3_26 
REMARK       I    between atoms: C3_25  and  O3_36 
REMARK       I    between atoms: C6_27  and  C5_83 
REMARK       I    between atoms: C4_28  and  O4_51 
REMARK       I    between atoms: N_29  and  C2_40 
REMARK       I    between atoms: N_29  and  S1_71 
REMARK       I    between atoms: C5_31  and  C6_76 
REMARK       I    between atoms: O1S_35  and  S1_43 
REMARK       I    between atoms: O4_38  and  C4_93 
REMARK       I    between atoms: O4_38  and  C1_96 
REMARK       I    between atoms: O6_41  and  C6_54 
REMARK       I    between atoms: O6_41  and  S2_84 
REMARK       I    between atoms: C4_42  and  O4_49 
REMARK       I    between atoms: S1_43  and  N_47 
REMARK       I    between atoms: S1_43  and  O3S_69 
REMARK       I    between atoms: O2S_44  and  S1_71 
REMARK       I    between atoms: N_47  and  C2_56 
REMARK       I    between atoms: O2_48  and  C2_99 
REMARK       I    between atoms: O2_48  and  S_63 
REMARK       I    between atoms: O4_49  and  C1_57 
REMARK       I    between atoms: O4_51  and  C1_102 
REMARK       I    between atoms: O3S_52  and  S1_71 
REMARK       I    between atoms: O4_53  and  C1_105 
REMARK       I    between atoms: C6_54  and  C5_59 
REMARK       I    between atoms: O3_60  and  C3_100 
REMARK       I    between atoms: O1S_61  and  S1_71 
REMARK       I    between atoms: S2_62  and  O6_81 
REMARK       I    between atoms: C5_65  and  C6_89 
REMARK       I    between atoms: C6_67  and  C5_74 
REMARK       I    between atoms: C3_68  and  O3_104 
REMARK       I    between atoms: C3_70  and  O3_85 
REMARK       I    between atoms: C5_77  and  C6_101 
REMARK       I    between atoms: O6_81  and  C6_101 
REMARK       I    between atoms: C3_92  and  O3_98 
ROOT
ATOM      1  C2  IDS d1714      -7.609   0.489 -29.852  0.00  0.00     0.132 C 
ATOM      2  O3S IDS d1714      -5.208   1.596 -32.620  0.00  0.00    -0.572 OA
ATOM      3  C1  IDS d1714      -7.162  -0.329 -28.669  0.00  0.00     0.161 C 
ATOM      4  O2S IDS d1714      -7.640   1.610 -32.588  0.00  0.00    -0.572 OA
ATOM      5  O2  IDS d1714      -6.444   0.795 -30.636  0.00  0.00    -0.244 OA
ATOM      6  S   IDS d1714      -6.419   0.872 -32.173  0.00  0.00     0.252 S 
ATOM      7  C6  IDS d1714      -6.183   2.279 -26.212  0.00  0.00     0.203 C 
ATOM      8  O5  IDS d1714      -6.357   0.509 -27.821  0.00  0.00    -0.343 OA
ATOM      9  C4  IDS d1714      -7.691   2.536 -28.276  0.00  0.00    -0.005 C 
ATOM     10  O61 IDS d1714      -5.066   1.764 -25.964  0.00  0.00    -0.646 OA
ATOM     11  C3  IDS d1714      -8.297   1.797 -29.477  0.00  0.00     0.069 C 
ATOM     12  C5  IDS d1714      -7.068   1.602 -27.246  0.00  0.00     0.127 C 
ATOM     13  O3  IDS d1714      -9.697   1.556 -29.265  0.00  0.00    -0.393 OA
ATOM     14  O1S IDS d1714      -6.483  -0.524 -32.617  0.00  0.00    -0.572 OA
ATOM     15  O62 IDS d1714      -6.580   3.319 -25.634  0.00  0.00    -0.646 OA
ATOM     16  H   IDS d1714      -8.332  -0.091 -30.386  0.00  0.00     0.097 H 
ATOM     17  H   IDS d1714      -6.553  -1.178 -28.903  0.00  0.00     0.133 H 
ATOM     18  H   IDS d1714      -8.465   3.100 -27.799  0.00  0.00     0.041 H 
ATOM     19  H   IDS d1714      -6.908   3.161 -28.650  0.00  0.00     0.041 H 
ATOM     20  H   IDS d1714      -8.141   2.456 -30.306  0.00  0.00     0.087 H 
ATOM     21  H   IDS d1714      -7.930   1.229 -26.733  0.00  0.00     0.100 H 
ATOM     22  H   IDS d1714      -9.812   0.957 -28.511  0.00  0.00     0.210 HD
ATOM     23  O5  SGN d1709     -25.165  -8.243 -24.070  0.00  0.00    -0.350 OA
ATOM     24  O2S SGN d1709     -26.940  -4.940 -21.229  0.00  0.00    -0.296 OA
ATOM     25  O4S SGN d1709     -23.947 -12.373 -26.977  0.00  0.00    -0.572 OA
ATOM     26  O1  SGN d1709     -26.738  -6.559 -24.557  0.00  0.00    -0.369 OA
ATOM     27  O6  SGN d1709     -24.987 -10.572 -25.692  0.00  0.00    -0.254 OA
ATOM     28  C4  SGN d1709     -23.345  -7.225 -25.210  0.00  0.00     0.095 C 
ATOM     29  C5  SGN d1709     -24.491  -8.235 -25.329  0.00  0.00     0.091 C 
ATOM     30  C1  SGN d1709     -25.738  -7.007 -23.646  0.00  0.00     0.147 C 
ATOM     31  O5S SGN d1709     -26.145 -12.817 -25.779  0.00  0.00    -0.572 OA
ATOM     32  O1S SGN d1709     -25.740  -2.893 -21.487  0.00  0.00    -0.296 OA
ATOM     33  S1  SGN d1709     -25.688  -4.333 -21.602  0.00  0.00     0.156 S 
ATOM     34  N   SGN d1709     -25.250  -4.678 -23.096  0.00  0.00    -0.210 NA
ATOM     35  O4  SGN d1709     -22.826  -7.140 -26.548  0.00  0.00    -0.348 OA
ATOM     36  C2  SGN d1709     -24.645  -5.948 -23.480  0.00  0.00     0.081 C 
ATOM     37  C3  SGN d1709     -23.848  -5.856 -24.787  0.00  0.00     0.083 C 
ATOM     38  O3S SGN d1709     -24.564  -4.916 -20.684  0.00  0.00    -0.296 OA
ATOM     39  C6  SGN d1709     -23.928  -9.645 -25.537  0.00  0.00     0.067 C 
ATOM     40  S2  SGN d1709     -24.678 -12.080 -25.746  0.00  0.00     0.251 S 
ATOM     41  O6S SGN d1709     -23.998 -12.446 -24.496  0.00  0.00    -0.572 OA
ATOM     42  O3  SGN d1709     -22.744  -4.984 -24.543  0.00  0.00    -0.391 OA
ATOM     43  H   SGN d1709     -27.649  -4.589 -21.790  0.00  0.00     0.231 HD
ATOM     44  H   SGN d1709     -27.420  -7.242 -24.649  0.00  0.00     0.212 HD
ATOM     45  H   SGN d1709     -22.626  -7.528 -24.478  0.00  0.00     0.091 H 
ATOM     46  H   SGN d1709     -25.129  -7.970 -26.146  0.00  0.00     0.090 H 
ATOM     47  H   SGN d1709     -26.211  -7.166 -22.700  0.00  0.00     0.131 H 
ATOM     48  H   SGN d1709     -26.441  -2.547 -22.061  0.00  0.00     0.231 HD
ATOM     49  H   SGN d1709     -24.581  -3.957 -23.364  0.00  0.00     0.140 HD
ATOM     50  H   SGN d1709     -23.963  -6.215 -22.700  0.00  0.00     0.076 H 
ATOM     51  H   SGN d1709     -24.468  -5.485 -25.576  0.00  0.00     0.089 H 
ATOM     52  H   SGN d1709     -24.779  -4.735 -19.755  0.00  0.00     0.231 HD
ATOM     53  H   SGN d1709     -23.315  -9.657 -26.414  0.00  0.00     0.080 H 
ATOM     54  H   SGN d1709     -23.344  -9.919 -24.683  0.00  0.00     0.080 H 
ATOM     55  H   SGN d1709     -22.200  -5.345 -23.825  0.00  0.00     0.210 HD
ATOM     56  O1S IDS d1712     -12.799   1.048 -25.226  0.00  0.00    -0.572 OA
ATOM     57  O2S IDS d1712     -14.427  -0.277 -23.947  0.00  0.00    -0.572 OA
ATOM     58  O61 IDS d1712     -11.056  -6.595 -26.857  0.00  0.00    -0.646 OA
ATOM     59  O5  IDS d1712     -12.944  -3.640 -27.543  0.00  0.00    -0.340 OA
ATOM     60  C4  IDS d1712     -11.964  -4.215 -25.412  0.00  0.00     0.103 C 
ATOM     61  O2  IDS d1712     -13.094  -1.243 -25.703  0.00  0.00    -0.244 OA
ATOM     62  O4  IDS d1712     -10.933  -3.238 -25.595  0.00  0.00    -0.348 OA
ATOM     63  C1  IDS d1712     -14.075  -2.956 -27.025  0.00  0.00     0.161 C 
ATOM     64  S   IDS d1712     -13.095  -0.225 -24.556  0.00  0.00     0.252 S 
ATOM     65  C5  IDS d1712     -12.491  -4.745 -26.752  0.00  0.00     0.152 C 
ATOM     66  O62 IDS d1712     -11.098  -5.267 -28.606  0.00  0.00    -0.646 OA
ATOM     67  O3S IDS d1712     -12.025  -0.651 -23.606  0.00  0.00    -0.572 OA
ATOM     68  C6  IDS d1712     -11.479  -5.586 -27.465  0.00  0.00     0.206 C 
ATOM     69  C3  IDS d1712     -13.123  -3.528 -24.704  0.00  0.00     0.094 C 
ATOM     70  O3  IDS d1712     -14.097  -4.510 -24.321  0.00  0.00    -0.390 OA
ATOM     71  C2  IDS d1712     -13.812  -2.482 -25.619  0.00  0.00     0.134 C 
ATOM     72  H   IDS d1712     -11.563  -5.036 -24.855  0.00  0.00     0.092 H 
ATOM     73  H   IDS d1712     -14.263  -2.118 -27.665  0.00  0.00     0.133 H 
ATOM     74  H   IDS d1712     -13.319  -5.398 -26.570  0.00  0.00     0.104 H 
ATOM     75  H   IDS d1712     -12.729  -3.026 -23.846  0.00  0.00     0.091 H 
ATOM     76  H   IDS d1712     -14.440  -4.951 -25.113  0.00  0.00     0.210 HD
ATOM     77  H   IDS d1712     -14.751  -2.330 -25.128  0.00  0.00     0.097 H 
ATOM     78  O62 IDS d1710     -19.466  -4.358 -25.142  0.00  0.00    -0.646 OA
ATOM     79  O2  IDS d1710     -19.839  -8.289 -28.285  0.00  0.00    -0.244 OA
ATOM     80  O1S IDS d1710     -18.226 -10.163 -28.181  0.00  0.00    -0.572 OA
ATOM     81  C3  IDS d1710     -21.134  -6.384 -29.012  0.00  0.00     0.094 C 
ATOM     82  O3  IDS d1710     -22.473  -5.966 -29.284  0.00  0.00    -0.390 OA
ATOM     83  O4  IDS d1710     -18.960  -5.490 -28.357  0.00  0.00    -0.348 OA
ATOM     84  O5  IDS d1710     -20.644  -6.322 -26.214  0.00  0.00    -0.340 OA
ATOM     85  C6  IDS d1710     -20.175  -3.987 -26.112  0.00  0.00     0.206 C 
ATOM     86  O2S IDS d1710     -20.353 -10.295 -26.986  0.00  0.00    -0.572 OA
ATOM     87  C5  IDS d1710     -20.850  -5.075 -26.906  0.00  0.00     0.152 C 
ATOM     88  S   IDS d1710     -19.657  -9.848 -28.210  0.00  0.00     0.252 S 
ATOM     89  C2  IDS d1710     -21.128  -7.668 -28.170  0.00  0.00     0.134 C 
ATOM     90  O3S IDS d1710     -20.335 -10.312 -29.424  0.00  0.00    -0.572 OA
ATOM     91  C4  IDS d1710     -20.369  -5.229 -28.357  0.00  0.00     0.103 C 
ATOM     92  C1  IDS d1710     -21.422  -7.424 -26.680  0.00  0.00     0.161 C 
ATOM     93  O61 IDS d1710     -20.322  -2.792 -26.450  0.00  0.00    -0.646 OA
ATOM     94  H   IDS d1710     -20.630  -6.627 -29.924  0.00  0.00     0.091 H 
ATOM     95  H   IDS d1710     -22.919  -5.747 -28.451  0.00  0.00     0.210 HD
ATOM     96  H   IDS d1710     -21.881  -4.798 -26.978  0.00  0.00     0.104 H 
ATOM     97  H   IDS d1710     -21.909  -8.294 -28.548  0.00  0.00     0.097 H 
ATOM     98  H   IDS d1710     -20.553  -4.332 -28.911  0.00  0.00     0.092 H 
ATOM     99  H   IDS d1710     -21.169  -8.284 -26.097  0.00  0.00     0.133 H 
ATOM    100  C4  SGN d1713      -8.195  -1.772 -27.053  0.00  0.00     0.095 C 
ATOM    101  N   SGN d1713      -9.382  -2.098 -23.519  0.00  0.00    -0.210 NA
ATOM    102  O4S SGN d1713      -5.984  -3.194 -30.743  0.00  0.00    -0.572 OA
ATOM    103  O4  SGN d1713      -8.391  -0.765 -28.060  0.00  0.00    -0.348 OA
ATOM    104  C2  SGN d1713      -8.791  -2.515 -24.768  0.00  0.00     0.081 C 
ATOM    105  O6  SGN d1713      -6.971  -3.917 -28.517  0.00  0.00    -0.254 OA
ATOM    106  O2S SGN d1713      -7.708  -3.149 -22.157  0.00  0.00    -0.296 OA
ATOM    107  O3S SGN d1713      -9.620  -1.892 -20.966  0.00  0.00    -0.296 OA
ATOM    108  C6  SGN d1713      -8.335  -3.601 -28.824  0.00  0.00     0.067 C 
ATOM    109  O5S SGN d1713      -6.762  -5.508 -30.485  0.00  0.00    -0.572 OA
ATOM    110  C5  SGN d1713      -8.978  -2.984 -27.618  0.00  0.00     0.091 C 
ATOM    111  O3  SGN d1713      -7.819  -0.372 -25.163  0.00  0.00    -0.391 OA
ATOM    112  O1S SGN d1713      -9.938  -4.040 -22.130  0.00  0.00    -0.296 OA
ATOM    113  S1  SGN d1713      -9.114  -2.865 -22.139  0.00  0.00     0.156 S 
ATOM    114  O5  SGN d1713      -8.994  -4.042 -26.633  0.00  0.00    -0.349 OA
ATOM    115  S2  SGN d1713      -6.059  -4.278 -29.742  0.00  0.00     0.251 S 
ATOM    116  O6S SGN d1713      -4.798  -4.645 -29.139  0.00  0.00    -0.572 OA
ATOM    117  C3  SGN d1713      -8.744  -1.321 -25.702  0.00  0.00     0.083 C 
ATOM    118  C1  SGN d1713      -9.577  -3.674 -25.392  0.00  0.00     0.150 C 
ATOM    119  H   SGN d1713      -7.164  -1.991 -26.867  0.00  0.00     0.091 H 
ATOM    120  H   SGN d1713     -10.391  -2.117 -23.663  0.00  0.00     0.140 HD
ATOM    121  H   SGN d1713      -7.797  -2.872 -24.592  0.00  0.00     0.076 H 
ATOM    122  H   SGN d1713      -7.210  -2.317 -22.163  0.00  0.00     0.231 HD
ATOM    123  H   SGN d1713      -9.075  -1.090 -20.954  0.00  0.00     0.231 HD
ATOM    124  H   SGN d1713      -8.859  -4.496 -29.091  0.00  0.00     0.080 H 
ATOM    125  H   SGN d1713      -8.372  -2.914 -29.643  0.00  0.00     0.080 H 
ATOM    126  H   SGN d1713      -9.946  -2.605 -27.871  0.00  0.00     0.090 H 
ATOM    127  H   SGN d1713      -7.773   0.402 -25.747  0.00  0.00     0.210 HD
ATOM    128  H   SGN d1713      -9.649  -4.643 -22.833  0.00  0.00     0.231 HD
ATOM    129  H   SGN d1713      -9.722  -0.901 -25.810  0.00  0.00     0.089 H 
ATOM    130  H   SGN d1713      -9.555  -4.526 -24.743  0.00  0.00     0.131 H 
ATOM    131  C2  SGN d1711     -17.013  -5.633 -29.702  0.00  0.00     0.081 C 
ATOM    132  O4S SGN d1711     -15.323   0.535 -27.967  0.00  0.00    -0.572 OA
ATOM    133  S1  SGN d1711     -17.547  -7.493 -31.521  0.00  0.00     0.156 S 
ATOM    134  C3  SGN d1711     -16.018  -5.456 -28.541  0.00  0.00     0.083 C 
ATOM    135  O2S SGN d1711     -16.251  -7.461 -32.124  0.00  0.00    -0.296 OA
ATOM    136  O3  SGN d1711     -14.758  -6.064 -28.844  0.00  0.00    -0.391 OA
ATOM    137  N   SGN d1711     -17.316  -7.032 -29.998  0.00  0.00    -0.210 NA
ATOM    138  C4  SGN d1711     -15.837  -3.949 -28.294  0.00  0.00     0.095 C 
ATOM    139  O4  SGN d1711     -15.215  -3.812 -26.997  0.00  0.00    -0.348 OA
ATOM    140  O6S SGN d1711     -16.038   0.736 -30.211  0.00  0.00    -0.572 OA
ATOM    141  S2  SGN d1711     -16.425   0.352 -28.917  0.00  0.00     0.251 S 
ATOM    142  O5  SGN d1711     -18.021  -3.485 -29.187  0.00  0.00    -0.349 OA
ATOM    143  C5  SGN d1711     -17.215  -3.284 -28.011  0.00  0.00     0.091 C 
ATOM    144  O1S SGN d1711     -18.517  -6.596 -32.117  0.00  0.00    -0.296 OA
ATOM    145  O6  SGN d1711     -16.682  -1.171 -28.932  0.00  0.00    -0.254 OA
ATOM    146  O5S SGN d1711     -17.761   1.011 -28.350  0.00  0.00    -0.572 OA
ATOM    147  O3S SGN d1711     -18.157  -8.959 -31.387  0.00  0.00    -0.296 OA
ATOM    148  C1  SGN d1711     -18.319  -4.849 -29.464  0.00  0.00     0.150 C 
ATOM    149  C6  SGN d1711     -17.207  -1.776 -27.758  0.00  0.00     0.067 C 
ATOM    150  H   SGN d1711     -16.518  -5.228 -30.559  0.00  0.00     0.076 H 
ATOM    151  H   SGN d1711     -16.401  -5.935 -27.664  0.00  0.00     0.089 H 
ATOM    152  H   SGN d1711     -15.940  -6.544 -32.175  0.00  0.00     0.231 HD
ATOM    153  H   SGN d1711     -14.382  -5.651 -29.637  0.00  0.00     0.210 HD
ATOM    154  H   SGN d1711     -18.166  -7.266 -29.486  0.00  0.00     0.140 HD
ATOM    155  H   SGN d1711     -15.315  -3.532 -29.130  0.00  0.00     0.091 H 
ATOM    156  H   SGN d1711     -17.572  -3.737 -27.110  0.00  0.00     0.090 H 
ATOM    157  H   SGN d1711     -18.133  -5.708 -32.193  0.00  0.00     0.231 HD
ATOM    158  H   SGN d1711     -19.032  -8.908 -30.972  0.00  0.00     0.231 HD
ATOM    159  H   SGN d1711     -18.960  -4.851 -30.321  0.00  0.00     0.131 H 
ATOM    160  H   SGN d1711     -16.589  -1.545 -26.915  0.00  0.00     0.080 H 
ATOM    161  H   SGN d1711     -18.192  -1.415 -27.544  0.00  0.00     0.080 H 
ENDROOT
TORSDOF 50
ENDMDL
MODEL 37
REMARK VINA RESULT:      -5.9      4.444      7.464
REMARK  0 active torsions:
REMARK  status: ('A' for Active; 'I' for Inactive)
REMARK       I    between atoms: C2_1  and  O2_12 
REMARK       I    between atoms: C1_4  and  O4_37 
REMARK       I    between atoms: O2S_5  and  S1_43 
REMARK       I    between atoms: O2_11  and  C2_82 
REMARK       I    between atoms: O2_11  and  S_80 
REMARK       I    between atoms: O2_12  and  S_23 
REMARK       I    between atoms: C4_13  and  O4_37 
REMARK       I    between atoms: C2_14  and  N_39 
REMARK       I    between atoms: O1_18  and  C1_32 
REMARK       I    between atoms: C4_19  and  O4_53 
REMARK       I    between atoms: O6_20  and  C6_76 
REMARK       I    between atoms: O6_20  and  S2_95 
REMARK       I    between atoms: S1_21  and  N_39 
REMARK       I    between atoms: S1_21  and  O1S_79 
REMARK       I    between atoms: S1_21  and  O2S_30 
REMARK       I    between atoms: S1_21  and  O3S_94 
REMARK       I    between atoms: C3_24  and  O3_26 
REMARK       I    between atoms: C3_25  and  O3_36 
REMARK       I    between atoms: C6_27  and  C5_83 
REMARK       I    between atoms: C4_28  and  O4_51 
REMARK       I    between atoms: N_29  and  C2_40 
REMARK       I    between atoms: N_29  and  S1_71 
REMARK       I    between atoms: C5_31  and  C6_76 
REMARK       I    between atoms: O1S_35  and  S1_43 
REMARK       I    between atoms: O4_38  and  C4_93 
REMARK       I    between atoms: O4_38  and  C1_96 
REMARK       I    between atoms: O6_41  and  C6_54 
REMARK       I    between atoms: O6_41  and  S2_84 
REMARK       I    between atoms: C4_42  and  O4_49 
REMARK       I    between atoms: S1_43  and  N_47 
REMARK       I    between atoms: S1_43  and  O3S_69 
REMARK       I    between atoms: O2S_44  and  S1_71 
REMARK       I    between atoms: N_47  and  C2_56 
REMARK       I    between atoms: O2_48  and  C2_99 
REMARK       I    between atoms: O2_48  and  S_63 
REMARK       I    between atoms: O4_49  and  C1_57 
REMARK       I    between atoms: O4_51  and  C1_102 
REMARK       I    between atoms: O3S_52  and  S1_71 
REMARK       I    between atoms: O4_53  and  C1_105 
REMARK       I    between atoms: C6_54  and  C5_59 
REMARK       I    between atoms: O3_60  and  C3_100 
REMARK       I    between atoms: O1S_61  and  S1_71 
REMARK       I    between atoms: S2_62  and  O6_81 
REMARK       I    between atoms: C5_65  and  C6_89 
REMARK       I    between atoms: C6_67  and  C5_74 
REMARK       I    between atoms: C3_68  and  O3_104 
REMARK       I    between atoms: C3_70  and  O3_85 
REMARK       I    between atoms: C5_77  and  C6_101 
REMARK       I    between atoms: O6_81  and  C6_101 
REMARK       I    between atoms: C3_92  and  O3_98 
ROOT
ATOM      1  C2  IDS d1714     -16.960  -3.098 -25.505  0.00  0.00     0.132 C 
ATOM      2  O3S IDS d1714     -20.729  -2.645 -25.992  0.00  0.00    -0.572 OA
ATOM      3  C1  IDS d1714     -15.956  -2.062 -25.936  0.00  0.00     0.161 C 
ATOM      4  O2S IDS d1714     -19.475  -4.652 -25.433  0.00  0.00    -0.572 OA
ATOM      5  O2  IDS d1714     -18.271  -2.566 -25.756  0.00  0.00    -0.244 OA
ATOM      6  S   IDS d1714     -19.478  -3.397 -26.228  0.00  0.00     0.252 S 
ATOM      7  C6  IDS d1714     -15.672   0.085 -22.917  0.00  0.00     0.203 C 
ATOM      8  O5  IDS d1714     -16.069  -0.931 -25.054  0.00  0.00    -0.343 OA
ATOM      9  C4  IDS d1714     -16.571  -2.317 -23.073  0.00  0.00    -0.005 C 
ATOM     10  O61 IDS d1714     -15.840   1.158 -23.546  0.00  0.00    -0.646 OA
ATOM     11  C3  IDS d1714     -16.867  -3.478 -24.031  0.00  0.00     0.069 C 
ATOM     12  C5  IDS d1714     -15.724  -1.217 -23.700  0.00  0.00     0.127 C 
ATOM     13  O3  IDS d1714     -15.896  -4.524 -23.869  0.00  0.00    -0.393 OA
ATOM     14  O1S IDS d1714     -19.205  -3.681 -27.642  0.00  0.00    -0.572 OA
ATOM     15  O62 IDS d1714     -15.462   0.063 -21.681  0.00  0.00    -0.646 OA
ATOM     16  H   IDS d1714     -16.757  -3.989 -26.061  0.00  0.00     0.097 H 
ATOM     17  H   IDS d1714     -16.093  -1.675 -26.925  0.00  0.00     0.133 H 
ATOM     18  H   IDS d1714     -16.050  -2.703 -22.222  0.00  0.00     0.041 H 
ATOM     19  H   IDS d1714     -17.510  -1.879 -22.806  0.00  0.00     0.041 H 
ATOM     20  H   IDS d1714     -17.844  -3.815 -23.755  0.00  0.00     0.087 H 
ATOM     21  H   IDS d1714     -14.744  -1.647 -23.672  0.00  0.00     0.100 H 
ATOM     22  H   IDS d1714     -15.020  -4.195 -24.126  0.00  0.00     0.210 HD
ATOM     23  O5  SGN d1709      -0.062 -14.414 -27.580  0.00  0.00    -0.350 OA
ATOM     24  O2S SGN d1709       1.625 -14.356 -23.188  0.00  0.00    -0.296 OA
ATOM     25  O4S SGN d1709      -1.175 -14.964 -32.624  0.00  0.00    -0.572 OA
ATOM     26  O1  SGN d1709      -0.325 -16.012 -25.870  0.00  0.00    -0.369 OA
ATOM     27  O6  SGN d1709      -0.418 -15.138 -30.307  0.00  0.00    -0.254 OA
ATOM     28  C4  SGN d1709      -2.269 -13.542 -27.450  0.00  0.00     0.095 C 
ATOM     29  C5  SGN d1709      -1.360 -14.550 -28.160  0.00  0.00     0.091 C 
ATOM     30  C1  SGN d1709       0.039 -14.670 -26.180  0.00  0.00     0.147 C 
ATOM     31  O5S SGN d1709       1.031 -16.125 -32.127  0.00  0.00    -0.572 OA
ATOM     32  O1S SGN d1709      -0.024 -13.522 -21.678  0.00  0.00    -0.296 OA
ATOM     33  S1  SGN d1709       0.457 -13.527 -23.041  0.00  0.00     0.156 S 
ATOM     34  N   SGN d1709      -0.753 -13.985 -23.973  0.00  0.00    -0.210 NA
ATOM     35  O4  SGN d1709      -3.579 -13.851 -27.954  0.00  0.00    -0.348 OA
ATOM     36  C2  SGN d1709      -0.827 -13.680 -25.397  0.00  0.00     0.081 C 
ATOM     37  C3  SGN d1709      -2.258 -13.742 -25.946  0.00  0.00     0.083 C 
ATOM     38  O3S SGN d1709       0.820 -12.076 -23.499  0.00  0.00    -0.296 OA
ATOM     39  C6  SGN d1709      -1.221 -14.181 -29.641  0.00  0.00     0.067 C 
ATOM     40  S2  SGN d1709       0.006 -14.894 -31.767  0.00  0.00     0.251 S 
ATOM     41  O6S SGN d1709       0.756 -13.631 -31.814  0.00  0.00    -0.572 OA
ATOM     42  O3  SGN d1709      -2.995 -12.697 -25.309  0.00  0.00    -0.391 OA
ATOM     43  H   SGN d1709       1.417 -15.261 -22.909  0.00  0.00     0.231 HD
ATOM     44  H   SGN d1709       0.233 -16.624 -26.374  0.00  0.00     0.212 HD
ATOM     45  H   SGN d1709      -1.957 -12.534 -27.629  0.00  0.00     0.091 H 
ATOM     46  H   SGN d1709      -1.762 -15.537 -28.063  0.00  0.00     0.090 H 
ATOM     47  H   SGN d1709       1.061 -14.539 -25.890  0.00  0.00     0.131 H 
ATOM     48  H   SGN d1709      -0.244 -14.428 -21.409  0.00  0.00     0.231 HD
ATOM     49  H   SGN d1709      -1.594 -13.585 -23.557  0.00  0.00     0.140 HD
ATOM     50  H   SGN d1709      -0.474 -12.677 -25.518  0.00  0.00     0.076 H 
ATOM     51  H   SGN d1709      -2.692 -14.699 -25.746  0.00  0.00     0.089 H 
ATOM     52  H   SGN d1709       1.556 -11.742 -22.962  0.00  0.00     0.231 HD
ATOM     53  H   SGN d1709      -2.191 -14.157 -30.093  0.00  0.00     0.080 H 
ATOM     54  H   SGN d1709      -0.760 -13.219 -29.721  0.00  0.00     0.080 H 
ATOM     55  H   SGN d1709      -2.580 -11.842 -25.506  0.00  0.00     0.210 HD
ATOM     56  O1S IDS d1712     -11.056  -4.863 -22.239  0.00  0.00    -0.572 OA
ATOM     57  O2S IDS d1712      -8.714  -5.496 -22.641  0.00  0.00    -0.572 OA
ATOM     58  O61 IDS d1712     -10.021  -4.230 -30.154  0.00  0.00    -0.646 OA
ATOM     59  O5  IDS d1712     -10.799  -6.215 -27.287  0.00  0.00    -0.340 OA
ATOM     60  C4  IDS d1712      -9.450  -4.212 -27.283  0.00  0.00     0.103 C 
ATOM     61  O2  IDS d1712     -10.321  -5.347 -24.428  0.00  0.00    -0.244 OA
ATOM     62  O4  IDS d1712     -10.516  -3.466 -26.683  0.00  0.00    -0.348 OA
ATOM     63  C1  IDS d1712     -10.115  -6.877 -26.234  0.00  0.00     0.161 C 
ATOM     64  S   IDS d1712      -9.874  -4.725 -23.101  0.00  0.00     0.252 S 
ATOM     65  C5  IDS d1712      -9.976  -5.387 -28.117  0.00  0.00     0.152 C 
ATOM     66  O62 IDS d1712     -11.870  -5.248 -29.546  0.00  0.00    -0.646 OA
ATOM     67  O3S IDS d1712      -9.523  -3.302 -23.392  0.00  0.00    -0.572 OA
ATOM     68  C6  IDS d1712     -10.683  -4.929 -29.355  0.00  0.00     0.206 C 
ATOM     69  C3  IDS d1712      -8.609  -4.793 -26.155  0.00  0.00     0.094 C 
ATOM     70  O3  IDS d1712      -7.418  -5.380 -26.700  0.00  0.00    -0.390 OA
ATOM     71  C2  IDS d1712      -9.381  -5.885 -25.370  0.00  0.00     0.134 C 
ATOM     72  H   IDS d1712      -8.893  -3.560 -27.924  0.00  0.00     0.092 H 
ATOM     73  H   IDS d1712     -10.849  -7.397 -25.654  0.00  0.00     0.133 H 
ATOM     74  H   IDS d1712      -9.148  -5.968 -28.466  0.00  0.00     0.104 H 
ATOM     75  H   IDS d1712      -8.368  -3.995 -25.484  0.00  0.00     0.091 H 
ATOM     76  H   IDS d1712      -7.661  -6.100 -27.304  0.00  0.00     0.210 HD
ATOM     77  H   IDS d1712      -8.595  -6.396 -24.853  0.00  0.00     0.097 H 
ATOM     78  O62 IDS d1710      -5.373 -10.307 -25.668  0.00  0.00    -0.646 OA
ATOM     79  O2  IDS d1710      -5.937 -12.313 -30.264  0.00  0.00    -0.244 OA
ATOM     80  O1S IDS d1710      -5.905 -10.892 -32.290  0.00  0.00    -0.572 OA
ATOM     81  C3  IDS d1710      -6.614 -13.816 -28.498  0.00  0.00     0.094 C 
ATOM     82  O3  IDS d1710      -6.312 -15.086 -27.918  0.00  0.00    -0.390 OA
ATOM     83  O4  IDS d1710      -7.593 -11.654 -27.933  0.00  0.00    -0.348 OA
ATOM     84  O5  IDS d1710      -4.774 -11.859 -27.573  0.00  0.00    -0.340 OA
ATOM     85  C6  IDS d1710      -5.898 -11.439 -25.513  0.00  0.00     0.206 C 
ATOM     86  O2S IDS d1710      -3.866 -12.000 -31.525  0.00  0.00    -0.572 OA
ATOM     87  C5  IDS d1710      -5.706 -12.428 -26.633  0.00  0.00     0.152 C 
ATOM     88  S   IDS d1710      -5.330 -12.103 -31.698  0.00  0.00     0.252 S 
ATOM     89  C2  IDS d1710      -5.451 -13.330 -29.375  0.00  0.00     0.134 C 
ATOM     90  O3S IDS d1710      -5.711 -13.335 -32.396  0.00  0.00    -0.572 OA
ATOM     91  C4  IDS d1710      -6.984 -12.830 -27.385  0.00  0.00     0.103 C 
ATOM     92  C1  IDS d1710      -4.276 -12.753 -28.568  0.00  0.00     0.161 C 
ATOM     93  O61 IDS d1710      -6.571 -11.762 -24.510  0.00  0.00    -0.646 OA
ATOM     94  H   IDS d1710      -7.459 -13.898 -29.149  0.00  0.00     0.091 H 
ATOM     95  H   IDS d1710      -5.545 -14.999 -27.330  0.00  0.00     0.210 HD
ATOM     96  H   IDS d1710      -5.351 -13.329 -26.179  0.00  0.00     0.104 H 
ATOM     97  H   IDS d1710      -5.081 -14.183 -29.906  0.00  0.00     0.097 H 
ATOM     98  H   IDS d1710      -7.680 -13.299 -26.722  0.00  0.00     0.092 H 
ATOM     99  H   IDS d1710      -3.609 -12.209 -29.203  0.00  0.00     0.133 H 
ATOM    100  C4  SGN d1713     -13.614  -2.010 -26.459  0.00  0.00     0.095 C 
ATOM    101  N   SGN d1713     -10.205  -1.038 -25.260  0.00  0.00    -0.210 NA
ATOM    102  O4S SGN d1713     -16.940  -2.198 -29.528  0.00  0.00    -0.572 OA
ATOM    103  O4  SGN d1713     -14.691  -2.743 -25.851  0.00  0.00    -0.348 OA
ATOM    104  C2  SGN d1713     -11.277  -1.233 -26.206  0.00  0.00     0.081 C 
ATOM    105  O6  SGN d1713     -14.458  -1.778 -29.193  0.00  0.00    -0.254 OA
ATOM    106  O2S SGN d1713      -9.593   1.122 -26.111  0.00  0.00    -0.296 OA
ATOM    107  O3S SGN d1713      -8.239   0.176 -24.130  0.00  0.00    -0.296 OA
ATOM    108  C6  SGN d1713     -14.126  -3.087 -28.712  0.00  0.00     0.067 C 
ATOM    109  O5S SGN d1713     -15.396  -2.676 -31.376  0.00  0.00    -0.572 OA
ATOM    110  C5  SGN d1713     -13.143  -2.961 -27.588  0.00  0.00     0.091 C 
ATOM    111  O3  SGN d1713     -12.954  -0.667 -24.606  0.00  0.00    -0.391 OA
ATOM    112  O1S SGN d1713      -8.071  -0.710 -26.423  0.00  0.00    -0.296 OA
ATOM    113  S1  SGN d1713      -8.981  -0.042 -25.537  0.00  0.00     0.156 S 
ATOM    114  O5  SGN d1713     -11.953  -2.418 -28.204  0.00  0.00    -0.349 OA
ATOM    115  S2  SGN d1713     -15.698  -1.693 -30.150  0.00  0.00     0.251 S 
ATOM    116  O6S SGN d1713     -15.732  -0.305 -30.551  0.00  0.00    -0.572 OA
ATOM    117  C3  SGN d1713     -12.500  -1.725 -25.456  0.00  0.00     0.083 C 
ATOM    118  C1  SGN d1713     -10.871  -2.219 -27.308  0.00  0.00     0.150 C 
ATOM    119  H   SGN d1713     -13.907  -1.047 -26.820  0.00  0.00     0.091 H 
ATOM    120  H   SGN d1713      -9.792  -1.958 -25.107  0.00  0.00     0.140 HD
ATOM    121  H   SGN d1713     -11.502  -0.304 -26.688  0.00  0.00     0.076 H 
ATOM    122  H   SGN d1713     -10.194   1.524 -25.465  0.00  0.00     0.231 HD
ATOM    123  H   SGN d1713      -8.838   0.626 -23.514  0.00  0.00     0.231 HD
ATOM    124  H   SGN d1713     -13.693  -3.661 -29.506  0.00  0.00     0.080 H 
ATOM    125  H   SGN d1713     -15.011  -3.579 -28.364  0.00  0.00     0.080 H 
ATOM    126  H   SGN d1713     -12.998  -3.912 -27.118  0.00  0.00     0.090 H 
ATOM    127  H   SGN d1713     -13.738  -0.961 -24.115  0.00  0.00     0.210 HD
ATOM    128  H   SGN d1713      -8.500  -0.852 -27.281  0.00  0.00     0.231 HD
ATOM    129  H   SGN d1713     -12.257  -2.603 -24.896  0.00  0.00     0.089 H 
ATOM    130  H   SGN d1713     -10.041  -1.833 -27.861  0.00  0.00     0.131 H 
ATOM    131  C2  SGN d1711      -9.540 -10.776 -28.961  0.00  0.00     0.081 C 
ATOM    132  O4S SGN d1711     -11.632  -8.477 -23.109  0.00  0.00    -0.572 OA
ATOM    133  S1  SGN d1711      -9.876 -12.207 -31.173  0.00  0.00     0.156 S 
ATOM    134  C3  SGN d1711      -9.241  -9.306 -28.613  0.00  0.00     0.083 C 
ATOM    135  O2S SGN d1711     -11.005 -11.462 -31.640  0.00  0.00    -0.296 OA
ATOM    136  O3  SGN d1711      -9.861  -8.418 -29.550  0.00  0.00    -0.391 OA
ATOM    137  N   SGN d1711      -9.033 -11.176 -30.273  0.00  0.00    -0.210 NA
ATOM    138  C4  SGN d1711      -9.769  -9.035 -27.194  0.00  0.00     0.095 C 
ATOM    139  O4  SGN d1711      -9.161  -7.801 -26.754  0.00  0.00    -0.348 OA
ATOM    140  O6S SGN d1711     -13.048 -10.317 -23.552  0.00  0.00    -0.572 OA
ATOM    141  S2  SGN d1711     -11.715  -9.919 -23.365  0.00  0.00     0.251 S 
ATOM    142  O5  SGN d1711      -9.525 -11.353 -26.603  0.00  0.00    -0.349 OA
ATOM    143  C5  SGN d1711      -9.128 -10.033 -26.187  0.00  0.00     0.091 C 
ATOM    144  O1S SGN d1711     -10.205 -13.354 -30.351  0.00  0.00    -0.296 OA
ATOM    145  O6  SGN d1711     -10.967 -10.124 -24.700  0.00  0.00    -0.254 OA
ATOM    146  O5S SGN d1711     -10.879 -10.724 -22.273  0.00  0.00    -0.572 OA
ATOM    147  O3S SGN d1711      -8.861 -12.624 -32.327  0.00  0.00    -0.296 OA
ATOM    148  C1  SGN d1711      -9.019 -11.740 -27.877  0.00  0.00     0.150 C 
ATOM    149  C6  SGN d1711      -9.563  -9.904 -24.726  0.00  0.00     0.067 C 
ATOM    150  H   SGN d1711     -10.607 -10.843 -29.001  0.00  0.00     0.076 H 
ATOM    151  H   SGN d1711      -8.186  -9.134 -28.659  0.00  0.00     0.089 H 
ATOM    152  H   SGN d1711     -11.580 -11.242 -30.890  0.00  0.00     0.231 HD
ATOM    153  H   SGN d1711     -10.822  -8.550 -29.534  0.00  0.00     0.210 HD
ATOM    154  H   SGN d1711      -8.117 -11.598 -30.119  0.00  0.00     0.140 HD
ATOM    155  H   SGN d1711     -10.838  -9.069 -27.221  0.00  0.00     0.091 H 
ATOM    156  H   SGN d1711      -8.079  -9.826 -26.207  0.00  0.00     0.090 H 
ATOM    157  H   SGN d1711     -10.823 -13.086 -29.653  0.00  0.00     0.231 HD
ATOM    158  H   SGN d1711      -8.123 -13.123 -31.944  0.00  0.00     0.231 HD
ATOM    159  H   SGN d1711      -9.341 -12.748 -28.037  0.00  0.00     0.131 H 
ATOM    160  H   SGN d1711      -9.336  -8.926 -24.358  0.00  0.00     0.080 H 
ATOM    161  H   SGN d1711      -9.050 -10.610 -24.106  0.00  0.00     0.080 H 
ENDROOT
TORSDOF 50
ENDMDL
MODEL 38
REMARK VINA RESULT:      -5.8      3.676      5.483
REMARK  0 active torsions:
REMARK  status: ('A' for Active; 'I' for Inactive)
REMARK       I    between atoms: C2_1  and  O2_12 
REMARK       I    between atoms: C1_4  and  O4_37 
REMARK       I    between atoms: O2S_5  and  S1_43 
REMARK       I    between atoms: O2_11  and  C2_82 
REMARK       I    between atoms: O2_11  and  S_80 
REMARK       I    between atoms: O2_12  and  S_23 
REMARK       I    between atoms: C4_13  and  O4_37 
REMARK       I    between atoms: C2_14  and  N_39 
REMARK       I    between atoms: O1_18  and  C1_32 
REMARK       I    between atoms: C4_19  and  O4_53 
REMARK       I    between atoms: O6_20  and  C6_76 
REMARK       I    between atoms: O6_20  and  S2_95 
REMARK       I    between atoms: S1_21  and  N_39 
REMARK       I    between atoms: S1_21  and  O1S_79 
REMARK       I    between atoms: S1_21  and  O2S_30 
REMARK       I    between atoms: S1_21  and  O3S_94 
REMARK       I    between atoms: C3_24  and  O3_26 
REMARK       I    between atoms: C3_25  and  O3_36 
REMARK       I    between atoms: C6_27  and  C5_83 
REMARK       I    between atoms: C4_28  and  O4_51 
REMARK       I    between atoms: N_29  and  C2_40 
REMARK       I    between atoms: N_29  and  S1_71 
REMARK       I    between atoms: C5_31  and  C6_76 
REMARK       I    between atoms: O1S_35  and  S1_43 
REMARK       I    between atoms: O4_38  and  C4_93 
REMARK       I    between atoms: O4_38  and  C1_96 
REMARK       I    between atoms: O6_41  and  C6_54 
REMARK       I    between atoms: O6_41  and  S2_84 
REMARK       I    between atoms: C4_42  and  O4_49 
REMARK       I    between atoms: S1_43  and  N_47 
REMARK       I    between atoms: S1_43  and  O3S_69 
REMARK       I    between atoms: O2S_44  and  S1_71 
REMARK       I    between atoms: N_47  and  C2_56 
REMARK       I    between atoms: O2_48  and  C2_99 
REMARK       I    between atoms: O2_48  and  S_63 
REMARK       I    between atoms: O4_49  and  C1_57 
REMARK       I    between atoms: O4_51  and  C1_102 
REMARK       I    between atoms: O3S_52  and  S1_71 
REMARK       I    between atoms: O4_53  and  C1_105 
REMARK       I    between atoms: C6_54  and  C5_59 
REMARK       I    between atoms: O3_60  and  C3_100 
REMARK       I    between atoms: O1S_61  and  S1_71 
REMARK       I    between atoms: S2_62  and  O6_81 
REMARK       I    between atoms: C5_65  and  C6_89 
REMARK       I    between atoms: C6_67  and  C5_74 
REMARK       I    between atoms: C3_68  and  O3_104 
REMARK       I    between atoms: C3_70  and  O3_85 
REMARK       I    between atoms: C5_77  and  C6_101 
REMARK       I    between atoms: O6_81  and  C6_101 
REMARK       I    between atoms: C3_92  and  O3_98 
ROOT
ATOM      1  C2  IDS d1714     -22.074  -8.374 -26.811  0.00  0.00     0.132 C 
ATOM      2  O3S IDS d1714     -25.649  -9.524 -27.552  0.00  0.00    -0.572 OA
ATOM      3  C1  IDS d1714     -21.552  -7.025 -27.233  0.00  0.00     0.161 C 
ATOM      4  O2S IDS d1714     -23.730 -10.824 -26.814  0.00  0.00    -0.572 OA
ATOM      5  O2  IDS d1714     -23.465  -8.435 -27.170  0.00  0.00    -0.244 OA
ATOM      6  S   IDS d1714     -24.185  -9.699 -27.672  0.00  0.00     0.252 S 
ATOM      7  C6  IDS d1714     -22.405  -4.889 -24.316  0.00  0.00     0.203 C 
ATOM      8  O5  IDS d1714     -22.186  -6.023 -26.418  0.00  0.00    -0.343 OA
ATOM      9  C4  IDS d1714     -22.228  -7.450 -24.403  0.00  0.00    -0.005 C 
ATOM     10  O61 IDS d1714     -22.949  -3.994 -25.008  0.00  0.00    -0.646 OA
ATOM     11  C3  IDS d1714     -21.947  -8.650 -25.317  0.00  0.00     0.069 C 
ATOM     12  C5  IDS d1714     -21.859  -6.113 -25.033  0.00  0.00     0.127 C 
ATOM     13  O3  IDS d1714     -20.649  -9.199 -25.042  0.00  0.00    -0.393 OA
ATOM     14  O1S IDS d1714     -23.711  -9.876 -29.049  0.00  0.00    -0.572 OA
ATOM     15  O62 IDS d1714     -22.301  -4.795 -23.070  0.00  0.00    -0.646 OA
ATOM     16  H   IDS d1714     -21.482  -9.114 -27.308  0.00  0.00     0.097 H 
ATOM     17  H   IDS d1714     -21.759  -6.751 -28.246  0.00  0.00     0.133 H 
ATOM     18  H   IDS d1714     -21.662  -7.569 -23.503  0.00  0.00     0.041 H 
ATOM     19  H   IDS d1714     -23.282  -7.432 -24.217  0.00  0.00     0.041 H 
ATOM     20  H   IDS d1714     -22.719  -9.353 -25.084  0.00  0.00     0.087 H 
ATOM     21  H   IDS d1714     -20.795  -6.100 -24.922  0.00  0.00     0.100 H 
ATOM     22  H   IDS d1714     -19.968  -8.544 -25.261  0.00  0.00     0.210 HD
ATOM     23  O5  SGN d1709      -1.920 -11.766 -27.259  0.00  0.00    -0.350 OA
ATOM     24  O2S SGN d1709      -0.749 -10.924 -22.781  0.00  0.00    -0.296 OA
ATOM     25  O4S SGN d1709      -2.318 -12.834 -32.328  0.00  0.00    -0.572 OA
ATOM     26  O1  SGN d1709      -1.637 -13.294 -25.489  0.00  0.00    -0.369 OA
ATOM     27  O6  SGN d1709      -1.737 -12.631 -29.962  0.00  0.00    -0.254 OA
ATOM     28  C4  SGN d1709      -4.293 -11.878 -27.311  0.00  0.00     0.095 C 
ATOM     29  C5  SGN d1709      -3.000 -12.437 -27.910  0.00  0.00     0.091 C 
ATOM     30  C1  SGN d1709      -1.831 -11.928 -25.844  0.00  0.00     0.147 C 
ATOM     31  O5S SGN d1709       0.125 -12.972 -31.636  0.00  0.00    -0.572 OA
ATOM     32  O1S SGN d1709      -2.706 -10.811 -21.419  0.00  0.00    -0.296 OA
ATOM     33  S1  SGN d1709      -2.162 -10.647 -22.749  0.00  0.00     0.156 S 
ATOM     34  N   SGN d1709      -3.002 -11.583 -23.729  0.00  0.00    -0.210 NA
ATOM     35  O4  SGN d1709      -5.319 -12.710 -27.877  0.00  0.00    -0.348 OA
ATOM     36  C2  SGN d1709      -3.085 -11.366 -25.168  0.00  0.00     0.081 C 
ATOM     37  C3  SGN d1709      -4.318 -12.023 -25.800  0.00  0.00     0.083 C 
ATOM     38  O3S SGN d1709      -2.390  -9.186 -23.257  0.00  0.00    -0.296 OA
ATOM     39  C6  SGN d1709      -2.911 -12.076 -29.397  0.00  0.00     0.067 C 
ATOM     40  S2  SGN d1709      -1.338 -12.265 -31.404  0.00  0.00     0.251 S 
ATOM     41  O6S SGN d1709      -1.170 -10.807 -31.469  0.00  0.00    -0.572 OA
ATOM     42  O3  SGN d1709      -5.464 -11.362 -25.264  0.00  0.00    -0.391 OA
ATOM     43  H   SGN d1709      -0.590 -11.828 -22.469  0.00  0.00     0.231 HD
ATOM     44  H   SGN d1709      -0.840 -13.632 -25.925  0.00  0.00     0.212 HD
ATOM     45  H   SGN d1709      -4.408 -10.835 -27.521  0.00  0.00     0.091 H 
ATOM     46  H   SGN d1709      -2.969 -13.500 -27.788  0.00  0.00     0.090 H 
ATOM     47  H   SGN d1709      -0.978 -11.381 -25.500  0.00  0.00     0.131 H 
ATOM     48  H   SGN d1709      -2.556 -11.721 -21.119  0.00  0.00     0.231 HD
ATOM     49  H   SGN d1709      -3.962 -11.556 -23.386  0.00  0.00     0.140 HD
ATOM     50  H   SGN d1709      -3.165 -10.309 -25.318  0.00  0.00     0.076 H 
ATOM     51  H   SGN d1709      -4.336 -13.070 -25.579  0.00  0.00     0.089 H 
ATOM     52  H   SGN d1709      -1.899  -8.567 -22.694  0.00  0.00     0.231 HD
ATOM     53  H   SGN d1709      -3.767 -12.463 -29.908  0.00  0.00     0.080 H 
ATOM     54  H   SGN d1709      -2.879 -11.011 -29.498  0.00  0.00     0.080 H 
ATOM     55  H   SGN d1709      -5.421 -10.416 -25.479  0.00  0.00     0.210 HD
ATOM     56  O1S IDS d1712     -16.236  -7.480 -23.102  0.00  0.00    -0.572 OA
ATOM     57  O2S IDS d1712     -13.817  -7.100 -23.327  0.00  0.00    -0.572 OA
ATOM     58  O61 IDS d1712     -14.944  -6.646 -30.960  0.00  0.00    -0.646 OA
ATOM     59  O5  IDS d1712     -15.060  -8.714 -28.049  0.00  0.00    -0.340 OA
ATOM     60  C4  IDS d1712     -14.653  -6.333 -28.064  0.00  0.00     0.103 C 
ATOM     61  O2  IDS d1712     -15.201  -7.665 -25.214  0.00  0.00    -0.244 OA
ATOM     62  O4  IDS d1712     -15.974  -6.080 -27.570  0.00  0.00    -0.348 OA
ATOM     63  C1  IDS d1712     -14.248  -9.013 -26.923  0.00  0.00     0.161 C 
ATOM     64  S   IDS d1712     -15.151  -6.885 -23.895  0.00  0.00     0.252 S 
ATOM     65  C5  IDS d1712     -14.586  -7.638 -28.868  0.00  0.00     0.152 C 
ATOM     66  O62 IDS d1712     -16.255  -8.322 -30.416  0.00  0.00    -0.646 OA
ATOM     67  O3S IDS d1712     -15.393  -5.451 -24.237  0.00  0.00    -0.572 OA
ATOM     68  C6  IDS d1712     -15.320  -7.539 -30.169  0.00  0.00     0.206 C 
ATOM     69  C3  IDS d1712     -13.738  -6.491 -26.858  0.00  0.00     0.094 C 
ATOM     70  O3  IDS d1712     -12.373  -6.548 -27.299  0.00  0.00    -0.390 OA
ATOM     71  C2  IDS d1712     -14.054  -7.787 -26.067  0.00  0.00     0.134 C 
ATOM     72  H   IDS d1712     -14.364  -5.524 -28.703  0.00  0.00     0.092 H 
ATOM     73  H   IDS d1712     -14.747  -9.776 -26.363  0.00  0.00     0.133 H 
ATOM     74  H   IDS d1712     -13.569  -7.834 -29.135  0.00  0.00     0.104 H 
ATOM     75  H   IDS d1712     -13.897  -5.651 -26.216  0.00  0.00     0.091 H 
ATOM     76  H   IDS d1712     -12.253  -7.317 -27.879  0.00  0.00     0.210 HD
ATOM     77  H   IDS d1712     -13.170  -7.919 -25.478  0.00  0.00     0.097 H 
ATOM     78  O62 IDS d1710      -8.577 -10.172 -25.891  0.00  0.00    -0.646 OA
ATOM     79  O2  IDS d1710      -7.914 -12.330 -30.404  0.00  0.00    -0.244 OA
ATOM     80  O1S IDS d1710      -8.310 -11.066 -32.494  0.00  0.00    -0.572 OA
ATOM     81  C3  IDS d1710      -8.051 -13.940 -28.608  0.00  0.00     0.094 C 
ATOM     82  O3  IDS d1710      -7.301 -14.960 -27.946  0.00  0.00    -0.390 OA
ATOM     83  O4  IDS d1710      -9.869 -12.362 -28.216  0.00  0.00    -0.348 OA
ATOM     84  O5  IDS d1710      -7.250 -11.380 -27.673  0.00  0.00    -0.340 OA
ATOM     85  C6  IDS d1710      -8.603 -11.416 -25.711  0.00  0.00     0.206 C 
ATOM     86  O2S IDS d1710      -6.062 -11.219 -31.549  0.00  0.00    -0.572 OA
ATOM     87  C5  IDS d1710      -7.937 -12.262 -26.765  0.00  0.00     0.152 C 
ATOM     88  S   IDS d1710      -7.337 -11.920 -31.807  0.00  0.00     0.252 S 
ATOM     89  C2  IDS d1710      -7.125 -13.037 -29.436  0.00  0.00     0.134 C 
ATOM     90  O3S IDS d1710      -7.126 -13.214 -32.462  0.00  0.00    -0.572 OA
ATOM     91  C4  IDS d1710      -8.877 -13.170 -27.572  0.00  0.00     0.103 C 
ATOM     92  C1  IDS d1710      -6.355 -12.010 -28.588  0.00  0.00     0.161 C 
ATOM     93  O61 IDS d1710      -9.160 -11.965 -24.736  0.00  0.00    -0.646 OA
ATOM     94  H   IDS d1710      -8.735 -14.377 -29.304  0.00  0.00     0.091 H 
ATOM     95  H   IDS d1710      -6.685 -14.552 -27.317  0.00  0.00     0.210 HD
ATOM     96  H   IDS d1710      -7.280 -12.926 -26.244  0.00  0.00     0.104 H 
ATOM     97  H   IDS d1710      -6.398 -13.673 -29.898  0.00  0.00     0.097 H 
ATOM     98  H   IDS d1710      -9.368 -13.870 -26.930  0.00  0.00     0.092 H 
ATOM     99  H   IDS d1710      -5.922 -11.254 -29.209  0.00  0.00     0.133 H 
ATOM    100  C4  SGN d1713     -19.404  -6.025 -27.612  0.00  0.00     0.095 C 
ATOM    101  N   SGN d1713     -16.795  -3.709 -26.258  0.00  0.00    -0.210 NA
ATOM    102  O4S SGN d1713     -22.114  -7.632 -30.867  0.00  0.00    -0.572 OA
ATOM    103  O4  SGN d1713     -20.130  -7.123 -27.034  0.00  0.00    -0.348 OA
ATOM    104  C2  SGN d1713     -17.617  -4.349 -27.257  0.00  0.00     0.081 C 
ATOM    105  O6  SGN d1713     -20.055  -6.220 -30.401  0.00  0.00    -0.254 OA
ATOM    106  O2S SGN d1713     -17.057  -1.508 -27.179  0.00  0.00    -0.296 OA
ATOM    107  O3S SGN d1713     -15.591  -1.769 -25.072  0.00  0.00    -0.296 OA
ATOM    108  C6  SGN d1713     -19.255  -7.266 -29.835  0.00  0.00     0.067 C 
ATOM    109  O5S SGN d1713     -20.372  -7.471 -32.589  0.00  0.00    -0.572 OA
ATOM    110  C5  SGN d1713     -18.499  -6.722 -28.660  0.00  0.00     0.091 C 
ATOM    111  O3  SGN d1713     -19.497  -4.490 -25.794  0.00  0.00    -0.391 OA
ATOM    112  O1S SGN d1713     -14.899  -2.556 -27.302  0.00  0.00    -0.296 OA
ATOM    113  S1  SGN d1713     -16.069  -2.304 -26.509  0.00  0.00     0.156 S 
ATOM    114  O5  SGN d1713     -17.593  -5.750 -29.229  0.00  0.00    -0.349 OA
ATOM    115  S2  SGN d1713     -21.144  -6.674 -31.435  0.00  0.00     0.251 S 
ATOM    116  O6S SGN d1713     -21.712  -5.433 -31.909  0.00  0.00    -0.572 OA
ATOM    117  C3  SGN d1713     -18.585  -5.285 -26.558  0.00  0.00     0.083 C 
ATOM    118  C1  SGN d1713     -16.759  -5.104 -28.279  0.00  0.00     0.150 C 
ATOM    119  H   SGN d1713     -20.037  -5.276 -28.040  0.00  0.00     0.091 H 
ATOM    120  H   SGN d1713     -16.055  -4.374 -26.032  0.00  0.00     0.140 HD
ATOM    121  H   SGN d1713     -18.164  -3.606 -27.799  0.00  0.00     0.076 H 
ATOM    122  H   SGN d1713     -17.817  -1.376 -26.592  0.00  0.00     0.231 HD
ATOM    123  H   SGN d1713     -16.368  -1.593 -24.519  0.00  0.00     0.231 HD
ATOM    124  H   SGN d1713     -18.565  -7.627 -30.569  0.00  0.00     0.080 H 
ATOM    125  H   SGN d1713     -19.884  -8.071 -29.517  0.00  0.00     0.080 H 
ATOM    126  H   SGN d1713     -18.015  -7.518 -28.134  0.00  0.00     0.090 H 
ATOM    127  H   SGN d1713     -20.127  -5.070 -25.337  0.00  0.00     0.210 HD
ATOM    128  H   SGN d1713     -15.165  -2.881 -28.177  0.00  0.00     0.231 HD
ATOM    129  H   SGN d1713     -18.048  -5.973 -25.940  0.00  0.00     0.089 H 
ATOM    130  H   SGN d1713     -16.119  -4.422 -28.800  0.00  0.00     0.131 H 
ATOM    131  C2  SGN d1711     -11.919 -12.386 -29.406  0.00  0.00     0.081 C 
ATOM    132  O4S SGN d1711     -15.214 -11.027 -23.819  0.00  0.00    -0.572 OA
ATOM    133  S1  SGN d1711     -11.469 -13.876 -31.558  0.00  0.00     0.156 S 
ATOM    134  C3  SGN d1711     -12.276 -10.917 -29.116  0.00  0.00     0.083 C 
ATOM    135  O2S SGN d1711     -12.764 -13.672 -32.131  0.00  0.00    -0.296 OA
ATOM    136  O3  SGN d1711     -13.130 -10.383 -30.134  0.00  0.00    -0.391 OA
ATOM    137  N   SGN d1711     -11.194 -12.569 -30.661  0.00  0.00    -0.210 NA
ATOM    138  C4  SGN d1711     -12.976 -10.857 -27.748  0.00  0.00     0.095 C 
ATOM    139  O4  SGN d1711     -12.962  -9.473 -27.335  0.00  0.00    -0.348 OA
ATOM    140  O6S SGN d1711     -15.714 -13.297 -24.253  0.00  0.00    -0.572 OA
ATOM    141  S2  SGN d1711     -14.679 -12.381 -24.006  0.00  0.00     0.251 S 
ATOM    142  O5  SGN d1711     -11.851 -12.855 -27.025  0.00  0.00    -0.349 OA
ATOM    143  C5  SGN d1711     -12.063 -11.480 -26.653  0.00  0.00     0.091 C 
ATOM    144  O1S SGN d1711     -11.361 -15.039 -30.699  0.00  0.00    -0.296 OA
ATOM    145  O6  SGN d1711     -13.813 -12.289 -25.280  0.00  0.00    -0.254 OA
ATOM    146  O5S SGN d1711     -13.674 -12.747 -22.824  0.00  0.00    -0.572 OA
ATOM    147  O3S SGN d1711     -10.286 -13.862 -32.624  0.00  0.00    -0.296 OA
ATOM    148  C1  SGN d1711     -11.135 -13.026 -28.244  0.00  0.00     0.150 C 
ATOM    149  C6  SGN d1711     -12.624 -11.510 -25.231  0.00  0.00     0.067 C 
ATOM    150  H   SGN d1711     -12.859 -12.888 -29.507  0.00  0.00     0.076 H 
ATOM    151  H   SGN d1711     -11.384 -10.326 -29.105  0.00  0.00     0.089 H 
ATOM    152  H   SGN d1711     -13.434 -13.692 -31.430  0.00  0.00     0.231 HD
ATOM    153  H   SGN d1711     -13.951 -10.898 -30.170  0.00  0.00     0.210 HD
ATOM    154  H   SGN d1711     -10.200 -12.574 -30.431  0.00  0.00     0.140 HD
ATOM    155  H   SGN d1711     -13.932 -11.328 -27.839  0.00  0.00     0.091 H 
ATOM    156  H   SGN d1711     -11.192 -10.860 -26.619  0.00  0.00     0.090 H 
ATOM    157  H   SGN d1711     -12.087 -15.034 -30.056  0.00  0.00     0.231 HD
ATOM    158  H   SGN d1711      -9.441 -14.005 -32.171  0.00  0.00     0.231 HD
ATOM    159  H   SGN d1711     -11.003 -14.080 -28.371  0.00  0.00     0.131 H 
ATOM    160  H   SGN d1711     -12.846 -10.517 -24.900  0.00  0.00     0.080 H 
ATOM    161  H   SGN d1711     -11.917 -11.928 -24.545  0.00  0.00     0.080 H 
ENDROOT
TORSDOF 50
ENDMDL
MODEL 39
REMARK VINA RESULT:      -5.7      3.395      7.537
REMARK  0 active torsions:
REMARK  status: ('A' for Active; 'I' for Inactive)
REMARK       I    between atoms: C2_1  and  O2_12 
REMARK       I    between atoms: C1_4  and  O4_37 
REMARK       I    between atoms: O2S_5  and  S1_43 
REMARK       I    between atoms: O2_11  and  C2_82 
REMARK       I    between atoms: O2_11  and  S_80 
REMARK       I    between atoms: O2_12  and  S_23 
REMARK       I    between atoms: C4_13  and  O4_37 
REMARK       I    between atoms: C2_14  and  N_39 
REMARK       I    between atoms: O1_18  and  C1_32 
REMARK       I    between atoms: C4_19  and  O4_53 
REMARK       I    between atoms: O6_20  and  C6_76 
REMARK       I    between atoms: O6_20  and  S2_95 
REMARK       I    between atoms: S1_21  and  N_39 
REMARK       I    between atoms: S1_21  and  O1S_79 
REMARK       I    between atoms: S1_21  and  O2S_30 
REMARK       I    between atoms: S1_21  and  O3S_94 
REMARK       I    between atoms: C3_24  and  O3_26 
REMARK       I    between atoms: C3_25  and  O3_36 
REMARK       I    between atoms: C6_27  and  C5_83 
REMARK       I    between atoms: C4_28  and  O4_51 
REMARK       I    between atoms: N_29  and  C2_40 
REMARK       I    between atoms: N_29  and  S1_71 
REMARK       I    between atoms: C5_31  and  C6_76 
REMARK       I    between atoms: O1S_35  and  S1_43 
REMARK       I    between atoms: O4_38  and  C4_93 
REMARK       I    between atoms: O4_38  and  C1_96 
REMARK       I    between atoms: O6_41  and  C6_54 
REMARK       I    between atoms: O6_41  and  S2_84 
REMARK       I    between atoms: C4_42  and  O4_49 
REMARK       I    between atoms: S1_43  and  N_47 
REMARK       I    between atoms: S1_43  and  O3S_69 
REMARK       I    between atoms: O2S_44  and  S1_71 
REMARK       I    between atoms: N_47  and  C2_56 
REMARK       I    between atoms: O2_48  and  C2_99 
REMARK       I    between atoms: O2_48  and  S_63 
REMARK       I    between atoms: O4_49  and  C1_57 
REMARK       I    between atoms: O4_51  and  C1_102 
REMARK       I    between atoms: O3S_52  and  S1_71 
REMARK       I    between atoms: O4_53  and  C1_105 
REMARK       I    between atoms: C6_54  and  C5_59 
REMARK       I    between atoms: O3_60  and  C3_100 
REMARK       I    between atoms: O1S_61  and  S1_71 
REMARK       I    between atoms: S2_62  and  O6_81 
REMARK       I    between atoms: C5_65  and  C6_89 
REMARK       I    between atoms: C6_67  and  C5_74 
REMARK       I    between atoms: C3_68  and  O3_104 
REMARK       I    between atoms: C3_70  and  O3_85 
REMARK       I    between atoms: C5_77  and  C6_101 
REMARK       I    between atoms: O6_81  and  C6_101 
REMARK       I    between atoms: C3_92  and  O3_98 
ROOT
ATOM      1  C2  IDS d1714     -18.415  -0.109 -27.881  0.00  0.00     0.132 C 
ATOM      2  O3S IDS d1714     -19.618   3.456 -27.181  0.00  0.00    -0.572 OA
ATOM      3  C1  IDS d1714     -19.274  -1.320 -27.629  0.00  0.00     0.161 C 
ATOM      4  O2S IDS d1714     -17.368   2.644 -27.619  0.00  0.00    -0.572 OA
ATOM      5  O2  IDS d1714     -19.206   1.055 -27.594  0.00  0.00    -0.244 OA
ATOM      6  S   IDS d1714     -18.665   2.348 -26.957  0.00  0.00     0.252 S 
ATOM      7  C6  IDS d1714     -21.057  -1.726 -30.862  0.00  0.00     0.203 C 
ATOM      8  O5  IDS d1714     -20.325  -1.338 -28.611  0.00  0.00    -0.343 OA
ATOM      9  C4  IDS d1714     -18.894  -0.420 -30.401  0.00  0.00    -0.005 C 
ATOM     10  O61 IDS d1714     -22.193  -1.812 -30.336  0.00  0.00    -0.646 OA
ATOM     11  C3  IDS d1714     -17.898  -0.002 -29.311  0.00  0.00     0.069 C 
ATOM     12  C5  IDS d1714     -19.862  -1.505 -29.949  0.00  0.00     0.127 C 
ATOM     13  O3  IDS d1714     -16.676  -0.747 -29.434  0.00  0.00    -0.393 OA
ATOM     14  O1S IDS d1714     -18.457   2.008 -25.545  0.00  0.00    -0.572 OA
ATOM     15  O62 IDS d1714     -20.889  -1.819 -32.101  0.00  0.00    -0.646 OA
ATOM     16  H   IDS d1714     -17.553  -0.194 -27.253  0.00  0.00     0.097 H 
ATOM     17  H   IDS d1714     -19.764  -1.343 -26.678  0.00  0.00     0.133 H 
ATOM     18  H   IDS d1714     -18.343  -0.784 -31.243  0.00  0.00     0.041 H 
ATOM     19  H   IDS d1714     -19.478   0.443 -30.645  0.00  0.00     0.041 H 
ATOM     20  H   IDS d1714     -17.731   1.041 -29.483  0.00  0.00     0.087 H 
ATOM     21  H   IDS d1714     -19.253  -2.384 -30.003  0.00  0.00     0.100 H 
ATOM     22  H   IDS d1714     -16.853  -1.688 -29.274  0.00  0.00     0.210 HD
ATOM     23  O5  SGN d1709      -4.311 -14.768 -25.855  0.00  0.00    -0.350 OA
ATOM     24  O2S SGN d1709      -3.666 -16.045 -30.337  0.00  0.00    -0.296 OA
ATOM     25  O4S SGN d1709      -4.422 -14.020 -20.715  0.00  0.00    -0.572 OA
ATOM     26  O1  SGN d1709      -2.650 -14.068 -27.371  0.00  0.00    -0.369 OA
ATOM     27  O6  SGN d1709      -3.907 -14.526 -23.050  0.00  0.00    -0.254 OA
ATOM     28  C4  SGN d1709      -5.573 -12.755 -25.917  0.00  0.00     0.095 C 
ATOM     29  C5  SGN d1709      -4.475 -13.523 -25.175  0.00  0.00     0.091 C 
ATOM     30  C1  SGN d1709      -3.920 -14.697 -27.225  0.00  0.00     0.147 C 
ATOM     31  O5S SGN d1709      -2.823 -15.924 -21.245  0.00  0.00    -0.572 OA
ATOM     32  O1S SGN d1709      -4.665 -14.451 -31.805  0.00  0.00    -0.296 OA
ATOM     33  S1  SGN d1709      -4.686 -15.040 -30.485  0.00  0.00     0.156 S 
ATOM     34  N   SGN d1709      -4.549 -13.853 -29.429  0.00  0.00    -0.210 NA
ATOM     35  O4  SGN d1709      -5.564 -11.459 -25.295  0.00  0.00    -0.348 OA
ATOM     36  C2  SGN d1709      -4.985 -13.961 -28.042  0.00  0.00     0.081 C 
ATOM     37  C3  SGN d1709      -5.245 -12.597 -27.391  0.00  0.00     0.083 C 
ATOM     38  O3S SGN d1709      -6.075 -15.701 -30.204  0.00  0.00    -0.296 OA
ATOM     39  C6  SGN d1709      -4.938 -13.856 -23.752  0.00  0.00     0.067 C 
ATOM     40  S2  SGN d1709      -4.191 -15.114 -21.656  0.00  0.00     0.251 S 
ATOM     41  O6S SGN d1709      -5.288 -16.084 -21.790  0.00  0.00    -0.572 OA
ATOM     42  O3  SGN d1709      -6.352 -12.011 -28.078  0.00  0.00    -0.391 OA
ATOM     43  H   SGN d1709      -2.796 -15.651 -30.508  0.00  0.00     0.231 HD
ATOM     44  H   SGN d1709      -1.989 -14.547 -26.848  0.00  0.00     0.212 HD
ATOM     45  H   SGN d1709      -6.514 -13.260 -25.864  0.00  0.00     0.091 H 
ATOM     46  H   SGN d1709      -3.579 -12.940 -25.142  0.00  0.00     0.090 H 
ATOM     47  H   SGN d1709      -3.829 -15.697 -27.597  0.00  0.00     0.131 H 
ATOM     48  H   SGN d1709      -3.797 -14.046 -31.965  0.00  0.00     0.231 HD
ATOM     49  H   SGN d1709      -5.064 -13.067 -29.824  0.00  0.00     0.140 HD
ATOM     50  H   SGN d1709      -5.909 -14.501 -28.049  0.00  0.00     0.076 H 
ATOM     51  H   SGN d1709      -4.374 -11.980 -27.462  0.00  0.00     0.089 H 
ATOM     52  H   SGN d1709      -6.215 -16.436 -30.821  0.00  0.00     0.231 HD
ATOM     53  H   SGN d1709      -5.186 -12.950 -23.238  0.00  0.00     0.080 H 
ATOM     54  H   SGN d1709      -5.798 -14.490 -23.803  0.00  0.00     0.080 H 
ATOM     55  H   SGN d1709      -7.125 -12.591 -27.998  0.00  0.00     0.210 HD
ATOM     56  O1S IDS d1712     -15.281  -5.282 -31.355  0.00  0.00    -0.572 OA
ATOM     57  O2S IDS d1712     -14.251  -7.494 -31.056  0.00  0.00    -0.572 OA
ATOM     58  O61 IDS d1712     -16.389  -7.104 -23.638  0.00  0.00    -0.646 OA
ATOM     59  O5  IDS d1712     -14.348  -5.728 -26.227  0.00  0.00    -0.340 OA
ATOM     60  C4  IDS d1712     -16.049  -7.416 -26.529  0.00  0.00     0.103 C 
ATOM     61  O2  IDS d1712     -14.858  -6.104 -29.186  0.00  0.00    -0.244 OA
ATOM     62  O4  IDS d1712     -16.930  -6.456 -27.126  0.00  0.00    -0.348 OA
ATOM     63  C1  IDS d1712     -13.479  -6.185 -27.253  0.00  0.00     0.161 C 
ATOM     64  S   IDS d1712     -15.266  -6.540 -30.598  0.00  0.00     0.252 S 
ATOM     65  C5  IDS d1712     -15.073  -6.758 -25.545  0.00  0.00     0.152 C 
ATOM     66  O62 IDS d1712     -15.693  -5.055 -24.008  0.00  0.00    -0.646 OA
ATOM     67  O3S IDS d1712     -16.616  -7.168 -30.477  0.00  0.00    -0.572 OA
ATOM     68  C6  IDS d1712     -15.762  -6.259 -24.314  0.00  0.00     0.206 C 
ATOM     69  C3  IDS d1712     -15.223  -8.034 -27.648  0.00  0.00     0.094 C 
ATOM     70  O3  IDS d1712     -14.469  -9.140 -27.130  0.00  0.00    -0.390 OA
ATOM     71  C2  IDS d1712     -14.235  -7.009 -28.262  0.00  0.00     0.134 C 
ATOM     72  H   IDS d1712     -16.636  -8.136 -25.998  0.00  0.00     0.092 H 
ATOM     73  H   IDS d1712     -13.060  -5.320 -27.725  0.00  0.00     0.133 H 
ATOM     74  H   IDS d1712     -14.377  -7.494 -25.197  0.00  0.00     0.104 H 
ATOM     75  H   IDS d1712     -15.900  -8.357 -28.412  0.00  0.00     0.091 H 
ATOM     76  H   IDS d1712     -13.864  -8.824 -26.441  0.00  0.00     0.210 HD
ATOM     77  H   IDS d1712     -13.540  -7.639 -28.778  0.00  0.00     0.097 H 
ATOM     78  O62 IDS d1710      -9.173 -10.151 -27.798  0.00  0.00    -0.646 OA
ATOM     79  O2  IDS d1710      -7.716  -9.635 -22.994  0.00  0.00    -0.244 OA
ATOM     80  O1S IDS d1710      -9.276 -10.104 -21.130  0.00  0.00    -0.572 OA
ATOM     81  C3  IDS d1710      -6.223  -8.542 -24.547  0.00  0.00     0.094 C 
ATOM     82  O3  IDS d1710      -4.873  -8.555 -25.014  0.00  0.00    -0.390 OA
ATOM     83  O4  IDS d1710      -8.475  -7.930 -25.258  0.00  0.00    -0.348 OA
ATOM     84  O5  IDS d1710      -7.706 -10.621 -25.792  0.00  0.00    -0.340 OA
ATOM     85  C6  IDS d1710      -8.152  -9.416 -27.799  0.00  0.00     0.206 C 
ATOM     86  O2S IDS d1710      -7.738 -11.830 -21.919  0.00  0.00    -0.572 OA
ATOM     87  C5  IDS d1710      -7.246  -9.521 -26.601  0.00  0.00     0.152 C 
ATOM     88  S   IDS d1710      -7.930 -10.393 -21.634  0.00  0.00     0.252 S 
ATOM     89  C2  IDS d1710      -6.553  -9.847 -23.807  0.00  0.00     0.134 C 
ATOM     90  O3S IDS d1710      -6.859  -9.856 -20.790  0.00  0.00    -0.572 OA
ATOM     91  C4  IDS d1710      -7.161  -8.262 -25.725  0.00  0.00     0.103 C 
ATOM     92  C1  IDS d1710      -6.823 -11.032 -24.748  0.00  0.00     0.161 C 
ATOM     93  O61 IDS d1710      -7.878  -8.610 -28.716  0.00  0.00    -0.646 OA
ATOM     94  H   IDS d1710      -6.360  -7.756 -23.833  0.00  0.00     0.091 H 
ATOM     95  H   IDS d1710      -4.761  -9.270 -25.660  0.00  0.00     0.210 HD
ATOM     96  H   IDS d1710      -6.257  -9.665 -26.986  0.00  0.00     0.104 H 
ATOM     97  H   IDS d1710      -5.694 -10.099 -23.219  0.00  0.00     0.097 H 
ATOM     98  H   IDS d1710      -6.777  -7.437 -26.287  0.00  0.00     0.092 H 
ATOM     99  H   IDS d1710      -7.283 -11.840 -24.219  0.00  0.00     0.133 H 
ATOM    100  C4  SGN d1713     -18.924  -3.668 -27.279  0.00  0.00     0.095 C 
ATOM    101  N   SGN d1713     -19.122  -7.079 -28.805  0.00  0.00    -0.210 NA
ATOM    102  O4S SGN d1713     -19.640  -0.646 -23.981  0.00  0.00    -0.572 OA
ATOM    103  O4  SGN d1713     -18.360  -2.426 -27.733  0.00  0.00    -0.348 OA
ATOM    104  C2  SGN d1713     -19.217  -6.077 -27.772  0.00  0.00     0.081 C 
ATOM    105  O6  SGN d1713     -19.548  -3.124 -24.530  0.00  0.00    -0.254 OA
ATOM    106  O2S SGN d1713     -21.191  -8.149 -28.223  0.00  0.00    -0.296 OA
ATOM    107  O3S SGN d1713     -19.836  -9.128 -30.188  0.00  0.00    -0.296 OA
ATOM    108  C6  SGN d1713     -18.163  -3.167 -24.897  0.00  0.00     0.067 C 
ATOM    109  O5S SGN d1713     -19.038  -2.233 -22.207  0.00  0.00    -0.572 OA
ATOM    110  C5  SGN d1713     -18.002  -4.055 -26.095  0.00  0.00     0.091 C 
ATOM    111  O3  SGN d1713     -19.951  -4.398 -29.300  0.00  0.00    -0.391 OA
ATOM    112  O1S SGN d1713     -19.137  -9.331 -27.835  0.00  0.00    -0.296 OA
ATOM    113  S1  SGN d1713     -19.886  -8.484 -28.718  0.00  0.00     0.156 S 
ATOM    114  O5  SGN d1713     -18.360  -5.373 -25.621  0.00  0.00    -0.349 OA
ATOM    115  S2  SGN d1713     -19.950  -2.009 -23.503  0.00  0.00     0.251 S 
ATOM    116  O6S SGN d1713     -21.349  -2.265 -23.243  0.00  0.00    -0.572 OA
ATOM    117  C3  SGN d1713     -18.904  -4.724 -28.381  0.00  0.00     0.083 C 
ATOM    118  C1  SGN d1713     -18.271  -6.391 -26.607  0.00  0.00     0.150 C 
ATOM    119  H   SGN d1713     -19.953  -3.589 -26.998  0.00  0.00     0.091 H 
ATOM    120  H   SGN d1713     -18.130  -7.301 -28.893  0.00  0.00     0.140 HD
ATOM    121  H   SGN d1713     -20.210  -6.069 -27.372  0.00  0.00     0.076 H 
ATOM    122  H   SGN d1713     -21.642  -7.577 -28.863  0.00  0.00     0.231 HD
ATOM    123  H   SGN d1713     -20.337  -8.569 -30.803  0.00  0.00     0.231 HD
ATOM    124  H   SGN d1713     -17.589  -3.556 -24.082  0.00  0.00     0.080 H 
ATOM    125  H   SGN d1713     -17.820  -2.181 -25.131  0.00  0.00     0.080 H 
ATOM    126  H   SGN d1713     -17.004  -3.981 -26.475  0.00  0.00     0.090 H 
ATOM    127  H   SGN d1713     -19.771  -3.533 -29.703  0.00  0.00     0.210 HD
ATOM    128  H   SGN d1713     -19.154  -8.960 -26.938  0.00  0.00     0.231 HD
ATOM    129  H   SGN d1713     -17.950  -4.751 -28.865  0.00  0.00     0.089 H 
ATOM    130  H   SGN d1713     -18.538  -7.323 -26.155  0.00  0.00     0.131 H 
ATOM    131  C2  SGN d1711      -9.793  -6.274 -24.190  0.00  0.00     0.081 C 
ATOM    132  O4S SGN d1711     -11.933  -4.132 -30.085  0.00  0.00    -0.572 OA
ATOM    133  S1  SGN d1711      -8.650  -5.876 -21.827  0.00  0.00     0.156 S 
ATOM    134  C3  SGN d1711     -11.143  -6.804 -24.706  0.00  0.00     0.083 C 
ATOM    135  O2S SGN d1711      -9.633  -4.948 -21.360  0.00  0.00    -0.296 OA
ATOM    136  O3  SGN d1711     -12.210  -6.442 -23.823  0.00  0.00    -0.391 OA
ATOM    137  N   SGN d1711      -9.419  -6.812 -22.884  0.00  0.00    -0.210 NA
ATOM    138  C4  SGN d1711     -11.386  -6.213 -26.105  0.00  0.00     0.095 C 
ATOM    139  O4  SGN d1711     -12.438  -6.995 -26.710  0.00  0.00    -0.348 OA
ATOM    140  O6S SGN d1711     -10.441  -2.448 -29.360  0.00  0.00    -0.572 OA
ATOM    141  S2  SGN d1711     -10.561  -3.810 -29.679  0.00  0.00     0.251 S 
ATOM    142  O5  SGN d1711      -9.021  -5.976 -26.473  0.00  0.00    -0.349 OA
ATOM    143  C5  SGN d1711     -10.201  -6.569 -27.048  0.00  0.00     0.091 C 
ATOM    144  O1S SGN d1711      -7.519  -5.273 -22.503  0.00  0.00    -0.296 OA
ATOM    145  O6  SGN d1711     -10.333  -4.621 -28.385  0.00  0.00    -0.254 OA
ATOM    146  O5S SGN d1711      -9.519  -4.385 -30.740  0.00  0.00    -0.572 OA
ATOM    147  O3S SGN d1711      -8.148  -6.896 -20.710  0.00  0.00    -0.296 OA
ATOM    148  C1  SGN d1711      -8.657  -6.512 -25.205  0.00  0.00     0.150 C 
ATOM    149  C6  SGN d1711     -10.283  -6.039 -28.480  0.00  0.00     0.067 C 
ATOM    150  H   SGN d1711      -9.934  -5.220 -24.070  0.00  0.00     0.076 H 
ATOM    151  H   SGN d1711     -11.115  -7.873 -24.752  0.00  0.00     0.089 H 
ATOM    152  H   SGN d1711      -9.893  -4.360 -22.086  0.00  0.00     0.231 HD
ATOM    153  H   SGN d1711     -12.264  -5.476 -23.759  0.00  0.00     0.210 HD
ATOM    154  H   SGN d1711      -8.819  -7.618 -23.057  0.00  0.00     0.140 HD
ATOM    155  H   SGN d1711     -11.559  -5.162 -26.000  0.00  0.00     0.091 H 
ATOM    156  H   SGN d1711     -10.205  -7.636 -27.123  0.00  0.00     0.090 H 
ATOM    157  H   SGN d1711      -7.838  -4.655 -23.180  0.00  0.00     0.231 HD
ATOM    158  H   SGN d1711      -7.486  -7.493 -21.092  0.00  0.00     0.231 HD
ATOM    159  H   SGN d1711      -7.747  -6.027 -24.922  0.00  0.00     0.131 H 
ATOM    160  H   SGN d1711     -11.165  -6.408 -28.961  0.00  0.00     0.080 H 
ATOM    161  H   SGN d1711      -9.442  -6.358 -29.060  0.00  0.00     0.080 H 
ENDROOT
TORSDOF 50
ENDMDL
MODEL 40
REMARK VINA RESULT:      -5.4      2.942     15.448
REMARK  0 active torsions:
REMARK  status: ('A' for Active; 'I' for Inactive)
REMARK       I    between atoms: C2_1  and  O2_12 
REMARK       I    between atoms: C1_4  and  O4_37 
REMARK       I    between atoms: O2S_5  and  S1_43 
REMARK       I    between atoms: O2_11  and  C2_82 
REMARK       I    between atoms: O2_11  and  S_80 
REMARK       I    between atoms: O2_12  and  S_23 
REMARK       I    between atoms: C4_13  and  O4_37 
REMARK       I    between atoms: C2_14  and  N_39 
REMARK       I    between atoms: O1_18  and  C1_32 
REMARK       I    between atoms: C4_19  and  O4_53 
REMARK       I    between atoms: O6_20  and  C6_76 
REMARK       I    between atoms: O6_20  and  S2_95 
REMARK       I    between atoms: S1_21  and  N_39 
REMARK       I    between atoms: S1_21  and  O1S_79 
REMARK       I    between atoms: S1_21  and  O2S_30 
REMARK       I    between atoms: S1_21  and  O3S_94 
REMARK       I    between atoms: C3_24  and  O3_26 
REMARK       I    between atoms: C3_25  and  O3_36 
REMARK       I    between atoms: C6_27  and  C5_83 
REMARK       I    between atoms: C4_28  and  O4_51 
REMARK       I    between atoms: N_29  and  C2_40 
REMARK       I    between atoms: N_29  and  S1_71 
REMARK       I    between atoms: C5_31  and  C6_76 
REMARK       I    between atoms: O1S_35  and  S1_43 
REMARK       I    between atoms: O4_38  and  C4_93 
REMARK       I    between atoms: O4_38  and  C1_96 
REMARK       I    between atoms: O6_41  and  C6_54 
REMARK       I    between atoms: O6_41  and  S2_84 
REMARK       I    between atoms: C4_42  and  O4_49 
REMARK       I    between atoms: S1_43  and  N_47 
REMARK       I    between atoms: S1_43  and  O3S_69 
REMARK       I    between atoms: O2S_44  and  S1_71 
REMARK       I    between atoms: N_47  and  C2_56 
REMARK       I    between atoms: O2_48  and  C2_99 
REMARK       I    between atoms: O2_48  and  S_63 
REMARK       I    between atoms: O4_49  and  C1_57 
REMARK       I    between atoms: O4_51  and  C1_102 
REMARK       I    between atoms: O3S_52  and  S1_71 
REMARK       I    between atoms: O4_53  and  C1_105 
REMARK       I    between atoms: C6_54  and  C5_59 
REMARK       I    between atoms: O3_60  and  C3_100 
REMARK       I    between atoms: O1S_61  and  S1_71 
REMARK       I    between atoms: S2_62  and  O6_81 
REMARK       I    between atoms: C5_65  and  C6_89 
REMARK       I    between atoms: C6_67  and  C5_74 
REMARK       I    between atoms: C3_68  and  O3_104 
REMARK       I    between atoms: C3_70  and  O3_85 
REMARK       I    between atoms: C5_77  and  C6_101 
REMARK       I    between atoms: O6_81  and  C6_101 
REMARK       I    between atoms: C3_92  and  O3_98 
ROOT
ATOM      1  C2  IDS d1714      -8.407 -13.039 -23.602  0.00  0.00     0.132 C 
ATOM      2  O3S IDS d1714      -6.004 -14.165 -20.844  0.00  0.00    -0.572 OA
ATOM      3  C1  IDS d1714      -7.945 -12.290 -24.824  0.00  0.00     0.161 C 
ATOM      4  O2S IDS d1714      -8.433 -14.054 -20.824  0.00  0.00    -0.572 OA
ATOM      5  O2  IDS d1714      -7.242 -13.376 -22.831  0.00  0.00    -0.244 OA
ATOM      6  S   IDS d1714      -7.185 -13.397 -21.293  0.00  0.00     0.252 S 
ATOM      7  C6  IDS d1714      -7.158 -15.036 -27.199  0.00  0.00     0.203 C 
ATOM      8  O5  IDS d1714      -7.204 -13.200 -25.656  0.00  0.00    -0.343 OA
ATOM      9  C4  IDS d1714      -8.630 -15.136 -25.096  0.00  0.00    -0.005 C 
ATOM     10  O61 IDS d1714      -6.022 -14.590 -27.489  0.00  0.00    -0.646 OA
ATOM     11  C3  IDS d1714      -9.169 -14.323 -23.912  0.00  0.00     0.069 C 
ATOM     12  C5  IDS d1714      -7.984 -14.276 -26.174  0.00  0.00     0.127 C 
ATOM     13  O3  IDS d1714     -10.560 -14.017 -24.103  0.00  0.00    -0.393 OA
ATOM     14  O1S IDS d1714      -7.168 -11.983 -20.902  0.00  0.00    -0.572 OA
ATOM     15  O62 IDS d1714      -7.620 -16.075 -27.728  0.00  0.00    -0.646 OA
ATOM     16  H   IDS d1714      -9.086 -12.403 -23.076  0.00  0.00     0.097 H 
ATOM     17  H   IDS d1714      -7.288 -11.467 -24.636  0.00  0.00     0.133 H 
ATOM     18  H   IDS d1714      -9.442 -15.677 -25.535  0.00  0.00     0.041 H 
ATOM     19  H   IDS d1714      -7.871 -15.787 -24.714  0.00  0.00     0.041 H 
ATOM     20  H   IDS d1714      -9.029 -14.957 -23.062  0.00  0.00     0.087 H 
ATOM     21  H   IDS d1714      -8.837 -13.877 -26.683  0.00  0.00     0.100 H 
ATOM     22  H   IDS d1714     -10.661 -13.442 -24.878  0.00  0.00     0.210 HD
ATOM     23  O5  SGN d1709     -25.618  -3.625 -29.351  0.00  0.00    -0.350 OA
ATOM     24  O2S SGN d1709     -27.624  -6.935 -32.025  0.00  0.00    -0.296 OA
ATOM     25  O4S SGN d1709     -24.124   0.542 -26.631  0.00  0.00    -0.572 OA
ATOM     26  O1  SGN d1709     -27.264  -5.205 -28.767  0.00  0.00    -0.369 OA
ATOM     27  O6  SGN d1709     -25.283  -1.250 -27.823  0.00  0.00    -0.254 OA
ATOM     28  C4  SGN d1709     -23.827  -4.693 -28.210  0.00  0.00     0.095 C 
ATOM     29  C5  SGN d1709     -24.917  -3.621 -28.107  0.00  0.00     0.091 C 
ATOM     30  C1  SGN d1709     -26.263  -4.845 -29.714  0.00  0.00     0.147 C 
ATOM     31  O5S SGN d1709     -26.323   1.054 -27.799  0.00  0.00    -0.572 OA
ATOM     32  O1S SGN d1709     -26.525  -9.031 -31.714  0.00  0.00    -0.296 OA
ATOM     33  S1  SGN d1709     -26.397  -7.592 -31.655  0.00  0.00     0.156 S 
ATOM     34  N   SGN d1709     -25.908  -7.215 -30.185  0.00  0.00    -0.210 NA
ATOM     35  O4  SGN d1709     -23.283  -4.756 -26.881  0.00  0.00    -0.348 OA
ATOM     36  C2  SGN d1709     -25.230  -5.965 -29.863  0.00  0.00     0.081 C 
ATOM     37  C3  SGN d1709     -24.410  -6.049 -28.570  0.00  0.00     0.083 C 
ATOM     38  O3S SGN d1709     -25.266  -7.103 -32.618  0.00  0.00    -0.296 OA
ATOM     39  C6  SGN d1709     -24.277  -2.236 -27.965  0.00  0.00     0.067 C 
ATOM     40  S2  SGN d1709     -24.897   0.241 -27.834  0.00  0.00     0.251 S 
ATOM     41  O6S SGN d1709     -24.227   0.524 -29.111  0.00  0.00    -0.572 OA
ATOM     42  O3  SGN d1709     -23.357  -6.986 -28.803  0.00  0.00    -0.391 OA
ATOM     43  H   SGN d1709     -28.338  -7.227 -31.436  0.00  0.00     0.231 HD
ATOM     44  H   SGN d1709     -27.908  -4.485 -28.687  0.00  0.00     0.212 HD
ATOM     45  H   SGN d1709     -23.110  -4.456 -28.968  0.00  0.00     0.091 H 
ATOM     46  H   SGN d1709     -25.549  -3.822 -27.267  0.00  0.00     0.090 H 
ATOM     47  H   SGN d1709     -26.749  -4.696 -30.656  0.00  0.00     0.131 H 
ATOM     48  H   SGN d1709     -27.230  -9.318 -31.112  0.00  0.00     0.231 HD
ATOM     49  H   SGN d1709     -25.271  -7.959 -29.903  0.00  0.00     0.140 HD
ATOM     50  H   SGN d1709     -24.553  -5.763 -30.667  0.00  0.00     0.076 H 
ATOM     51  H   SGN d1709     -25.030  -6.357 -27.755  0.00  0.00     0.089 H 
ATOM     52  H   SGN d1709     -25.511  -7.307 -33.534  0.00  0.00     0.231 HD
ATOM     53  H   SGN d1709     -23.645  -2.223 -27.102  0.00  0.00     0.080 H 
ATOM     54  H   SGN d1709     -23.700  -2.025 -28.840  0.00  0.00     0.080 H 
ATOM     55  H   SGN d1709     -22.812  -6.681 -29.545  0.00  0.00     0.210 HD
ATOM     56  O1S IDS d1712     -13.722 -13.499 -28.094  0.00  0.00    -0.572 OA
ATOM     57  O2S IDS d1712     -15.309 -12.140 -29.389  0.00  0.00    -0.572 OA
ATOM     58  O61 IDS d1712     -11.553  -5.902 -26.796  0.00  0.00    -0.646 OA
ATOM     59  O5  IDS d1712     -13.574  -8.727 -25.957  0.00  0.00    -0.340 OA
ATOM     60  C4  IDS d1712     -12.614  -8.283 -28.128  0.00  0.00     0.103 C 
ATOM     61  O2  IDS d1712     -13.888 -11.180 -27.700  0.00  0.00    -0.244 OA
ATOM     62  O4  IDS d1712     -11.631  -9.306 -27.929  0.00  0.00    -0.348 OA
ATOM     63  C1  IDS d1712     -14.750  -9.370 -26.425  0.00  0.00     0.161 C 
ATOM     64  S   IDS d1712     -13.968 -12.238 -28.806  0.00  0.00     0.252 S 
ATOM     65  C5  IDS d1712     -13.083  -7.677 -26.799  0.00  0.00     0.152 C 
ATOM     66  O62 IDS d1712     -11.623  -7.159 -24.997  0.00  0.00    -0.646 OA
ATOM     67  O3S IDS d1712     -12.899 -11.904 -29.794  0.00  0.00    -0.572 OA
ATOM     68  C6  IDS d1712     -12.013  -6.864 -26.140  0.00  0.00     0.206 C 
ATOM     69  C3  IDS d1712     -13.823  -8.935 -28.785  0.00  0.00     0.094 C 
ATOM     70  O3  IDS d1712     -14.754  -7.919 -29.186  0.00  0.00    -0.390 OA
ATOM     71  C2  IDS d1712     -14.544  -9.909 -27.817  0.00  0.00     0.134 C 
ATOM     72  H   IDS d1712     -12.184  -7.506 -28.725  0.00  0.00     0.092 H 
ATOM     73  H   IDS d1712     -14.966 -10.172 -25.749  0.00  0.00     0.133 H 
ATOM     74  H   IDS d1712     -13.880  -6.989 -26.989  0.00  0.00     0.104 H 
ATOM     75  H   IDS d1712     -13.474  -9.489 -29.631  0.00  0.00     0.091 H 
ATOM     76  H   IDS d1712     -15.056  -7.431 -28.404  0.00  0.00     0.210 HD
ATOM     77  H   IDS d1712     -15.500 -10.030 -28.282  0.00  0.00     0.097 H 
ATOM     78  O62 IDS d1710     -20.103  -7.760 -28.248  0.00  0.00    -0.646 OA
ATOM     79  O2  IDS d1710     -20.202  -3.700 -25.252  0.00  0.00    -0.244 OA
ATOM     80  O1S IDS d1710     -18.498  -1.917 -25.462  0.00  0.00    -0.572 OA
ATOM     81  C3  IDS d1710     -21.577  -5.506 -24.426  0.00  0.00     0.094 C 
ATOM     82  O3  IDS d1710     -22.929  -5.843 -24.109  0.00  0.00    -0.390 OA
ATOM     83  O4  IDS d1710     -19.467  -6.536 -25.090  0.00  0.00    -0.348 OA
ATOM     84  O5  IDS d1710     -21.154  -5.698 -27.228  0.00  0.00    -0.340 OA
ATOM     85  C6  IDS d1710     -20.809  -8.056 -27.250  0.00  0.00     0.206 C 
ATOM     86  O2S IDS d1710     -20.642  -1.720 -26.616  0.00  0.00    -0.572 OA
ATOM     87  C5  IDS d1710     -21.408  -6.906 -26.485  0.00  0.00     0.152 C 
ATOM     88  S   IDS d1710     -19.942  -2.157 -25.391  0.00  0.00     0.252 S 
ATOM     89  C2  IDS d1710     -21.523  -4.256 -25.317  0.00  0.00     0.134 C 
ATOM     90  O3S IDS d1710     -20.568  -1.612 -24.182  0.00  0.00    -0.572 OA
ATOM     91  C4  IDS d1710     -20.888  -6.723 -25.051  0.00  0.00     0.103 C 
ATOM     92  C1  IDS d1710     -21.864  -4.540 -26.789  0.00  0.00     0.161 C 
ATOM     93  O61 IDS d1710     -21.009  -9.229 -26.864  0.00  0.00    -0.646 OA
ATOM     94  H   IDS d1710     -21.040  -5.256 -23.534  0.00  0.00     0.091 H 
ATOM     95  H   IDS d1710     -23.405  -6.069 -24.924  0.00  0.00     0.210 HD
ATOM     96  H   IDS d1710     -22.450  -7.126 -26.381  0.00  0.00     0.104 H 
ATOM     97  H   IDS d1710     -22.263  -3.576 -24.946  0.00  0.00     0.097 H 
ATOM     98  H   IDS d1710     -21.104  -7.588 -24.459  0.00  0.00     0.092 H 
ATOM     99  H   IDS d1710     -21.580  -3.717 -27.410  0.00  0.00     0.133 H 
ATOM    100  C4  SGN d1713      -8.939 -10.857 -26.473  0.00  0.00     0.095 C 
ATOM    101  N   SGN d1713     -10.188 -10.602 -29.992  0.00  0.00    -0.210 NA
ATOM    102  O4S SGN d1713      -6.576  -9.416 -22.887  0.00  0.00    -0.572 OA
ATOM    103  O4  SGN d1713      -9.164 -11.814 -25.424  0.00  0.00    -0.348 OA
ATOM    104  C2  SGN d1713      -9.548 -10.170 -28.772  0.00  0.00     0.081 C 
ATOM    105  O6  SGN d1713      -7.574  -8.726 -25.119  0.00  0.00    -0.254 OA
ATOM    106  O2S SGN d1713      -8.493  -9.691 -31.428  0.00  0.00    -0.296 OA
ATOM    107  O3S SGN d1713     -10.494 -10.890 -32.530  0.00  0.00    -0.296 OA
ATOM    108  C6  SGN d1713      -8.945  -8.958 -24.772  0.00  0.00     0.067 C 
ATOM    109  O5S SGN d1713      -7.239  -7.075 -23.218  0.00  0.00    -0.572 OA
ATOM    110  C5  SGN d1713      -9.646  -9.585 -25.939  0.00  0.00     0.091 C 
ATOM    111  O3  SGN d1713      -8.679 -12.345 -28.315  0.00  0.00    -0.391 OA
ATOM    112  O1S SGN d1713     -10.675  -8.687 -31.443  0.00  0.00    -0.296 OA
ATOM    113  S1  SGN d1713      -9.913  -9.902 -31.405  0.00  0.00     0.156 S 
ATOM    114  O5  SGN d1713      -9.631  -8.565 -26.964  0.00  0.00    -0.349 OA
ATOM    115  S2  SGN d1713      -6.617  -8.367 -23.928  0.00  0.00     0.251 S 
ATOM    116  O6S SGN d1713      -5.353  -8.089 -24.571  0.00  0.00    -0.572 OA
ATOM    117  C3  SGN d1713      -9.542 -11.329 -27.794  0.00  0.00     0.083 C 
ATOM    118  C1  SGN d1713     -10.259  -8.949 -28.178  0.00  0.00     0.150 C 
ATOM    119  H   SGN d1713      -7.903 -10.699 -26.688  0.00  0.00     0.091 H 
ATOM    120  H   SGN d1713     -11.192 -10.525 -29.828  0.00  0.00     0.140 HD
ATOM    121  H   SGN d1713      -8.542  -9.872 -28.983  0.00  0.00     0.076 H 
ATOM    122  H   SGN d1713      -8.039 -10.547 -31.400  0.00  0.00     0.231 HD
ATOM    123  H   SGN d1713      -9.992 -11.720 -32.521  0.00  0.00     0.231 HD
ATOM    124  H   SGN d1713      -9.416  -8.028 -24.529  0.00  0.00     0.080 H 
ATOM    125  H   SGN d1713      -8.999  -9.611 -23.926  0.00  0.00     0.080 H 
ATOM    126  H   SGN d1713     -10.627  -9.904 -25.652  0.00  0.00     0.090 H 
ATOM    127  H   SGN d1713      -8.660 -13.098 -27.703  0.00  0.00     0.210 HD
ATOM    128  H   SGN d1713     -10.340  -8.073 -30.770  0.00  0.00     0.231 HD
ATOM    129  H   SGN d1713     -10.537 -11.693 -27.650  0.00  0.00     0.089 H 
ATOM    130  H   SGN d1713     -10.208  -8.124 -28.859  0.00  0.00     0.131 H 
ATOM    131  C2  SGN d1711     -17.485  -6.444 -23.793  0.00  0.00     0.081 C 
ATOM    132  O4S SGN d1711     -16.154 -12.753 -25.324  0.00  0.00    -0.572 OA
ATOM    133  S1  SGN d1711     -17.881  -4.492 -22.036  0.00  0.00     0.156 S 
ATOM    134  C3  SGN d1711     -16.527  -6.717 -24.967  0.00  0.00     0.083 C 
ATOM    135  O2S SGN d1711     -16.575  -4.569 -21.459  0.00  0.00    -0.296 OA
ATOM    136  O3  SGN d1711     -15.231  -6.164 -24.713  0.00  0.00    -0.391 OA
ATOM    137  N   SGN d1711     -17.709  -5.021 -23.545  0.00  0.00    -0.210 NA
ATOM    138  C4  SGN d1711     -16.429  -8.239 -25.159  0.00  0.00     0.095 C 
ATOM    139  O4  SGN d1711     -15.845  -8.457 -26.462  0.00  0.00    -0.348 OA
ATOM    140  O6S SGN d1711     -16.827 -12.832 -23.059  0.00  0.00    -0.572 OA
ATOM    141  S2  SGN d1711     -17.223 -12.477 -24.358  0.00  0.00     0.251 S 
ATOM    142  O5  SGN d1711     -18.613  -8.555 -24.204  0.00  0.00    -0.349 OA
ATOM    143  C5  SGN d1711     -17.845  -8.841 -25.388  0.00  0.00     0.091 C 
ATOM    144  O1S SGN d1711     -18.882  -5.315 -21.385  0.00  0.00    -0.296 OA
ATOM    145  O6  SGN d1711     -17.402 -10.944 -24.397  0.00  0.00    -0.254 OA
ATOM    146  O5S SGN d1711     -18.603 -13.087 -24.871  0.00  0.00    -0.572 OA
ATOM    147  O3S SGN d1711     -18.418  -3.003 -22.214  0.00  0.00    -0.296 OA
ATOM    148  C1  SGN d1711     -18.835  -7.167 -23.973  0.00  0.00     0.150 C 
ATOM    149  C6  SGN d1711     -17.921 -10.357 -25.582  0.00  0.00     0.067 C 
ATOM    150  H   SGN d1711     -16.992  -6.843 -22.931  0.00  0.00     0.076 H 
ATOM    151  H   SGN d1711     -16.905  -6.252 -25.853  0.00  0.00     0.089 H 
ATOM    152  H   SGN d1711     -16.311  -5.499 -21.379  0.00  0.00     0.231 HD
ATOM    153  H   SGN d1711     -14.859  -6.566 -23.912  0.00  0.00     0.210 HD
ATOM    154  H   SGN d1711     -18.558  -4.763 -24.047  0.00  0.00     0.140 HD
ATOM    155  H   SGN d1711     -15.911  -8.651 -24.319  0.00  0.00     0.091 H 
ATOM    156  H   SGN d1711     -18.199  -8.404 -26.298  0.00  0.00     0.090 H 
ATOM    157  H   SGN d1711     -18.542  -6.218 -21.284  0.00  0.00     0.231 HD
ATOM    158  H   SGN d1711     -19.304  -3.024 -22.608  0.00  0.00     0.231 HD
ATOM    159  H   SGN d1711     -19.455  -7.100 -23.104  0.00  0.00     0.131 H 
ATOM    160  H   SGN d1711     -17.335 -10.650 -26.428  0.00  0.00     0.080 H 
ATOM    161  H   SGN d1711     -18.928 -10.673 -25.761  0.00  0.00     0.080 H 
ENDROOT
TORSDOF 50
ENDMDL
MODEL 41
REMARK VINA RESULT:      -5.3      5.319      9.603
REMARK  0 active torsions:
REMARK  status: ('A' for Active; 'I' for Inactive)
REMARK       I    between atoms: C2_1  and  O2_12 
REMARK       I    between atoms: C1_4  and  O4_37 
REMARK       I    between atoms: O2S_5  and  S1_43 
REMARK       I    between atoms: O2_11  and  C2_82 
REMARK       I    between atoms: O2_11  and  S_80 
REMARK       I    between atoms: O2_12  and  S_23 
REMARK       I    between atoms: C4_13  and  O4_37 
REMARK       I    between atoms: C2_14  and  N_39 
REMARK       I    between atoms: O1_18  and  C1_32 
REMARK       I    between atoms: C4_19  and  O4_53 
REMARK       I    between atoms: O6_20  and  C6_76 
REMARK       I    between atoms: O6_20  and  S2_95 
REMARK       I    between atoms: S1_21  and  N_39 
REMARK       I    between atoms: S1_21  and  O1S_79 
REMARK       I    between atoms: S1_21  and  O2S_30 
REMARK       I    between atoms: S1_21  and  O3S_94 
REMARK       I    between atoms: C3_24  and  O3_26 
REMARK       I    between atoms: C3_25  and  O3_36 
REMARK       I    between atoms: C6_27  and  C5_83 
REMARK       I    between atoms: C4_28  and  O4_51 
REMARK       I    between atoms: N_29  and  C2_40 
REMARK       I    between atoms: N_29  and  S1_71 
REMARK       I    between atoms: C5_31  and  C6_76 
REMARK       I    between atoms: O1S_35  and  S1_43 
REMARK       I    between atoms: O4_38  and  C4_93 
REMARK       I    between atoms: O4_38  and  C1_96 
REMARK       I    between atoms: O6_41  and  C6_54 
REMARK       I    between atoms: O6_41  and  S2_84 
REMARK       I    between atoms: C4_42  and  O4_49 
REMARK       I    between atoms: S1_43  and  N_47 
REMARK       I    between atoms: S1_43  and  O3S_69 
REMARK       I    between atoms: O2S_44  and  S1_71 
REMARK       I    between atoms: N_47  and  C2_56 
REMARK       I    between atoms: O2_48  and  C2_99 
REMARK       I    between atoms: O2_48  and  S_63 
REMARK       I    between atoms: O4_49  and  C1_57 
REMARK       I    between atoms: O4_51  and  C1_102 
REMARK       I    between atoms: O3S_52  and  S1_71 
REMARK       I    between atoms: O4_53  and  C1_105 
REMARK       I    between atoms: C6_54  and  C5_59 
REMARK       I    between atoms: O3_60  and  C3_100 
REMARK       I    between atoms: O1S_61  and  S1_71 
REMARK       I    between atoms: S2_62  and  O6_81 
REMARK       I    between atoms: C5_65  and  C6_89 
REMARK       I    between atoms: C6_67  and  C5_74 
REMARK       I    between atoms: C3_68  and  O3_104 
REMARK       I    between atoms: C3_70  and  O3_85 
REMARK       I    between atoms: C5_77  and  C6_101 
REMARK       I    between atoms: O6_81  and  C6_101 
REMARK       I    between atoms: C3_92  and  O3_98 
ROOT
ATOM      1  C2  IDS d1714     -22.017 -12.856 -25.545  0.00  0.00     0.132 C 
ATOM      2  O3S IDS d1714     -23.385 -16.097 -24.036  0.00  0.00    -0.572 OA
ATOM      3  C1  IDS d1714     -22.222 -12.484 -26.990  0.00  0.00     0.161 C 
ATOM      4  O2S IDS d1714     -21.738 -14.550 -23.136  0.00  0.00    -0.572 OA
ATOM      5  O2  IDS d1714     -22.732 -14.079 -25.304  0.00  0.00    -0.244 OA
ATOM      6  S   IDS d1714     -22.254 -15.204 -24.367  0.00  0.00     0.252 S 
ATOM      7  C6  IDS d1714     -25.423 -10.601 -26.886  0.00  0.00     0.203 C 
ATOM      8  O5  IDS d1714     -23.608 -12.143 -27.174  0.00  0.00    -0.343 OA
ATOM      9  C4  IDS d1714     -23.821 -11.106 -24.943  0.00  0.00    -0.005 C 
ATOM     10  O61 IDS d1714     -25.949 -11.254 -27.820  0.00  0.00    -0.646 OA
ATOM     11  C3  IDS d1714     -22.510 -11.805 -24.557  0.00  0.00     0.069 C 
ATOM     12  C5  IDS d1714     -24.019 -10.986 -26.449  0.00  0.00     0.127 C 
ATOM     13  O3  IDS d1714     -21.473 -10.838 -24.331  0.00  0.00    -0.393 OA
ATOM     14  O1S IDS d1714     -21.164 -15.859 -25.099  0.00  0.00    -0.572 OA
ATOM     15  O62 IDS d1714     -26.017  -9.654 -26.319  0.00  0.00    -0.646 OA
ATOM     16  H   IDS d1714     -20.963 -12.950 -25.387  0.00  0.00     0.097 H 
ATOM     17  H   IDS d1714     -22.017 -13.261 -27.696  0.00  0.00     0.133 H 
ATOM     18  H   IDS d1714     -23.818 -10.123 -24.521  0.00  0.00     0.041 H 
ATOM     19  H   IDS d1714     -24.623 -11.705 -24.565  0.00  0.00     0.041 H 
ATOM     20  H   IDS d1714     -22.742 -12.336 -23.658  0.00  0.00     0.087 H 
ATOM     21  H   IDS d1714     -23.373 -10.170 -26.694  0.00  0.00     0.100 H 
ATOM     22  H   IDS d1714     -21.280 -10.371 -25.160  0.00  0.00     0.210 HD
ATOM     23  O5  SGN d1709      -6.479   0.055 -28.672  0.00  0.00    -0.350 OA
ATOM     24  O2S SGN d1709      -8.371   4.124 -27.259  0.00  0.00    -0.296 OA
ATOM     25  O4S SGN d1709      -3.657  -3.934 -30.437  0.00  0.00    -0.572 OA
ATOM     26  O1  SGN d1709      -6.300   1.126 -26.582  0.00  0.00    -0.369 OA
ATOM     27  O6  SGN d1709      -4.546  -1.864 -29.487  0.00  0.00    -0.254 OA
ATOM     28  C4  SGN d1709      -7.970  -1.651 -27.952  0.00  0.00     0.095 C 
ATOM     29  C5  SGN d1709      -6.500  -1.289 -28.188  0.00  0.00     0.091 C 
ATOM     30  C1  SGN d1709      -7.023   1.051 -27.807  0.00  0.00     0.147 C 
ATOM     31  O5S SGN d1709      -2.293  -1.797 -30.632  0.00  0.00    -0.572 OA
ATOM     32  O1S SGN d1709     -10.404   3.727 -26.074  0.00  0.00    -0.296 OA
ATOM     33  S1  SGN d1709      -9.482   3.228 -27.070  0.00  0.00     0.156 S 
ATOM     34  N   SGN d1709      -9.034   1.767 -26.619  0.00  0.00    -0.210 NA
ATOM     35  O4  SGN d1709      -7.906  -2.935 -27.310  0.00  0.00    -0.348 OA
ATOM     36  C2  SGN d1709      -8.505   0.770 -27.543  0.00  0.00     0.081 C 
ATOM     37  C3  SGN d1709      -8.645  -0.663 -27.017  0.00  0.00     0.083 C 
ATOM     38  O3S SGN d1709     -10.207   3.046 -28.444  0.00  0.00    -0.296 OA
ATOM     39  C6  SGN d1709      -5.916  -2.166 -29.300  0.00  0.00     0.067 C 
ATOM     40  S2  SGN d1709      -3.779  -2.495 -30.664  0.00  0.00     0.251 S 
ATOM     41  O6S SGN d1709      -4.456  -2.100 -31.908  0.00  0.00    -0.572 OA
ATOM     42  O3  SGN d1709     -10.044  -0.944 -26.939  0.00  0.00    -0.391 OA
ATOM     43  H   SGN d1709      -7.909   4.249 -26.415  0.00  0.00     0.231 HD
ATOM     44  H   SGN d1709      -5.365   1.304 -26.768  0.00  0.00     0.212 HD
ATOM     45  H   SGN d1709      -8.530  -1.643 -28.864  0.00  0.00     0.091 H 
ATOM     46  H   SGN d1709      -5.942  -1.420 -27.285  0.00  0.00     0.090 H 
ATOM     47  H   SGN d1709      -6.933   2.000 -28.294  0.00  0.00     0.131 H 
ATOM     48  H   SGN d1709      -9.939   3.835 -25.229  0.00  0.00     0.231 HD
ATOM     49  H   SGN d1709      -9.856   1.342 -26.190  0.00  0.00     0.140 HD
ATOM     50  H   SGN d1709      -9.079   0.846 -28.443  0.00  0.00     0.076 H 
ATOM     51  H   SGN d1709      -8.177  -0.757 -26.060  0.00  0.00     0.089 H 
ATOM     52  H   SGN d1709     -10.505   3.910 -28.770  0.00  0.00     0.231 HD
ATOM     53  H   SGN d1709      -6.017  -3.197 -29.029  0.00  0.00     0.080 H 
ATOM     54  H   SGN d1709      -6.444  -1.977 -30.211  0.00  0.00     0.080 H 
ATOM     55  H   SGN d1709     -10.442  -0.852 -27.819  0.00  0.00     0.210 HD
ATOM     56  O1S IDS d1712     -20.455  -6.067 -25.881  0.00  0.00    -0.572 OA
ATOM     57  O2S IDS d1712     -18.950  -4.460 -26.974  0.00  0.00    -0.572 OA
ATOM     58  O61 IDS d1712     -16.211 -10.376 -31.128  0.00  0.00    -0.646 OA
ATOM     59  O5  IDS d1712     -16.553  -8.918 -27.884  0.00  0.00    -0.340 OA
ATOM     60  C4  IDS d1712     -17.614  -8.118 -29.901  0.00  0.00     0.103 C 
ATOM     61  O2  IDS d1712     -18.627  -6.839 -27.156  0.00  0.00    -0.244 OA
ATOM     62  O4  IDS d1712     -18.878  -8.639 -29.471  0.00  0.00    -0.348 OA
ATOM     63  C1  IDS d1712     -16.396  -7.649 -27.266  0.00  0.00     0.161 C 
ATOM     64  S   IDS d1712     -19.680  -5.727 -27.081  0.00  0.00     0.252 S 
ATOM     65  C5  IDS d1712     -16.441  -8.913 -29.312  0.00  0.00     0.152 C 
ATOM     66  O62 IDS d1712     -16.407 -11.283 -29.138  0.00  0.00    -0.646 OA
ATOM     67  O3S IDS d1712     -20.479  -5.811 -28.340  0.00  0.00    -0.572 OA
ATOM     68  C6  IDS d1712     -16.347 -10.292 -29.887  0.00  0.00     0.206 C 
ATOM     69  C3  IDS d1712     -17.507  -6.692 -29.380  0.00  0.00     0.094 C 
ATOM     70  O3  IDS d1712     -16.352  -6.061 -29.950  0.00  0.00    -0.390 OA
ATOM     71  C2  IDS d1712     -17.376  -6.656 -27.835  0.00  0.00     0.134 C 
ATOM     72  H   IDS d1712     -17.564  -8.177 -30.968  0.00  0.00     0.092 H 
ATOM     73  H   IDS d1712     -16.573  -7.781 -26.218  0.00  0.00     0.133 H 
ATOM     74  H   IDS d1712     -15.522  -8.434 -29.582  0.00  0.00     0.104 H 
ATOM     75  H   IDS d1712     -18.402  -6.176 -29.659  0.00  0.00     0.091 H 
ATOM     76  H   IDS d1712     -15.554  -6.545 -29.683  0.00  0.00     0.210 HD
ATOM     77  H   IDS d1712     -17.003  -5.668 -27.658  0.00  0.00     0.097 H 
ATOM     78  O62 IDS d1710     -12.477  -3.268 -27.360  0.00  0.00    -0.646 OA
ATOM     79  O2  IDS d1710      -8.607  -6.382 -28.252  0.00  0.00    -0.244 OA
ATOM     80  O1S IDS d1710      -8.557  -7.810 -30.273  0.00  0.00    -0.572 OA
ATOM     81  C3  IDS d1710      -8.673  -5.602 -25.967  0.00  0.00     0.094 C 
ATOM     82  O3  IDS d1710      -7.924  -4.855 -25.006  0.00  0.00    -0.390 OA
ATOM     83  O4  IDS d1710     -10.963  -6.244 -26.509  0.00  0.00    -0.348 OA
ATOM     84  O5  IDS d1710     -10.040  -3.838 -27.725  0.00  0.00    -0.340 OA
ATOM     85  C6  IDS d1710     -11.882  -3.438 -26.266  0.00  0.00     0.206 C 
ATOM     86  O2S IDS d1710      -7.439  -5.637 -30.266  0.00  0.00    -0.572 OA
ATOM     87  C5  IDS d1710     -10.446  -3.887 -26.343  0.00  0.00     0.152 C 
ATOM     88  S   IDS d1710      -7.767  -6.853 -29.493  0.00  0.00     0.252 S 
ATOM     89  C2  IDS d1710      -8.159  -5.327 -27.388  0.00  0.00     0.134 C 
ATOM     90  O3S IDS d1710      -6.576  -7.443 -28.874  0.00  0.00    -0.572 OA
ATOM     91  C4  IDS d1710     -10.164  -5.294 -25.794  0.00  0.00     0.103 C 
ATOM     92  C1  IDS d1710      -8.641  -3.985 -27.963  0.00  0.00     0.161 C 
ATOM     93  O61 IDS d1710     -12.422  -3.278 -25.149  0.00  0.00    -0.646 OA
ATOM     94  H   IDS d1710      -8.541  -6.651 -25.803  0.00  0.00     0.091 H 
ATOM     95  H   IDS d1710      -8.053  -3.906 -25.164  0.00  0.00     0.210 HD
ATOM     96  H   IDS d1710      -9.891  -3.222 -25.716  0.00  0.00     0.104 H 
ATOM     97  H   IDS d1710      -7.091  -5.282 -27.331  0.00  0.00     0.097 H 
ATOM     98  H   IDS d1710     -10.412  -5.349 -24.754  0.00  0.00     0.092 H 
ATOM     99  H   IDS d1710      -8.474  -3.943 -29.019  0.00  0.00     0.133 H 
ATOM    100  C4  SGN d1713     -21.170 -11.033 -28.586  0.00  0.00     0.095 C 
ATOM    101  N   SGN d1713     -21.402  -7.783 -30.425  0.00  0.00    -0.210 NA
ATOM    102  O4S SGN d1713     -20.473 -15.501 -28.305  0.00  0.00    -0.572 OA
ATOM    103  O4  SGN d1713     -21.319 -11.384 -27.200  0.00  0.00    -0.348 OA
ATOM    104  C2  SGN d1713     -21.099  -9.179 -30.225  0.00  0.00     0.081 C 
ATOM    105  O6  SGN d1713     -20.126 -13.441 -29.750  0.00  0.00    -0.254 OA
ATOM    106  O2S SGN d1713     -22.364  -8.107 -32.601  0.00  0.00    -0.296 OA
ATOM    107  O3S SGN d1713     -22.275  -5.704 -31.665  0.00  0.00    -0.296 OA
ATOM    108  C6  SGN d1713     -19.282 -12.729 -28.834  0.00  0.00     0.067 C 
ATOM    109  O5S SGN d1713     -18.559 -15.438 -29.842  0.00  0.00    -0.572 OA
ATOM    110  C5  SGN d1713     -19.662 -11.279 -28.846  0.00  0.00     0.091 C 
ATOM    111  O3  SGN d1713     -22.988  -9.510 -28.805  0.00  0.00    -0.391 OA
ATOM    112  O1S SGN d1713     -20.278  -6.928 -32.430  0.00  0.00    -0.296 OA
ATOM    113  S1  SGN d1713     -21.586  -7.140 -31.880  0.00  0.00     0.156 S 
ATOM    114  O5  SGN d1713     -19.327 -10.825 -30.176  0.00  0.00    -0.349 OA
ATOM    115  S2  SGN d1713     -20.087 -15.005 -29.643  0.00  0.00     0.251 S 
ATOM    116  O6S SGN d1713     -20.932 -15.448 -30.728  0.00  0.00    -0.572 OA
ATOM    117  C3  SGN d1713     -21.559  -9.579 -28.836  0.00  0.00     0.083 C 
ATOM    118  C1  SGN d1713     -19.602  -9.453 -30.411  0.00  0.00     0.150 C 
ATOM    119  H   SGN d1713     -21.803 -11.599 -29.236  0.00  0.00     0.091 H 
ATOM    120  H   SGN d1713     -20.646  -7.262 -29.979  0.00  0.00     0.140 HD
ATOM    121  H   SGN d1713     -21.616  -9.765 -30.956  0.00  0.00     0.076 H 
ATOM    122  H   SGN d1713     -23.232  -8.203 -32.179  0.00  0.00     0.231 HD
ATOM    123  H   SGN d1713     -23.162  -5.824 -31.293  0.00  0.00     0.231 HD
ATOM    124  H   SGN d1713     -18.260 -12.835 -29.133  0.00  0.00     0.080 H 
ATOM    125  H   SGN d1713     -19.404 -13.126 -27.848  0.00  0.00     0.080 H 
ATOM    126  H   SGN d1713     -19.150 -10.759 -28.063  0.00  0.00     0.090 H 
ATOM    127  H   SGN d1713     -23.304  -9.763 -27.923  0.00  0.00     0.210 HD
ATOM    128  H   SGN d1713     -19.843  -7.785 -32.568  0.00  0.00     0.231 HD
ATOM    129  H   SGN d1713     -21.117  -8.935 -28.104  0.00  0.00     0.089 H 
ATOM    130  H   SGN d1713     -19.305  -9.215 -31.412  0.00  0.00     0.131 H 
ATOM    131  C2  SGN d1711     -11.730  -8.486 -26.561  0.00  0.00     0.081 C 
ATOM    132  O4S SGN d1711     -17.427  -6.637 -23.725  0.00  0.00    -0.572 OA
ATOM    133  S1  SGN d1711      -9.537  -9.980 -26.657  0.00  0.00     0.156 S 
ATOM    134  C3  SGN d1711     -12.937  -8.209 -27.476  0.00  0.00     0.083 C 
ATOM    135  O2S SGN d1711     -10.232 -11.226 -26.768  0.00  0.00    -0.296 OA
ATOM    136  O3  SGN d1711     -13.306  -9.380 -28.211  0.00  0.00    -0.391 OA
ATOM    137  N   SGN d1711     -10.528  -8.885 -27.291  0.00  0.00    -0.210 NA
ATOM    138  C4  SGN d1711     -14.107  -7.742 -26.594  0.00  0.00     0.095 C 
ATOM    139  O4  SGN d1711     -15.080  -7.143 -27.477  0.00  0.00    -0.348 OA
ATOM    140  O6S SGN d1711     -16.269  -7.785 -22.013  0.00  0.00    -0.572 OA
ATOM    141  S2  SGN d1711     -16.218  -6.695 -22.896  0.00  0.00     0.251 S 
ATOM    142  O5  SGN d1711     -12.588  -6.910 -24.926  0.00  0.00    -0.349 OA
ATOM    143  C5  SGN d1711     -13.686  -6.497 -25.762  0.00  0.00     0.091 C 
ATOM    144  O1S SGN d1711      -9.231  -9.575 -25.299  0.00  0.00    -0.296 OA
ATOM    145  O6  SGN d1711     -15.068  -6.948 -23.895  0.00  0.00    -0.254 OA
ATOM    146  O5S SGN d1711     -15.923  -5.269 -22.247  0.00  0.00    -0.572 OA
ATOM    147  O3S SGN d1711      -8.234  -9.888 -27.569  0.00  0.00    -0.296 OA
ATOM    148  C1  SGN d1711     -11.418  -7.288 -25.643  0.00  0.00     0.150 C 
ATOM    149  C6  SGN d1711     -14.740  -5.917 -24.817  0.00  0.00     0.067 C 
ATOM    150  H   SGN d1711     -12.023  -9.318 -25.955  0.00  0.00     0.076 H 
ATOM    151  H   SGN d1711     -12.681  -7.452 -28.188  0.00  0.00     0.089 H 
ATOM    152  H   SGN d1711     -11.010 -11.214 -26.189  0.00  0.00     0.231 HD
ATOM    153  H   SGN d1711     -13.545 -10.089 -27.593  0.00  0.00     0.210 HD
ATOM    154  H   SGN d1711      -9.978  -8.039 -27.439  0.00  0.00     0.140 HD
ATOM    155  H   SGN d1711     -14.434  -8.572 -26.003  0.00  0.00     0.091 H 
ATOM    156  H   SGN d1711     -13.472  -5.732 -26.479  0.00  0.00     0.090 H 
ATOM    157  H   SGN d1711     -10.032  -9.635 -24.755  0.00  0.00     0.231 HD
ATOM    158  H   SGN d1711      -7.814  -9.023 -27.446  0.00  0.00     0.231 HD
ATOM    159  H   SGN d1711     -10.674  -7.517 -24.909  0.00  0.00     0.131 H 
ATOM    160  H   SGN d1711     -15.609  -5.624 -25.368  0.00  0.00     0.080 H 
ATOM    161  H   SGN d1711     -14.370  -5.049 -24.312  0.00  0.00     0.080 H 
ENDROOT
TORSDOF 50
ENDMDL
MODEL 42
REMARK VINA RESULT:      -5.3      2.710      3.581
REMARK  0 active torsions:
REMARK  status: ('A' for Active; 'I' for Inactive)
REMARK       I    between atoms: C2_1  and  O2_12 
REMARK       I    between atoms: C1_4  and  O4_37 
REMARK       I    between atoms: O2S_5  and  S1_43 
REMARK       I    between atoms: O2_11  and  C2_82 
REMARK       I    between atoms: O2_11  and  S_80 
REMARK       I    between atoms: O2_12  and  S_23 
REMARK       I    between atoms: C4_13  and  O4_37 
REMARK       I    between atoms: C2_14  and  N_39 
REMARK       I    between atoms: O1_18  and  C1_32 
REMARK       I    between atoms: C4_19  and  O4_53 
REMARK       I    between atoms: O6_20  and  C6_76 
REMARK       I    between atoms: O6_20  and  S2_95 
REMARK       I    between atoms: S1_21  and  N_39 
REMARK       I    between atoms: S1_21  and  O1S_79 
REMARK       I    between atoms: S1_21  and  O2S_30 
REMARK       I    between atoms: S1_21  and  O3S_94 
REMARK       I    between atoms: C3_24  and  O3_26 
REMARK       I    between atoms: C3_25  and  O3_36 
REMARK       I    between atoms: C6_27  and  C5_83 
REMARK       I    between atoms: C4_28  and  O4_51 
REMARK       I    between atoms: N_29  and  C2_40 
REMARK       I    between atoms: N_29  and  S1_71 
REMARK       I    between atoms: C5_31  and  C6_76 
REMARK       I    between atoms: O1S_35  and  S1_43 
REMARK       I    between atoms: O4_38  and  C4_93 
REMARK       I    between atoms: O4_38  and  C1_96 
REMARK       I    between atoms: O6_41  and  C6_54 
REMARK       I    between atoms: O6_41  and  S2_84 
REMARK       I    between atoms: C4_42  and  O4_49 
REMARK       I    between atoms: S1_43  and  N_47 
REMARK       I    between atoms: S1_43  and  O3S_69 
REMARK       I    between atoms: O2S_44  and  S1_71 
REMARK       I    between atoms: N_47  and  C2_56 
REMARK       I    between atoms: O2_48  and  C2_99 
REMARK       I    between atoms: O2_48  and  S_63 
REMARK       I    between atoms: O4_49  and  C1_57 
REMARK       I    between atoms: O4_51  and  C1_102 
REMARK       I    between atoms: O3S_52  and  S1_71 
REMARK       I    between atoms: O4_53  and  C1_105 
REMARK       I    between atoms: C6_54  and  C5_59 
REMARK       I    between atoms: O3_60  and  C3_100 
REMARK       I    between atoms: O1S_61  and  S1_71 
REMARK       I    between atoms: S2_62  and  O6_81 
REMARK       I    between atoms: C5_65  and  C6_89 
REMARK       I    between atoms: C6_67  and  C5_74 
REMARK       I    between atoms: C3_68  and  O3_104 
REMARK       I    between atoms: C3_70  and  O3_85 
REMARK       I    between atoms: C5_77  and  C6_101 
REMARK       I    between atoms: O6_81  and  C6_101 
REMARK       I    between atoms: C3_92  and  O3_98 
ROOT
ATOM      1  C2  IDS d1714     -23.158  -6.147 -26.356  0.00  0.00     0.132 C 
ATOM      2  O3S IDS d1714     -26.782  -6.668 -27.472  0.00  0.00    -0.572 OA
ATOM      3  C1  IDS d1714     -22.456  -4.820 -26.473  0.00  0.00     0.161 C 
ATOM      4  O2S IDS d1714     -25.082  -8.320 -26.927  0.00  0.00    -0.572 OA
ATOM      5  O2  IDS d1714     -24.518  -5.960 -26.781  0.00  0.00    -0.244 OA
ATOM      6  S   IDS d1714     -25.343  -7.001 -27.559  0.00  0.00     0.252 S 
ATOM      7  C6  IDS d1714     -23.256  -3.200 -23.227  0.00  0.00     0.203 C 
ATOM      8  O5  IDS d1714     -23.025  -3.923 -25.503  0.00  0.00    -0.343 OA
ATOM      9  C4  IDS d1714     -23.370  -5.697 -23.820  0.00  0.00    -0.005 C 
ATOM     10  O61 IDS d1714     -23.644  -2.126 -23.748  0.00  0.00    -0.646 OA
ATOM     11  C3  IDS d1714     -23.167  -6.722 -24.944  0.00  0.00     0.069 C 
ATOM     12  C5  IDS d1714     -22.807  -4.320 -24.151  0.00  0.00     0.127 C 
ATOM     13  O3  IDS d1714     -21.963  -7.474 -24.727  0.00  0.00    -0.393 OA
ATOM     14  O1S IDS d1714     -24.799  -6.965 -28.921  0.00  0.00    -0.572 OA
ATOM     15  O62 IDS d1714     -23.228  -3.365 -21.985  0.00  0.00    -0.646 OA
ATOM     16  H   IDS d1714     -22.622  -6.845 -26.964  0.00  0.00     0.097 H 
ATOM     17  H   IDS d1714     -22.559  -4.329 -27.419  0.00  0.00     0.133 H 
ATOM     18  H   IDS d1714     -22.885  -6.059 -22.939  0.00  0.00     0.041 H 
ATOM     19  H   IDS d1714     -24.425  -5.582 -23.682  0.00  0.00     0.041 H 
ATOM     20  H   IDS d1714     -24.029  -7.353 -24.893  0.00  0.00     0.087 H 
ATOM     21  H   IDS d1714     -21.758  -4.465 -23.992  0.00  0.00     0.100 H 
ATOM     22  H   IDS d1714     -21.197  -6.881 -24.779  0.00  0.00     0.210 HD
ATOM     23  O5  SGN d1709      -3.547 -11.916 -26.578  0.00  0.00    -0.350 OA
ATOM     24  O2S SGN d1709      -2.599 -12.116 -21.974  0.00  0.00    -0.296 OA
ATOM     25  O4S SGN d1709      -3.715 -11.918 -31.770  0.00  0.00    -0.572 OA
ATOM     26  O1  SGN d1709      -3.566 -13.782 -25.141  0.00  0.00    -0.369 OA
ATOM     27  O6  SGN d1709      -3.280 -12.255 -29.388  0.00  0.00    -0.254 OA
ATOM     28  C4  SGN d1709      -5.909 -11.714 -26.757  0.00  0.00     0.095 C 
ATOM     29  C5  SGN d1709      -4.650 -12.305 -27.398  0.00  0.00     0.091 C 
ATOM     30  C1  SGN d1709      -3.575 -12.360 -25.222  0.00  0.00     0.147 C 
ATOM     31  O5S SGN d1709      -1.358 -12.497 -31.012  0.00  0.00    -0.572 OA
ATOM     32  O1S SGN d1709      -4.619 -12.023 -20.706  0.00  0.00    -0.296 OA
ATOM     33  S1  SGN d1709      -3.969 -11.674 -21.950  0.00  0.00     0.156 S 
ATOM     34  N   SGN d1709      -4.842 -12.287 -23.135  0.00  0.00    -0.210 NA
ATOM     35  O4  SGN d1709      -6.982 -12.283 -27.525  0.00  0.00    -0.348 OA
ATOM     36  C2  SGN d1709      -4.800 -11.785 -24.503  0.00  0.00     0.081 C 
ATOM     37  C3  SGN d1709      -6.054 -12.146 -25.309  0.00  0.00     0.083 C 
ATOM     38  O3S SGN d1709      -3.991 -10.124 -22.163  0.00  0.00    -0.296 OA
ATOM     39  C6  SGN d1709      -4.417 -11.675 -28.776  0.00  0.00     0.067 C 
ATOM     40  S2  SGN d1709      -2.743 -11.669 -30.708  0.00  0.00     0.251 S 
ATOM     41  O6S SGN d1709      -2.403 -10.259 -30.471  0.00  0.00    -0.572 OA
ATOM     42  O3  SGN d1709      -7.151 -11.461 -24.703  0.00  0.00    -0.391 OA
ATOM     43  H   SGN d1709      -2.567 -13.077 -21.843  0.00  0.00     0.231 HD
ATOM     44  H   SGN d1709      -2.785 -14.127 -25.600  0.00  0.00     0.212 HD
ATOM     45  H   SGN d1709      -5.888 -10.644 -26.758  0.00  0.00     0.091 H 
ATOM     46  H   SGN d1709      -4.751 -13.366 -27.491  0.00  0.00     0.090 H 
ATOM     47  H   SGN d1709      -2.691 -12.002 -24.736  0.00  0.00     0.131 H 
ATOM     48  H   SGN d1709      -4.596 -12.986 -20.589  0.00  0.00     0.231 HD
ATOM     49  H   SGN d1709      -5.814 -12.205 -22.837  0.00  0.00     0.140 HD
ATOM     50  H   SGN d1709      -4.747 -10.718 -24.441  0.00  0.00     0.076 H 
ATOM     51  H   SGN d1709      -6.208 -13.204 -25.304  0.00  0.00     0.089 H 
ATOM     52  H   SGN d1709      -3.472  -9.694 -21.466  0.00  0.00     0.231 HD
ATOM     53  H   SGN d1709      -5.275 -11.844 -29.392  0.00  0.00     0.080 H 
ATOM     54  H   SGN d1709      -4.256 -10.624 -28.659  0.00  0.00     0.080 H 
ATOM     55  H   SGN d1709      -6.984 -10.505 -24.720  0.00  0.00     0.210 HD
ATOM     56  O1S IDS d1712     -17.525  -6.739 -22.286  0.00  0.00    -0.572 OA
ATOM     57  O2S IDS d1712     -15.069  -6.633 -22.321  0.00  0.00    -0.572 OA
ATOM     58  O61 IDS d1712     -15.607  -4.564 -29.750  0.00  0.00    -0.646 OA
ATOM     59  O5  IDS d1712     -16.161  -7.126 -27.322  0.00  0.00    -0.340 OA
ATOM     60  C4  IDS d1712     -15.482  -4.860 -26.840  0.00  0.00     0.103 C 
ATOM     61  O2  IDS d1712     -16.375  -6.640 -24.343  0.00  0.00    -0.244 OA
ATOM     62  O4  IDS d1712     -16.796  -4.542 -26.364  0.00  0.00    -0.348 OA
ATOM     63  C1  IDS d1712     -15.469  -7.739 -26.244  0.00  0.00     0.161 C 
ATOM     64  S   IDS d1712     -16.327  -6.144 -22.894  0.00  0.00     0.252 S 
ATOM     65  C5  IDS d1712     -15.511  -5.981 -27.886  0.00  0.00     0.152 C 
ATOM     66  O62 IDS d1712     -17.137  -6.134 -29.613  0.00  0.00    -0.646 OA
ATOM     67  O3S IDS d1712     -16.377  -4.652 -22.951  0.00  0.00    -0.572 OA
ATOM     68  C6  IDS d1712     -16.137  -5.539 -29.171  0.00  0.00     0.206 C 
ATOM     69  C3  IDS d1712     -14.677  -5.364 -25.651  0.00  0.00     0.094 C 
ATOM     70  O3  IDS d1712     -13.301  -5.507 -26.032  0.00  0.00    -0.390 OA
ATOM     71  C2  IDS d1712     -15.194  -6.739 -25.152  0.00  0.00     0.134 C 
ATOM     72  H   IDS d1712     -15.059  -3.985 -27.288  0.00  0.00     0.092 H 
ATOM     73  H   IDS d1712     -16.090  -8.528 -25.873  0.00  0.00     0.133 H 
ATOM     74  H   IDS d1712     -14.507  -6.249 -28.142  0.00  0.00     0.104 H 
ATOM     75  H   IDS d1712     -14.782  -4.652 -24.860  0.00  0.00     0.091 H 
ATOM     76  H   IDS d1712     -13.230  -6.157 -26.749  0.00  0.00     0.210 HD
ATOM     77  H   IDS d1712     -14.374  -7.093 -24.562  0.00  0.00     0.097 H 
ATOM     78  O62 IDS d1710     -10.054  -9.787 -25.215  0.00  0.00    -0.646 OA
ATOM     79  O2  IDS d1710      -9.335 -11.093 -30.036  0.00  0.00    -0.244 OA
ATOM     80  O1S IDS d1710      -9.438  -9.406 -31.845  0.00  0.00    -0.572 OA
ATOM     81  C3  IDS d1710      -9.780 -12.990 -28.609  0.00  0.00     0.094 C 
ATOM     82  O3  IDS d1710      -9.201 -14.206 -28.134  0.00  0.00    -0.390 OA
ATOM     83  O4  IDS d1710     -11.427 -11.301 -27.989  0.00  0.00    -0.348 OA
ATOM     84  O5  IDS d1710      -8.755 -10.783 -27.143  0.00  0.00    -0.340 OA
ATOM     85  C6  IDS d1710     -10.236 -11.028 -25.291  0.00  0.00     0.206 C 
ATOM     86  O2S IDS d1710      -7.293 -10.024 -30.850  0.00  0.00    -0.572 OA
ATOM     87  C5  IDS d1710      -9.601 -11.731 -26.462  0.00  0.00     0.152 C 
ATOM     88  S   IDS d1710      -8.619 -10.494 -31.300  0.00  0.00     0.252 S 
ATOM     89  C2  IDS d1710      -8.701 -12.068 -29.196  0.00  0.00     0.134 C 
ATOM     90  O3S IDS d1710      -8.514 -11.652 -32.193  0.00  0.00    -0.572 OA
ATOM     91  C4  IDS d1710     -10.581 -12.338 -27.478  0.00  0.00     0.103 C 
ATOM     92  C1  IDS d1710      -7.878 -11.332 -28.126  0.00  0.00     0.161 C 
ATOM     93  O61 IDS d1710     -10.919 -11.682 -24.472  0.00  0.00    -0.646 OA
ATOM     94  H   IDS d1710     -10.461 -13.194 -29.409  0.00  0.00     0.091 H 
ATOM     95  H   IDS d1710      -8.586 -14.010 -27.408  0.00  0.00     0.210 HD
ATOM     96  H   IDS d1710      -9.063 -12.562 -26.057  0.00  0.00     0.104 H 
ATOM     97  H   IDS d1710      -8.023 -12.690 -29.744  0.00  0.00     0.097 H 
ATOM     98  H   IDS d1710     -11.193 -13.082 -27.012  0.00  0.00     0.092 H 
ATOM     99  H   IDS d1710      -7.320 -10.531 -28.561  0.00  0.00     0.133 H 
ATOM    100  C4  SGN d1713     -20.186  -4.046 -26.547  0.00  0.00     0.095 C 
ATOM    101  N   SGN d1713     -17.426  -2.387 -24.639  0.00  0.00    -0.210 NA
ATOM    102  O4S SGN d1713     -22.832  -4.632 -30.177  0.00  0.00    -0.572 OA
ATOM    103  O4  SGN d1713     -21.072  -5.133 -26.236  0.00  0.00    -0.348 OA
ATOM    104  C2  SGN d1713     -18.246  -2.711 -25.782  0.00  0.00     0.081 C 
ATOM    105  O6  SGN d1713     -20.661  -3.610 -29.345  0.00  0.00    -0.254 OA
ATOM    106  O2S SGN d1713     -17.368  -0.033 -25.109  0.00  0.00    -0.296 OA
ATOM    107  O3S SGN d1713     -16.091  -0.883 -23.034  0.00  0.00    -0.296 OA
ATOM    108  C6  SGN d1713     -20.028  -4.839 -28.965  0.00  0.00     0.067 C 
ATOM    109  O5S SGN d1713     -20.968  -4.361 -31.751  0.00  0.00    -0.572 OA
ATOM    110  C5  SGN d1713     -19.297  -4.634 -27.673  0.00  0.00     0.091 C 
ATOM    111  O3  SGN d1713     -20.226  -2.894 -24.463  0.00  0.00    -0.391 OA
ATOM    112  O1S SGN d1713     -15.343  -1.303 -25.344  0.00  0.00    -0.296 OA
ATOM    113  S1  SGN d1713     -16.527  -1.064 -24.570  0.00  0.00     0.156 S 
ATOM    114  O5  SGN d1713     -18.247  -3.693 -27.993  0.00  0.00    -0.349 OA
ATOM    115  S2  SGN d1713     -21.721  -3.713 -30.497  0.00  0.00     0.251 S 
ATOM    116  O6S SGN d1713     -22.107  -2.341 -30.735  0.00  0.00    -0.572 OA
ATOM    117  C3  SGN d1713     -19.361  -3.634 -25.330  0.00  0.00     0.083 C 
ATOM    118  C1  SGN d1713     -17.412  -3.355 -26.896  0.00  0.00     0.150 C 
ATOM    119  H   SGN d1713     -20.697  -3.153 -26.843  0.00  0.00     0.091 H 
ATOM    120  H   SGN d1713     -16.786  -3.172 -24.519  0.00  0.00     0.140 HD
ATOM    121  H   SGN d1713     -18.665  -1.813 -26.187  0.00  0.00     0.076 H 
ATOM    122  H   SGN d1713     -18.147   0.078 -24.542  0.00  0.00     0.231 HD
ATOM    123  H   SGN d1713     -16.879  -0.721 -22.492  0.00  0.00     0.231 HD
ATOM    124  H   SGN d1713     -19.335  -5.135 -29.726  0.00  0.00     0.080 H 
ATOM    125  H   SGN d1713     -20.766  -5.604 -28.845  0.00  0.00     0.080 H 
ATOM    126  H   SGN d1713     -18.945  -5.572 -27.296  0.00  0.00     0.090 H 
ATOM    127  H   SGN d1713     -20.949  -3.467 -24.161  0.00  0.00     0.210 HD
ATOM    128  H   SGN d1713     -15.584  -1.415 -26.277  0.00  0.00     0.231 HD
ATOM    129  H   SGN d1713     -18.951  -4.492 -24.840  0.00  0.00     0.089 H 
ATOM    130  H   SGN d1713     -16.664  -2.671 -27.240  0.00  0.00     0.131 H 
ATOM    131  C2  SGN d1711     -13.379 -10.833 -29.250  0.00  0.00     0.081 C 
ATOM    132  O4S SGN d1711     -16.873 -10.180 -23.657  0.00  0.00    -0.572 OA
ATOM    133  S1  SGN d1711     -12.956 -11.920 -31.635  0.00  0.00     0.156 S 
ATOM    134  C3  SGN d1711     -13.583  -9.415 -28.686  0.00  0.00     0.083 C 
ATOM    135  O2S SGN d1711     -14.177 -11.447 -32.213  0.00  0.00    -0.296 OA
ATOM    136  O3  SGN d1711     -14.298  -8.590 -29.612  0.00  0.00    -0.391 OA
ATOM    137  N   SGN d1711     -12.595 -10.859 -30.483  0.00  0.00    -0.210 NA
ATOM    138  C4  SGN d1711     -14.364  -9.534 -27.366  0.00  0.00     0.095 C 
ATOM    139  O4  SGN d1711     -14.219  -8.270 -26.683  0.00  0.00    -0.348 OA
ATOM    140  O6S SGN d1711     -17.600 -12.239 -24.561  0.00  0.00    -0.572 OA
ATOM    141  S2  SGN d1711     -16.486 -11.528 -24.088  0.00  0.00     0.251 S 
ATOM    142  O5  SGN d1711     -13.530 -11.761 -27.011  0.00  0.00    -0.349 OA
ATOM    143  C5  SGN d1711     -13.607 -10.469 -26.380  0.00  0.00     0.091 C 
ATOM    144  O1S SGN d1711     -13.043 -13.232 -31.025  0.00  0.00    -0.296 OA
ATOM    145  O6  SGN d1711     -15.529 -11.300 -25.278  0.00  0.00    -0.254 OA
ATOM    146  O5S SGN d1711     -15.614 -12.241 -22.960  0.00  0.00    -0.572 OA
ATOM    147  O3S SGN d1711     -11.709 -11.850 -32.623  0.00  0.00    -0.296 OA
ATOM    148  C1  SGN d1711     -12.756 -11.781 -28.206  0.00  0.00     0.150 C 
ATOM    149  C6  SGN d1711     -14.264 -10.704 -25.019  0.00  0.00     0.067 C 
ATOM    150  H   SGN d1711     -14.361 -11.182 -29.492  0.00  0.00     0.076 H 
ATOM    151  H   SGN d1711     -12.632  -8.956 -28.517  0.00  0.00     0.089 H 
ATOM    152  H   SGN d1711     -14.891 -11.518 -31.561  0.00  0.00     0.231 HD
ATOM    153  H   SGN d1711     -15.168  -8.979 -29.788  0.00  0.00     0.210 HD
ATOM    154  H   SGN d1711     -11.627 -11.034 -30.213  0.00  0.00     0.140 HD
ATOM    155  H   SGN d1711     -15.360  -9.853 -27.593  0.00  0.00     0.091 H 
ATOM    156  H   SGN d1711     -12.675  -9.983 -26.183  0.00  0.00     0.090 H 
ATOM    157  H   SGN d1711     -13.806 -13.261 -30.426  0.00  0.00     0.231 HD
ATOM    158  H   SGN d1711     -10.919 -12.184 -32.171  0.00  0.00     0.231 HD
ATOM    159  H   SGN d1711     -12.738 -12.799 -28.537  0.00  0.00     0.131 H 
ATOM    160  H   SGN d1711     -14.393  -9.774 -24.505  0.00  0.00     0.080 H 
ATOM    161  H   SGN d1711     -13.659 -11.333 -24.401  0.00  0.00     0.080 H 
ENDROOT
TORSDOF 50
ENDMDL
MODEL 43
REMARK VINA RESULT:      -5.2      3.825      7.680
REMARK  0 active torsions:
REMARK  status: ('A' for Active; 'I' for Inactive)
REMARK       I    between atoms: C2_1  and  O2_12 
REMARK       I    between atoms: C1_4  and  O4_37 
REMARK       I    between atoms: O2S_5  and  S1_43 
REMARK       I    between atoms: O2_11  and  C2_82 
REMARK       I    between atoms: O2_11  and  S_80 
REMARK       I    between atoms: O2_12  and  S_23 
REMARK       I    between atoms: C4_13  and  O4_37 
REMARK       I    between atoms: C2_14  and  N_39 
REMARK       I    between atoms: O1_18  and  C1_32 
REMARK       I    between atoms: C4_19  and  O4_53 
REMARK       I    between atoms: O6_20  and  C6_76 
REMARK       I    between atoms: O6_20  and  S2_95 
REMARK       I    between atoms: S1_21  and  N_39 
REMARK       I    between atoms: S1_21  and  O1S_79 
REMARK       I    between atoms: S1_21  and  O2S_30 
REMARK       I    between atoms: S1_21  and  O3S_94 
REMARK       I    between atoms: C3_24  and  O3_26 
REMARK       I    between atoms: C3_25  and  O3_36 
REMARK       I    between atoms: C6_27  and  C5_83 
REMARK       I    between atoms: C4_28  and  O4_51 
REMARK       I    between atoms: N_29  and  C2_40 
REMARK       I    between atoms: N_29  and  S1_71 
REMARK       I    between atoms: C5_31  and  C6_76 
REMARK       I    between atoms: O1S_35  and  S1_43 
REMARK       I    between atoms: O4_38  and  C4_93 
REMARK       I    between atoms: O4_38  and  C1_96 
REMARK       I    between atoms: O6_41  and  C6_54 
REMARK       I    between atoms: O6_41  and  S2_84 
REMARK       I    between atoms: C4_42  and  O4_49 
REMARK       I    between atoms: S1_43  and  N_47 
REMARK       I    between atoms: S1_43  and  O3S_69 
REMARK       I    between atoms: O2S_44  and  S1_71 
REMARK       I    between atoms: N_47  and  C2_56 
REMARK       I    between atoms: O2_48  and  C2_99 
REMARK       I    between atoms: O2_48  and  S_63 
REMARK       I    between atoms: O4_49  and  C1_57 
REMARK       I    between atoms: O4_51  and  C1_102 
REMARK       I    between atoms: O3S_52  and  S1_71 
REMARK       I    between atoms: O4_53  and  C1_105 
REMARK       I    between atoms: C6_54  and  C5_59 
REMARK       I    between atoms: O3_60  and  C3_100 
REMARK       I    between atoms: O1S_61  and  S1_71 
REMARK       I    between atoms: S2_62  and  O6_81 
REMARK       I    between atoms: C5_65  and  C6_89 
REMARK       I    between atoms: C6_67  and  C5_74 
REMARK       I    between atoms: C3_68  and  O3_104 
REMARK       I    between atoms: C3_70  and  O3_85 
REMARK       I    between atoms: C5_77  and  C6_101 
REMARK       I    between atoms: O6_81  and  C6_101 
REMARK       I    between atoms: C3_92  and  O3_98 
ROOT
ATOM      1  C2  IDS d1714     -24.699  -5.073 -22.242  0.00  0.00     0.132 C 
ATOM      2  O3S IDS d1714     -27.150  -5.243 -19.306  0.00  0.00    -0.572 OA
ATOM      3  C1  IDS d1714     -25.134  -5.254 -23.672  0.00  0.00     0.161 C 
ATOM      4  O2S IDS d1714     -24.718  -5.306 -19.294  0.00  0.00    -0.572 OA
ATOM      5  O2  IDS d1714     -25.878  -5.110 -21.420  0.00  0.00    -0.244 OA
ATOM      6  S   IDS d1714     -25.947  -5.732 -20.014  0.00  0.00     0.252 S 
ATOM      7  C6  IDS d1714     -25.969  -1.784 -24.703  0.00  0.00     0.203 C 
ATOM      8  O5  IDS d1714     -25.890  -4.095 -24.063  0.00  0.00    -0.343 OA
ATOM      9  C4  IDS d1714     -24.516  -2.541 -22.724  0.00  0.00    -0.005 C 
ATOM     10  O61 IDS d1714     -27.092  -2.091 -25.172  0.00  0.00    -0.646 OA
ATOM     11  C3  IDS d1714     -23.966  -3.763 -21.977  0.00  0.00     0.069 C 
ATOM     12  C5  IDS d1714     -25.133  -2.887 -24.073  0.00  0.00     0.127 C 
ATOM     13  O3  IDS d1714     -22.567  -3.934 -22.254  0.00  0.00    -0.393 OA
ATOM     14  O1S IDS d1714     -25.932  -7.180 -20.246  0.00  0.00    -0.572 OA
ATOM     15  O62 IDS d1714     -25.528  -0.611 -24.745  0.00  0.00    -0.646 OA
ATOM     16  H   IDS d1714     -24.008  -5.858 -22.016  0.00  0.00     0.097 H 
ATOM     17  H   IDS d1714     -25.772  -6.094 -23.854  0.00  0.00     0.133 H 
ATOM     18  H   IDS d1714     -23.714  -1.851 -22.884  0.00  0.00     0.041 H 
ATOM     19  H   IDS d1714     -25.293  -2.122 -22.119  0.00  0.00     0.041 H 
ATOM     20  H   IDS d1714     -24.128  -3.542 -20.942  0.00  0.00     0.087 H 
ATOM     21  H   IDS d1714     -24.267  -3.021 -24.687  0.00  0.00     0.100 H 
ATOM     22  H   IDS d1714     -22.446  -4.133 -23.196  0.00  0.00     0.210 HD
ATOM     23  O5  SGN d1709      -7.221 -10.912 -31.092  0.00  0.00    -0.350 OA
ATOM     24  O2S SGN d1709      -5.276  -6.752 -32.112  0.00  0.00    -0.296 OA
ATOM     25  O4S SGN d1709      -8.634 -15.860 -30.376  0.00  0.00    -0.572 OA
ATOM     26  O1  SGN d1709      -5.619  -9.687 -29.875  0.00  0.00    -0.369 OA
ATOM     27  O6  SGN d1709      -7.510 -13.714 -30.696  0.00  0.00    -0.254 OA
ATOM     28  C4  SGN d1709      -9.046 -10.449 -29.641  0.00  0.00     0.095 C 
ATOM     29  C5  SGN d1709      -7.932 -11.446 -29.974  0.00  0.00     0.091 C 
ATOM     30  C1  SGN d1709      -6.603  -9.640 -30.904  0.00  0.00     0.147 C 
ATOM     31  O5S SGN d1709      -6.414 -15.798 -31.615  0.00  0.00    -0.572 OA
ATOM     32  O1S SGN d1709      -6.428  -4.997 -30.977  0.00  0.00    -0.296 OA
ATOM     33  S1  SGN d1709      -6.521  -6.332 -31.524  0.00  0.00     0.156 S 
ATOM     34  N   SGN d1709      -7.012  -7.296 -30.353  0.00  0.00    -0.210 NA
ATOM     35  O4  SGN d1709      -9.602 -10.956 -28.416  0.00  0.00    -0.348 OA
ATOM     36  C2  SGN d1709      -7.663  -8.579 -30.590  0.00  0.00     0.081 C 
ATOM     37  C3  SGN d1709      -8.494  -9.057 -29.394  0.00  0.00     0.083 C 
ATOM     38  O3S SGN d1709      -7.633  -6.397 -32.622  0.00  0.00    -0.296 OA
ATOM     39  C6  SGN d1709      -8.538 -12.777 -30.432  0.00  0.00     0.067 C 
ATOM     40  S2  SGN d1709      -7.859 -15.072 -31.333  0.00  0.00     0.251 S 
ATOM     41  O6S SGN d1709      -8.513 -14.811 -32.623  0.00  0.00    -0.572 OA
ATOM     42  O3  SGN d1709      -9.567  -8.128 -29.234  0.00  0.00    -0.391 OA
ATOM     43  H   SGN d1709      -4.574  -6.718 -31.443  0.00  0.00     0.231 HD
ATOM     44  H   SGN d1709      -4.958 -10.363 -30.091  0.00  0.00     0.212 HD
ATOM     45  H   SGN d1709      -9.752 -10.364 -30.440  0.00  0.00     0.091 H 
ATOM     46  H   SGN d1709      -7.311 -11.601 -29.116  0.00  0.00     0.090 H 
ATOM     47  H   SGN d1709      -6.107  -9.374 -31.814  0.00  0.00     0.131 H 
ATOM     48  H   SGN d1709      -5.735  -4.973 -30.298  0.00  0.00     0.231 HD
ATOM     49  H   SGN d1709      -7.669  -6.749 -29.797  0.00  0.00     0.140 HD
ATOM     50  H   SGN d1709      -8.328  -8.441 -31.417  0.00  0.00     0.076 H 
ATOM     51  H   SGN d1709      -7.888  -9.103 -28.514  0.00  0.00     0.089 H 
ATOM     52  H   SGN d1709      -7.387  -5.826 -33.366  0.00  0.00     0.231 HD
ATOM     53  H   SGN d1709      -9.176 -13.160 -29.663  0.00  0.00     0.080 H 
ATOM     54  H   SGN d1709      -9.104 -12.616 -31.325  0.00  0.00     0.080 H 
ATOM     55  H   SGN d1709     -10.099  -8.106 -30.045  0.00  0.00     0.210 HD
ATOM     56  O1S IDS d1712     -19.363  -2.684 -26.045  0.00  0.00    -0.572 OA
ATOM     57  O2S IDS d1712     -17.734  -3.351 -27.760  0.00  0.00    -0.572 OA
ATOM     58  O61 IDS d1712     -21.356 -10.173 -28.060  0.00  0.00    -0.646 OA
ATOM     59  O5  IDS d1712     -19.411  -7.915 -26.089  0.00  0.00    -0.340 OA
ATOM     60  C4  IDS d1712     -20.344  -7.433 -28.264  0.00  0.00     0.103 C 
ATOM     61  O2  IDS d1712     -19.144  -4.954 -26.648  0.00  0.00    -0.244 OA
ATOM     62  O4  IDS d1712     -21.353  -6.605 -27.674  0.00  0.00    -0.348 OA
ATOM     63  C1  IDS d1712     -18.247  -7.113 -26.227  0.00  0.00     0.161 C 
ATOM     64  S   IDS d1712     -19.082  -3.530 -27.212  0.00  0.00     0.252 S 
ATOM     65  C5  IDS d1712     -19.870  -8.528 -27.299  0.00  0.00     0.152 C 
ATOM     66  O62 IDS d1712     -21.331  -9.777 -25.900  0.00  0.00    -0.646 OA
ATOM     67  O3S IDS d1712     -20.135  -3.443 -28.268  0.00  0.00    -0.572 OA
ATOM     68  C6  IDS d1712     -20.925  -9.562 -27.057  0.00  0.00     0.206 C 
ATOM     69  C3  IDS d1712     -19.146  -6.544 -28.569  0.00  0.00     0.094 C 
ATOM     70  O3  IDS d1712     -18.188  -7.283 -29.340  0.00  0.00    -0.390 OA
ATOM     71  C2  IDS d1712     -18.457  -6.048 -27.272  0.00  0.00     0.134 C 
ATOM     72  H   IDS d1712     -20.750  -7.900 -29.137  0.00  0.00     0.092 H 
ATOM     73  H   IDS d1712     -18.057  -6.662 -25.275  0.00  0.00     0.133 H 
ATOM     74  H   IDS d1712     -19.055  -9.060 -27.745  0.00  0.00     0.104 H 
ATOM     75  H   IDS d1712     -19.502  -5.695 -29.114  0.00  0.00     0.091 H 
ATOM     76  H   IDS d1712     -17.880  -8.047 -28.828  0.00  0.00     0.210 HD
ATOM     77  H   IDS d1712     -17.500  -5.726 -27.628  0.00  0.00     0.097 H 
ATOM     78  O62 IDS d1710     -12.843  -7.717 -28.463  0.00  0.00    -0.646 OA
ATOM     79  O2  IDS d1710     -12.668 -12.652 -27.426  0.00  0.00    -0.244 OA
ATOM     80  O1S IDS d1710     -14.327 -14.218 -28.386  0.00  0.00    -0.572 OA
ATOM     81  C3  IDS d1710     -11.344 -11.328 -25.899  0.00  0.00     0.094 C 
ATOM     82  O3  IDS d1710     -10.003 -11.128 -25.449  0.00  0.00    -0.390 OA
ATOM     83  O4  IDS d1710     -13.473 -10.155 -26.111  0.00  0.00    -0.348 OA
ATOM     84  O5  IDS d1710     -11.750  -9.996 -28.376  0.00  0.00    -0.340 OA
ATOM     85  C6  IDS d1710     -12.153  -7.850 -27.420  0.00  0.00     0.206 C 
ATOM     86  O2S IDS d1710     -12.170 -13.877 -29.482  0.00  0.00    -0.572 OA
ATOM     87  C5  IDS d1710     -11.531  -9.202 -27.193  0.00  0.00     0.152 C 
ATOM     88  S   IDS d1710     -12.889 -14.003 -28.198  0.00  0.00     0.252 S 
ATOM     89  C2  IDS d1710     -11.360 -12.095 -27.230  0.00  0.00     0.134 C 
ATOM     90  O3S IDS d1710     -12.259 -14.989 -27.315  0.00  0.00    -0.572 OA
ATOM     91  C4  IDS d1710     -12.058  -9.975 -25.974  0.00  0.00     0.103 C 
ATOM     92  C1  IDS d1710     -11.016 -11.217 -28.445  0.00  0.00     0.161 C 
ATOM     93  O61 IDS d1710     -11.984  -6.940 -26.578  0.00  0.00    -0.646 OA
ATOM     94  H   IDS d1710     -11.881 -11.937 -25.203  0.00  0.00     0.091 H 
ATOM     95  H   IDS d1710      -9.527 -10.574 -26.088  0.00  0.00     0.210 HD
ATOM     96  H   IDS d1710     -10.496  -9.025 -26.989  0.00  0.00     0.104 H 
ATOM     97  H   IDS d1710     -10.607 -12.853 -27.164  0.00  0.00     0.097 H 
ATOM     98  H   IDS d1710     -11.867  -9.431 -25.072  0.00  0.00     0.092 H 
ATOM     99  H   IDS d1710     -11.275 -11.713 -29.357  0.00  0.00     0.133 H 
ATOM    100  C4  SGN d1713     -24.093  -5.852 -25.751  0.00  0.00     0.095 C 
ATOM    101  N   SGN d1713     -22.812  -4.596 -29.035  0.00  0.00    -0.210 NA
ATOM    102  O4S SGN d1713     -26.447  -8.700 -23.130  0.00  0.00    -0.572 OA
ATOM    103  O4  SGN d1713     -23.899  -5.415 -24.395  0.00  0.00    -0.348 OA
ATOM    104  C2  SGN d1713     -23.450  -5.508 -28.117  0.00  0.00     0.081 C 
ATOM    105  O6  SGN d1713     -25.415  -8.379 -25.428  0.00  0.00    -0.254 OA
ATOM    106  O2S SGN d1713     -24.473  -4.859 -30.748  0.00  0.00    -0.296 OA
ATOM    107  O3S SGN d1713     -22.494  -3.272 -31.218  0.00  0.00    -0.296 OA
ATOM    108  C6  SGN d1713     -24.053  -8.286 -24.993  0.00  0.00     0.067 C 
ATOM    109  O5S SGN d1713     -25.725 -10.678 -24.392  0.00  0.00    -0.572 OA
ATOM    110  C5  SGN d1713     -23.359  -7.217 -25.782  0.00  0.00     0.091 C 
ATOM    111  O3  SGN d1713     -24.375  -3.738 -26.811  0.00  0.00    -0.391 OA
ATOM    112  O1S SGN d1713     -22.267  -5.724 -31.143  0.00  0.00    -0.296 OA
ATOM    113  S1  SGN d1713     -23.059  -4.650 -30.616  0.00  0.00     0.156 S 
ATOM    114  O5  SGN d1713     -23.342  -7.718 -27.138  0.00  0.00    -0.349 OA
ATOM    115  S2  SGN d1713     -26.372  -9.219 -24.511  0.00  0.00     0.251 S 
ATOM    116  O6S SGN d1713     -27.624  -9.228 -25.232  0.00  0.00    -0.572 OA
ATOM    117  C3  SGN d1713     -23.492  -4.862 -26.745  0.00  0.00     0.083 C 
ATOM    118  C1  SGN d1713     -22.714  -6.853 -28.072  0.00  0.00     0.150 C 
ATOM    119  H   SGN d1713     -25.123  -5.925 -26.030  0.00  0.00     0.091 H 
ATOM    120  H   SGN d1713     -21.807  -4.716 -28.901  0.00  0.00     0.140 HD
ATOM    121  H   SGN d1713     -24.447  -5.710 -28.449  0.00  0.00     0.076 H 
ATOM    122  H   SGN d1713     -24.948  -4.101 -30.374  0.00  0.00     0.231 HD
ATOM    123  H   SGN d1713     -23.015  -2.531 -30.874  0.00  0.00     0.231 HD
ATOM    124  H   SGN d1713     -23.562  -9.224 -25.151  0.00  0.00     0.080 H 
ATOM    125  H   SGN d1713     -24.022  -8.043 -23.952  0.00  0.00     0.080 H 
ATOM    126  H   SGN d1713     -22.389  -7.028 -25.372  0.00  0.00     0.090 H 
ATOM    127  H   SGN d1713     -24.417  -3.309 -25.942  0.00  0.00     0.210 HD
ATOM    128  H   SGN d1713     -22.592  -6.568 -30.791  0.00  0.00     0.231 HD
ATOM    129  H   SGN d1713     -22.507  -4.572 -26.446  0.00  0.00     0.089 H 
ATOM    130  H   SGN d1713     -22.739  -7.320 -29.035  0.00  0.00     0.131 H 
ATOM    131  C2  SGN d1711     -15.462 -10.816 -25.003  0.00  0.00     0.081 C 
ATOM    132  O4S SGN d1711     -16.935  -4.470 -23.795  0.00  0.00    -0.572 OA
ATOM    133  S1  SGN d1711     -15.031 -13.314 -24.211  0.00  0.00     0.156 S 
ATOM    134  C3  SGN d1711     -16.417 -10.099 -25.974  0.00  0.00     0.083 C 
ATOM    135  O2S SGN d1711     -16.344 -13.509 -23.676  0.00  0.00    -0.296 OA
ATOM    136  O3  SGN d1711     -17.702 -10.731 -25.995  0.00  0.00    -0.391 OA
ATOM    137  N   SGN d1711     -15.206 -12.209 -25.366  0.00  0.00    -0.210 NA
ATOM    138  C4  SGN d1711     -16.551  -8.636 -25.517  0.00  0.00     0.095 C 
ATOM    139  O4  SGN d1711     -17.130  -7.907 -26.622  0.00  0.00    -0.348 OA
ATOM    140  O6S SGN d1711     -16.281  -5.327 -21.691  0.00  0.00    -0.572 OA
ATOM    141  S2  SGN d1711     -15.867  -5.102 -23.013  0.00  0.00     0.251 S 
ATOM    142  O5  SGN d1711     -14.383  -8.705 -24.480  0.00  0.00    -0.349 OA
ATOM    143  C5  SGN d1711     -15.148  -7.967 -25.451  0.00  0.00     0.091 C 
ATOM    144  O1S SGN d1711     -14.056 -12.818 -23.260  0.00  0.00    -0.296 OA
ATOM    145  O6  SGN d1711     -15.651  -6.476 -23.683  0.00  0.00    -0.254 OA
ATOM    146  O5S SGN d1711     -14.498  -4.308 -23.203  0.00  0.00    -0.572 OA
ATOM    147  O3S SGN d1711     -14.457 -14.584 -24.983  0.00  0.00    -0.296 OA
ATOM    148  C1  SGN d1711     -14.129 -10.058 -24.844  0.00  0.00     0.150 C 
ATOM    149  C6  SGN d1711     -15.108  -6.507 -24.996  0.00  0.00     0.067 C 
ATOM    150  H   SGN d1711     -15.971 -10.823 -24.062  0.00  0.00     0.076 H 
ATOM    151  H   SGN d1711     -16.022 -10.145 -26.967  0.00  0.00     0.089 H 
ATOM    152  H   SGN d1711     -16.631 -12.702 -23.222  0.00  0.00     0.231 HD
ATOM    153  H   SGN d1711     -18.089 -10.706 -25.106  0.00  0.00     0.210 HD
ATOM    154  H   SGN d1711     -14.347 -12.218 -25.916  0.00  0.00     0.140 HD
ATOM    155  H   SGN d1711     -17.086  -8.621 -24.591  0.00  0.00     0.091 H 
ATOM    156  H   SGN d1711     -14.777  -7.979 -26.454  0.00  0.00     0.090 H 
ATOM    157  H   SGN d1711     -14.418 -12.046 -22.798  0.00  0.00     0.231 HD
ATOM    158  H   SGN d1711     -13.569 -14.385 -25.317  0.00  0.00     0.231 HD
ATOM    159  H   SGN d1711     -13.514 -10.469 -24.071  0.00  0.00     0.131 H 
ATOM    160  H   SGN d1711     -15.695  -5.899 -25.653  0.00  0.00     0.080 H 
ATOM    161  H   SGN d1711     -14.108  -6.125 -25.010  0.00  0.00     0.080 H 
ENDROOT
TORSDOF 50
ENDMDL
MODEL 44
REMARK VINA RESULT:      -5.1      3.498     15.522
REMARK  0 active torsions:
REMARK  status: ('A' for Active; 'I' for Inactive)
REMARK       I    between atoms: C2_1  and  O2_12 
REMARK       I    between atoms: C1_4  and  O4_37 
REMARK       I    between atoms: O2S_5  and  S1_43 
REMARK       I    between atoms: O2_11  and  C2_82 
REMARK       I    between atoms: O2_11  and  S_80 
REMARK       I    between atoms: O2_12  and  S_23 
REMARK       I    between atoms: C4_13  and  O4_37 
REMARK       I    between atoms: C2_14  and  N_39 
REMARK       I    between atoms: O1_18  and  C1_32 
REMARK       I    between atoms: C4_19  and  O4_53 
REMARK       I    between atoms: O6_20  and  C6_76 
REMARK       I    between atoms: O6_20  and  S2_95 
REMARK       I    between atoms: S1_21  and  N_39 
REMARK       I    between atoms: S1_21  and  O1S_79 
REMARK       I    between atoms: S1_21  and  O2S_30 
REMARK       I    between atoms: S1_21  and  O3S_94 
REMARK       I    between atoms: C3_24  and  O3_26 
REMARK       I    between atoms: C3_25  and  O3_36 
REMARK       I    between atoms: C6_27  and  C5_83 
REMARK       I    between atoms: C4_28  and  O4_51 
REMARK       I    between atoms: N_29  and  C2_40 
REMARK       I    between atoms: N_29  and  S1_71 
REMARK       I    between atoms: C5_31  and  C6_76 
REMARK       I    between atoms: O1S_35  and  S1_43 
REMARK       I    between atoms: O4_38  and  C4_93 
REMARK       I    between atoms: O4_38  and  C1_96 
REMARK       I    between atoms: O6_41  and  C6_54 
REMARK       I    between atoms: O6_41  and  S2_84 
REMARK       I    between atoms: C4_42  and  O4_49 
REMARK       I    between atoms: S1_43  and  N_47 
REMARK       I    between atoms: S1_43  and  O3S_69 
REMARK       I    between atoms: O2S_44  and  S1_71 
REMARK       I    between atoms: N_47  and  C2_56 
REMARK       I    between atoms: O2_48  and  C2_99 
REMARK       I    between atoms: O2_48  and  S_63 
REMARK       I    between atoms: O4_49  and  C1_57 
REMARK       I    between atoms: O4_51  and  C1_102 
REMARK       I    between atoms: O3S_52  and  S1_71 
REMARK       I    between atoms: O4_53  and  C1_105 
REMARK       I    between atoms: C6_54  and  C5_59 
REMARK       I    between atoms: O3_60  and  C3_100 
REMARK       I    between atoms: O1S_61  and  S1_71 
REMARK       I    between atoms: S2_62  and  O6_81 
REMARK       I    between atoms: C5_65  and  C6_89 
REMARK       I    between atoms: C6_67  and  C5_74 
REMARK       I    between atoms: C3_68  and  O3_104 
REMARK       I    between atoms: C3_70  and  O3_85 
REMARK       I    between atoms: C5_77  and  C6_101 
REMARK       I    between atoms: O6_81  and  C6_101 
REMARK       I    between atoms: C3_92  and  O3_98 
ROOT
ATOM      1  C2  IDS d1714      -5.325 -12.498 -27.991  0.00  0.00     0.132 C 
ATOM      2  O3S IDS d1714      -3.310 -15.445 -29.372  0.00  0.00    -0.572 OA
ATOM      3  C1  IDS d1714      -5.548 -12.287 -26.517  0.00  0.00     0.161 C 
ATOM      4  O2S IDS d1714      -4.794 -13.909 -30.536  0.00  0.00    -0.572 OA
ATOM      5  O2  IDS d1714      -4.462 -13.636 -28.144  0.00  0.00    -0.244 OA
ATOM      6  S   IDS d1714      -4.566 -14.670 -29.280  0.00  0.00     0.252 S 
ATOM      7  C6  IDS d1714      -2.625 -10.207 -25.554  0.00  0.00     0.203 C 
ATOM      8  O5  IDS d1714      -4.300 -11.883 -25.927  0.00  0.00    -0.343 OA
ATOM      9  C4  IDS d1714      -3.597 -10.579 -27.902  0.00  0.00    -0.005 C 
ATOM     10  O61 IDS d1714      -2.308 -10.931 -24.579  0.00  0.00    -0.646 OA
ATOM     11  C3  IDS d1714      -4.687 -11.308 -28.699  0.00  0.00     0.069 C 
ATOM     12  C5  IDS d1714      -3.819 -10.625 -26.396  0.00  0.00     0.127 C 
ATOM     13  O3  IDS d1714      -5.712 -10.389 -29.107  0.00  0.00    -0.393 OA
ATOM     14  O1S IDS d1714      -5.746 -15.475 -28.943  0.00  0.00    -0.572 OA
ATOM     15  O62 IDS d1714      -1.992  -9.164 -25.841  0.00  0.00    -0.646 OA
ATOM     16  H   IDS d1714      -6.285 -12.639 -28.442  0.00  0.00     0.097 H 
ATOM     17  H   IDS d1714      -5.860 -13.154 -25.972  0.00  0.00     0.133 H 
ATOM     18  H   IDS d1714      -3.579  -9.555 -28.211  0.00  0.00     0.041 H 
ATOM     19  H   IDS d1714      -2.671 -11.077 -28.101  0.00  0.00     0.041 H 
ATOM     20  H   IDS d1714      -4.175 -11.714 -29.547  0.00  0.00     0.087 H 
ATOM     21  H   IDS d1714      -4.581  -9.886 -26.260  0.00  0.00     0.100 H 
ATOM     22  H   IDS d1714      -6.161 -10.036 -28.322  0.00  0.00     0.210 HD
ATOM     23  O5  SGN d1709     -22.266  -1.056 -28.025  0.00  0.00    -0.350 OA
ATOM     24  O2S SGN d1709     -20.453   3.263 -28.463  0.00  0.00    -0.296 OA
ATOM     25  O4S SGN d1709     -25.072  -5.396 -27.498  0.00  0.00    -0.572 OA
ATOM     26  O1  SGN d1709     -21.981   0.241 -29.970  0.00  0.00    -0.369 OA
ATOM     27  O6  SGN d1709     -24.160  -3.176 -27.962  0.00  0.00    -0.254 OA
ATOM     28  C4  SGN d1709     -20.485  -2.567 -28.468  0.00  0.00     0.095 C 
ATOM     29  C5  SGN d1709     -21.992  -2.329 -28.611  0.00  0.00     0.091 C 
ATOM     30  C1  SGN d1709     -21.606   0.068 -28.606  0.00  0.00     0.147 C 
ATOM     31  O5S SGN d1709     -26.632  -3.387 -27.479  0.00  0.00    -0.572 OA
ATOM     32  O1S SGN d1709     -18.150   3.138 -29.076  0.00  0.00    -0.296 OA
ATOM     33  S1  SGN d1709     -19.254   2.468 -28.424  0.00  0.00     0.156 S 
ATOM     34  N   SGN d1709     -19.428   1.045 -29.120  0.00  0.00    -0.210 NA
ATOM     35  O4  SGN d1709     -20.256  -3.767 -29.224  0.00  0.00    -0.348 OA
ATOM     36  C2  SGN d1709     -20.088  -0.085 -28.478  0.00  0.00     0.081 C 
ATOM     37  C3  SGN d1709     -19.680  -1.435 -29.081  0.00  0.00     0.083 C 
ATOM     38  O3S SGN d1709     -18.907   2.171 -26.928  0.00  0.00    -0.296 OA
ATOM     39  C6  SGN d1709     -22.767  -3.367 -27.793  0.00  0.00     0.067 C 
ATOM     40  S2  SGN d1709     -25.150  -3.989 -27.108  0.00  0.00     0.251 S 
ATOM     41  O6S SGN d1709     -24.869  -3.702 -25.694  0.00  0.00    -0.572 OA
ATOM     42  O3  SGN d1709     -18.292  -1.616 -28.799  0.00  0.00    -0.391 OA
ATOM     43  H   SGN d1709     -20.683   3.457 -29.385  0.00  0.00     0.231 HD
ATOM     44  H   SGN d1709     -22.944   0.337 -30.031  0.00  0.00     0.212 HD
ATOM     45  H   SGN d1709     -20.191  -2.632 -27.441  0.00  0.00     0.091 H 
ATOM     46  H   SGN d1709     -22.274  -2.387 -29.642  0.00  0.00     0.090 H 
ATOM     47  H   SGN d1709     -21.911   0.945 -28.074  0.00  0.00     0.131 H 
ATOM     48  H   SGN d1709     -18.381   3.316 -30.001  0.00  0.00     0.231 HD
ATOM     49  H   SGN d1709     -18.485   0.727 -29.346  0.00  0.00     0.140 HD
ATOM     50  H   SGN d1709     -19.784  -0.080 -27.452  0.00  0.00     0.076 H 
ATOM     51  H   SGN d1709     -19.866  -1.444 -30.134  0.00  0.00     0.089 H 
ATOM     52  H   SGN d1709     -18.788   3.007 -26.451  0.00  0.00     0.231 HD
ATOM     53  H   SGN d1709     -22.502  -4.350 -28.124  0.00  0.00     0.080 H 
ATOM     54  H   SGN d1709     -22.520  -3.254 -26.758  0.00  0.00     0.080 H 
ATOM     55  H   SGN d1709     -18.153  -1.603 -27.839  0.00  0.00     0.210 HD
ATOM     56  O1S IDS d1712      -7.545  -5.909 -27.443  0.00  0.00    -0.572 OA
ATOM     57  O2S IDS d1712      -9.430  -4.541 -26.656  0.00  0.00    -0.572 OA
ATOM     58  O61 IDS d1712     -12.614 -11.068 -24.007  0.00  0.00    -0.646 OA
ATOM     59  O5  IDS d1712     -11.557  -9.217 -26.875  0.00  0.00    -0.340 OA
ATOM     60  C4  IDS d1712     -11.151  -8.597 -24.578  0.00  0.00     0.103 C 
ATOM     61  O2  IDS d1712      -9.567  -6.940 -26.801  0.00  0.00    -0.244 OA
ATOM     62  O4  IDS d1712      -9.775  -8.982 -24.692  0.00  0.00    -0.348 OA
ATOM     63  C1  IDS d1712     -11.661  -7.897 -27.387  0.00  0.00     0.161 C 
ATOM     64  S   IDS d1712      -8.640  -5.763 -26.475  0.00  0.00     0.252 S 
ATOM     65  C5  IDS d1712     -12.045  -9.388 -25.540  0.00  0.00     0.152 C 
ATOM     66  O62 IDS d1712     -11.811 -11.719 -25.945  0.00  0.00    -0.646 OA
ATOM     67  O3S IDS d1712      -8.200  -5.945 -25.060  0.00  0.00    -0.572 OA
ATOM     68  C6  IDS d1712     -12.160 -10.829 -25.149  0.00  0.00     0.206 C 
ATOM     69  C3  IDS d1712     -11.247  -7.129 -24.967  0.00  0.00     0.094 C 
ATOM     70  O3  IDS d1712     -12.566  -6.644 -24.679  0.00  0.00    -0.390 OA
ATOM     71  C2  IDS d1712     -10.964  -6.918 -26.478  0.00  0.00     0.134 C 
ATOM     72  H   IDS d1712     -11.477  -8.784 -23.576  0.00  0.00     0.092 H 
ATOM     73  H   IDS d1712     -11.200  -7.892 -28.354  0.00  0.00     0.133 H 
ATOM     74  H   IDS d1712     -13.043  -9.004 -25.488  0.00  0.00     0.104 H 
ATOM     75  H   IDS d1712     -10.511  -6.593 -24.404  0.00  0.00     0.091 H 
ATOM     76  H   IDS d1712     -13.215  -7.142 -25.200  0.00  0.00     0.210 HD
ATOM     77  H   IDS d1712     -11.367  -5.942 -26.654  0.00  0.00     0.097 H 
ATOM     78  O62 IDS d1710     -15.854  -3.814 -27.951  0.00  0.00    -0.646 OA
ATOM     79  O2  IDS d1710     -19.514  -7.250 -28.463  0.00  0.00    -0.244 OA
ATOM     80  O1S IDS d1710     -19.967  -8.907 -26.682  0.00  0.00    -0.572 OA
ATOM     81  C3  IDS d1710     -18.914  -6.203 -30.556  0.00  0.00     0.094 C 
ATOM     82  O3  IDS d1710     -19.446  -5.396 -31.608  0.00  0.00    -0.390 OA
ATOM     83  O4  IDS d1710     -16.802  -6.758 -29.470  0.00  0.00    -0.348 OA
ATOM     84  O5  IDS d1710     -18.236  -4.576 -28.328  0.00  0.00    -0.340 OA
ATOM     85  C6  IDS d1710     -16.117  -3.891 -29.178  0.00  0.00     0.206 C 
ATOM     86  O2S IDS d1710     -21.240  -6.824 -26.786  0.00  0.00    -0.572 OA
ATOM     87  C5  IDS d1710     -17.473  -4.436 -29.543  0.00  0.00     0.152 C 
ATOM     88  S   IDS d1710     -20.607  -7.917 -27.553  0.00  0.00     0.252 S 
ATOM     89  C2  IDS d1710     -19.811  -6.131 -29.311  0.00  0.00     0.134 C 
ATOM     90  O3S IDS d1710     -21.529  -8.504 -28.529  0.00  0.00    -0.572 OA
ATOM     91  C4  IDS d1710     -17.467  -5.783 -30.282  0.00  0.00     0.103 C 
ATOM     92  C1  IDS d1710     -19.628  -4.839 -28.499  0.00  0.00     0.161 C 
ATOM     93  O61 IDS d1710     -15.316  -3.566 -30.083  0.00  0.00    -0.646 OA
ATOM     94  H   IDS d1710     -18.900  -7.231 -30.850  0.00  0.00     0.091 H 
ATOM     95  H   IDS d1710     -19.453  -4.466 -31.331  0.00  0.00     0.210 HD
ATOM     96  H   IDS d1710     -17.901  -3.737 -30.231  0.00  0.00     0.104 H 
ATOM     97  H   IDS d1710     -20.825  -6.148 -29.655  0.00  0.00     0.097 H 
ATOM     98  H   IDS d1710     -16.947  -5.699 -31.213  0.00  0.00     0.092 H 
ATOM     99  H   IDS d1710     -20.072  -4.932 -27.531  0.00  0.00     0.133 H 
ATOM    100  C4  SGN d1713      -7.118 -11.105 -25.139  0.00  0.00     0.095 C 
ATOM    101  N   SGN d1713      -7.687  -8.086 -23.002  0.00  0.00    -0.210 NA
ATOM    102  O4S SGN d1713      -7.297 -15.543 -26.031  0.00  0.00    -0.572 OA
ATOM    103  O4  SGN d1713      -6.573 -11.279 -26.458  0.00  0.00    -0.348 OA
ATOM    104  C2  SGN d1713      -7.795  -9.466 -23.412  0.00  0.00     0.081 C 
ATOM    105  O6  SGN d1713      -8.206 -13.694 -24.546  0.00  0.00    -0.254 OA
ATOM    106  O2S SGN d1713      -7.314  -8.605 -20.688  0.00  0.00    -0.296 OA
ATOM    107  O3S SGN d1713      -7.374  -6.119 -21.374  0.00  0.00    -0.296 OA
ATOM    108  C6  SGN d1713      -8.837 -12.934 -25.584  0.00  0.00     0.067 C 
ATOM    109  O5S SGN d1713      -9.548 -15.783 -25.081  0.00  0.00    -0.572 OA
ATOM    110  C5  SGN d1713      -8.611 -11.475 -25.329  0.00  0.00     0.091 C 
ATOM    111  O3  SGN d1713      -5.574  -9.507 -24.283  0.00  0.00    -0.391 OA
ATOM    112  O1S SGN d1713      -9.379  -7.548 -21.311  0.00  0.00    -0.296 OA
ATOM    113  S1  SGN d1713      -7.958  -7.610 -21.497  0.00  0.00     0.156 S 
ATOM    114  O5  SGN d1713      -9.329 -11.204 -24.104  0.00  0.00    -0.349 OA
ATOM    115  S2  SGN d1713      -8.069 -15.235 -24.810  0.00  0.00     0.251 S 
ATOM    116  O6S SGN d1713      -7.507 -15.748 -23.582  0.00  0.00    -0.572 OA
ATOM    117  C3  SGN d1713      -6.946  -9.669 -24.653  0.00  0.00     0.083 C 
ATOM    118  C1  SGN d1713      -9.255  -9.854 -23.672  0.00  0.00     0.150 C 
ATOM    119  H   SGN d1713      -6.631 -11.703 -24.397  0.00  0.00     0.091 H 
ATOM    120  H   SGN d1713      -8.342  -7.566 -23.586  0.00  0.00     0.140 HD
ATOM    121  H   SGN d1713      -7.440 -10.101 -22.627  0.00  0.00     0.076 H 
ATOM    122  H   SGN d1713      -6.360  -8.595 -20.861  0.00  0.00     0.231 HD
ATOM    123  H   SGN d1713      -6.412  -6.137 -21.498  0.00  0.00     0.231 HD
ATOM    124  H   SGN d1713      -9.888 -13.139 -25.590  0.00  0.00     0.080 H 
ATOM    125  H   SGN d1713      -8.421 -13.204 -26.533  0.00  0.00     0.080 H 
ATOM    126  H   SGN d1713      -8.942 -10.899 -26.169  0.00  0.00     0.090 H 
ATOM    127  H   SGN d1713      -5.011  -9.632 -25.064  0.00  0.00     0.210 HD
ATOM    128  H   SGN d1713      -9.754  -8.441 -21.381  0.00  0.00     0.231 HD
ATOM    129  H   SGN d1713      -7.235  -8.972 -25.412  0.00  0.00     0.089 H 
ATOM    130  H   SGN d1713      -9.829  -9.756 -22.773  0.00  0.00     0.131 H 
ATOM    131  C2  SGN d1711     -15.871  -8.938 -29.426  0.00  0.00     0.081 C 
ATOM    132  O4S SGN d1711      -9.823  -6.410 -30.394  0.00  0.00    -0.572 OA
ATOM    133  S1  SGN d1711     -17.863 -10.569 -30.081  0.00  0.00     0.156 S 
ATOM    134  C3  SGN d1711     -14.983  -8.695 -28.192  0.00  0.00     0.083 C 
ATOM    135  O2S SGN d1711     -17.109 -11.772 -29.904  0.00  0.00    -0.296 OA
ATOM    136  O3  SGN d1711     -14.716  -9.920 -27.500  0.00  0.00    -0.391 OA
ATOM    137  N   SGN d1711     -17.182  -9.495 -29.096  0.00  0.00    -0.210 NA
ATOM    138  C4  SGN d1711     -13.669  -8.055 -28.669  0.00  0.00     0.095 C 
ATOM    139  O4  SGN d1711     -13.027  -7.503 -27.498  0.00  0.00    -0.348 OA
ATOM    140  O6S SGN d1711     -10.371  -7.418 -32.460  0.00  0.00    -0.572 OA
ATOM    141  S2  SGN d1711     -10.756  -6.446 -31.525  0.00  0.00     0.251 S 
ATOM    142  O5  SGN d1711     -14.759  -7.128 -30.601  0.00  0.00    -0.349 OA
ATOM    143  C5  SGN d1711     -13.967  -6.749 -29.460  0.00  0.00     0.091 C 
ATOM    144  O1S SGN d1711     -17.831 -10.025 -31.425  0.00  0.00    -0.296 OA
ATOM    145  O6  SGN d1711     -12.102  -6.887 -30.910  0.00  0.00    -0.254 OA
ATOM    146  O5S SGN d1711     -10.999  -4.975 -32.088  0.00  0.00    -0.572 OA
ATOM    147  O3S SGN d1711     -19.364 -10.668 -29.558  0.00  0.00    -0.296 OA
ATOM    148  C1  SGN d1711     -16.038  -7.661 -30.274  0.00  0.00     0.150 C 
ATOM    149  C6  SGN d1711     -12.759  -5.996 -30.018  0.00  0.00     0.067 C 
ATOM    150  H   SGN d1711     -15.352  -9.672 -30.005  0.00  0.00     0.076 H 
ATOM    151  H   SGN d1711     -15.489  -8.046 -27.508  0.00  0.00     0.089 H 
ATOM    152  H   SGN d1711     -16.210 -11.643 -30.243  0.00  0.00     0.231 HD
ATOM    153  H   SGN d1711     -14.256 -10.533 -28.094  0.00  0.00     0.210 HD
ATOM    154  H   SGN d1711     -17.828  -8.709 -29.024  0.00  0.00     0.140 HD
ATOM    155  H   SGN d1711     -13.121  -8.786 -29.225  0.00  0.00     0.091 H 
ATOM    156  H   SGN d1711     -14.434  -6.089 -28.759  0.00  0.00     0.090 H 
ATOM    157  H   SGN d1711     -16.913  -9.971 -31.731  0.00  0.00     0.231 HD
ATOM    158  H   SGN d1711     -19.815  -9.823 -29.708  0.00  0.00     0.231 HD
ATOM    159  H   SGN d1711     -16.535  -7.849 -31.202  0.00  0.00     0.131 H 
ATOM    160  H   SGN d1711     -12.099  -5.715 -29.223  0.00  0.00     0.080 H 
ATOM    161  H   SGN d1711     -13.059  -5.099 -30.519  0.00  0.00     0.080 H 
ENDROOT
TORSDOF 50
ENDMDL
MODEL 45
REMARK VINA RESULT:      -4.7      3.259     15.362
REMARK  0 active torsions:
REMARK  status: ('A' for Active; 'I' for Inactive)
REMARK       I    between atoms: C2_1  and  O2_12 
REMARK       I    between atoms: C1_4  and  O4_37 
REMARK       I    between atoms: O2S_5  and  S1_43 
REMARK       I    between atoms: O2_11  and  C2_82 
REMARK       I    between atoms: O2_11  and  S_80 
REMARK       I    between atoms: O2_12  and  S_23 
REMARK       I    between atoms: C4_13  and  O4_37 
REMARK       I    between atoms: C2_14  and  N_39 
REMARK       I    between atoms: O1_18  and  C1_32 
REMARK       I    between atoms: C4_19  and  O4_53 
REMARK       I    between atoms: O6_20  and  C6_76 
REMARK       I    between atoms: O6_20  and  S2_95 
REMARK       I    between atoms: S1_21  and  N_39 
REMARK       I    between atoms: S1_21  and  O1S_79 
REMARK       I    between atoms: S1_21  and  O2S_30 
REMARK       I    between atoms: S1_21  and  O3S_94 
REMARK       I    between atoms: C3_24  and  O3_26 
REMARK       I    between atoms: C3_25  and  O3_36 
REMARK       I    between atoms: C6_27  and  C5_83 
REMARK       I    between atoms: C4_28  and  O4_51 
REMARK       I    between atoms: N_29  and  C2_40 
REMARK       I    between atoms: N_29  and  S1_71 
REMARK       I    between atoms: C5_31  and  C6_76 
REMARK       I    between atoms: O1S_35  and  S1_43 
REMARK       I    between atoms: O4_38  and  C4_93 
REMARK       I    between atoms: O4_38  and  C1_96 
REMARK       I    between atoms: O6_41  and  C6_54 
REMARK       I    between atoms: O6_41  and  S2_84 
REMARK       I    between atoms: C4_42  and  O4_49 
REMARK       I    between atoms: S1_43  and  N_47 
REMARK       I    between atoms: S1_43  and  O3S_69 
REMARK       I    between atoms: O2S_44  and  S1_71 
REMARK       I    between atoms: N_47  and  C2_56 
REMARK       I    between atoms: O2_48  and  C2_99 
REMARK       I    between atoms: O2_48  and  S_63 
REMARK       I    between atoms: O4_49  and  C1_57 
REMARK       I    between atoms: O4_51  and  C1_102 
REMARK       I    between atoms: O3S_52  and  S1_71 
REMARK       I    between atoms: O4_53  and  C1_105 
REMARK       I    between atoms: C6_54  and  C5_59 
REMARK       I    between atoms: O3_60  and  C3_100 
REMARK       I    between atoms: O1S_61  and  S1_71 
REMARK       I    between atoms: S2_62  and  O6_81 
REMARK       I    between atoms: C5_65  and  C6_89 
REMARK       I    between atoms: C6_67  and  C5_74 
REMARK       I    between atoms: C3_68  and  O3_104 
REMARK       I    between atoms: C3_70  and  O3_85 
REMARK       I    between atoms: C5_77  and  C6_101 
REMARK       I    between atoms: O6_81  and  C6_101 
REMARK       I    between atoms: C3_92  and  O3_98 
ROOT
ATOM      1  C2  IDS d1714      -8.007 -12.361 -28.666  0.00  0.00     0.132 C 
ATOM      2  O3S IDS d1714      -6.512 -15.834 -29.255  0.00  0.00    -0.572 OA
ATOM      3  C1  IDS d1714      -7.541 -11.454 -27.557  0.00  0.00     0.161 C 
ATOM      4  O2S IDS d1714      -8.549 -14.857 -30.155  0.00  0.00    -0.572 OA
ATOM      5  O2  IDS d1714      -7.177 -13.534 -28.648  0.00  0.00    -0.244 OA
ATOM      6  S   IDS d1714      -7.667 -14.958 -28.963  0.00  0.00     0.252 S 
ATOM      7  C6  IDS d1714      -4.798  -9.546 -29.180  0.00  0.00     0.203 C 
ATOM      8  O5  IDS d1714      -6.225 -10.978 -27.889  0.00  0.00    -0.343 OA
ATOM      9  C4  IDS d1714      -6.697 -10.857 -30.309  0.00  0.00    -0.005 C 
ATOM     10  O61 IDS d1714      -3.974  -9.759 -28.257  0.00  0.00    -0.646 OA
ATOM     11  C3  IDS d1714      -7.930 -11.734 -30.054  0.00  0.00     0.069 C 
ATOM     12  C5  IDS d1714      -6.183 -10.160 -29.055  0.00  0.00     0.127 C 
ATOM     13  O3  IDS d1714      -9.135 -10.996 -30.312  0.00  0.00    -0.393 OA
ATOM     14  O1S IDS d1714      -8.441 -15.356 -27.782  0.00  0.00    -0.572 OA
ATOM     15  O62 IDS d1714      -4.511  -8.849 -30.181  0.00  0.00    -0.646 OA
ATOM     16  H   IDS d1714      -9.040 -12.577 -28.488  0.00  0.00     0.097 H 
ATOM     17  H   IDS d1714      -7.451 -11.916 -26.596  0.00  0.00     0.133 H 
ATOM     18  H   IDS d1714      -6.956 -10.110 -31.030  0.00  0.00     0.041 H 
ATOM     19  H   IDS d1714      -5.916 -11.500 -30.656  0.00  0.00     0.041 H 
ATOM     20  H   IDS d1714      -7.826 -12.551 -30.736  0.00  0.00     0.087 H 
ATOM     21  H   IDS d1714      -6.881  -9.356 -28.945  0.00  0.00     0.100 H 
ATOM     22  H   IDS d1714      -9.207 -10.263 -29.681  0.00  0.00     0.210 HD
ATOM     23  O5  SGN d1709     -24.309  -0.283 -26.156  0.00  0.00    -0.350 OA
ATOM     24  O2S SGN d1709     -23.476   3.058 -29.362  0.00  0.00    -0.296 OA
ATOM     25  O4S SGN d1709     -25.968  -3.476 -22.409  0.00  0.00    -0.572 OA
ATOM     26  O1  SGN d1709     -25.132  -0.102 -28.355  0.00  0.00    -0.369 OA
ATOM     27  O6  SGN d1709     -25.668  -1.870 -24.227  0.00  0.00    -0.254 OA
ATOM     28  C4  SGN d1709     -22.764  -2.032 -26.609  0.00  0.00     0.095 C 
ATOM     29  C5  SGN d1709     -24.181  -1.705 -26.125  0.00  0.00     0.091 C 
ATOM     30  C1  SGN d1709     -24.146   0.343 -27.428  0.00  0.00     0.147 C 
ATOM     31  O5S SGN d1709     -27.580  -1.521 -22.611  0.00  0.00    -0.572 OA
ATOM     32  O1S SGN d1709     -21.730   2.374 -30.838  0.00  0.00    -0.296 OA
ATOM     33  S1  SGN d1709     -22.307   2.233 -29.520  0.00  0.00     0.156 S 
ATOM     34  N   SGN d1709     -22.603   0.683 -29.290  0.00  0.00    -0.210 NA
ATOM     35  O4  SGN d1709     -22.764  -3.465 -26.718  0.00  0.00    -0.348 OA
ATOM     36  C2  SGN d1709     -22.737   0.081 -27.969  0.00  0.00     0.081 C 
ATOM     37  C3  SGN d1709     -22.490  -1.432 -27.977  0.00  0.00     0.083 C 
ATOM     38  O3S SGN d1709     -21.268   2.635 -28.422  0.00  0.00    -0.296 OA
ATOM     39  C6  SGN d1709     -24.345  -2.130 -24.661  0.00  0.00     0.067 C 
ATOM     40  S2  SGN d1709     -26.033  -2.055 -22.742  0.00  0.00     0.251 S 
ATOM     41  O6S SGN d1709     -25.164  -1.172 -21.951  0.00  0.00    -0.572 OA
ATOM     42  O3  SGN d1709     -21.120  -1.629 -28.330  0.00  0.00    -0.391 OA
ATOM     43  H   SGN d1709     -24.133   2.821 -30.036  0.00  0.00     0.231 HD
ATOM     44  H   SGN d1709     -26.015   0.072 -27.996  0.00  0.00     0.212 HD
ATOM     45  H   SGN d1709     -22.020  -1.641 -25.947  0.00  0.00     0.091 H 
ATOM     46  H   SGN d1709     -24.901  -2.206 -26.737  0.00  0.00     0.090 H 
ATOM     47  H   SGN d1709     -24.276   1.397 -27.300  0.00  0.00     0.131 H 
ATOM     48  H   SGN d1709     -22.386   2.122 -31.507  0.00  0.00     0.231 HD
ATOM     49  H   SGN d1709     -21.842   0.183 -29.750  0.00  0.00     0.140 HD
ATOM     50  H   SGN d1709     -21.993   0.531 -27.346  0.00  0.00     0.076 H 
ATOM     51  H   SGN d1709     -23.142  -1.913 -28.674  0.00  0.00     0.089 H 
ATOM     52  H   SGN d1709     -21.048   3.576 -28.513  0.00  0.00     0.231 HD
ATOM     53  H   SGN d1709     -24.143  -3.177 -24.571  0.00  0.00     0.080 H 
ATOM     54  H   SGN d1709     -23.661  -1.574 -24.055  0.00  0.00     0.080 H 
ATOM     55  H   SGN d1709     -20.552  -1.183 -27.681  0.00  0.00     0.210 HD
ATOM     56  O1S IDS d1712     -10.533  -6.073 -30.317  0.00  0.00    -0.572 OA
ATOM     57  O2S IDS d1712     -11.991  -4.274 -29.490  0.00  0.00    -0.572 OA
ATOM     58  O61 IDS d1712     -12.712  -8.330 -22.950  0.00  0.00    -0.646 OA
ATOM     59  O5  IDS d1712     -13.360  -8.197 -26.461  0.00  0.00    -0.340 OA
ATOM     60  C4  IDS d1712     -12.011  -6.623 -25.223  0.00  0.00     0.103 C 
ATOM     61  O2  IDS d1712     -11.873  -6.420 -28.407  0.00  0.00    -0.244 OA
ATOM     62  O4  IDS d1712     -10.812  -7.183 -25.770  0.00  0.00    -0.348 OA
ATOM     63  C1  IDS d1712     -13.857  -7.272 -27.417  0.00  0.00     0.161 C 
ATOM     64  S   IDS d1712     -11.059  -5.354 -29.149  0.00  0.00     0.252 S 
ATOM     65  C5  IDS d1712     -13.143  -7.656 -25.153  0.00  0.00     0.152 C 
ATOM     66  O62 IDS d1712     -12.830  -9.911 -24.470  0.00  0.00    -0.646 OA
ATOM     67  O3S IDS d1712      -9.991  -4.900 -28.209  0.00  0.00    -0.572 OA
ATOM     68  C6  IDS d1712     -12.877  -8.716 -24.129  0.00  0.00     0.206 C 
ATOM     69  C3  IDS d1712     -12.464  -5.512 -26.160  0.00  0.00     0.094 C 
ATOM     70  O3  IDS d1712     -13.546  -4.789 -25.555  0.00  0.00    -0.390 OA
ATOM     71  C2  IDS d1712     -12.948  -6.075 -27.521  0.00  0.00     0.134 C 
ATOM     72  H   IDS d1712     -11.806  -6.274 -24.232  0.00  0.00     0.092 H 
ATOM     73  H   IDS d1712     -13.905  -7.780 -28.358  0.00  0.00     0.133 H 
ATOM     74  H   IDS d1712     -14.041  -7.173 -24.828  0.00  0.00     0.104 H 
ATOM     75  H   IDS d1712     -11.626  -4.871 -26.334  0.00  0.00     0.091 H 
ATOM     76  H   IDS d1712     -14.294  -5.390 -25.408  0.00  0.00     0.210 HD
ATOM     77  H   IDS d1712     -13.507  -5.256 -27.924  0.00  0.00     0.097 H 
ATOM     78  O62 IDS d1710     -18.311  -3.452 -27.800  0.00  0.00    -0.646 OA
ATOM     79  O2  IDS d1710     -21.316  -6.240 -24.857  0.00  0.00    -0.244 OA
ATOM     80  O1S IDS d1710     -20.671  -6.792 -22.532  0.00  0.00    -0.572 OA
ATOM     81  C3  IDS d1710     -21.900  -6.386 -27.197  0.00  0.00     0.094 C 
ATOM     82  O3  IDS d1710     -22.959  -6.111 -28.115  0.00  0.00    -0.390 OA
ATOM     83  O4  IDS d1710     -19.474  -6.621 -27.109  0.00  0.00    -0.348 OA
ATOM     84  O5  IDS d1710     -20.474  -4.000 -26.611  0.00  0.00    -0.340 OA
ATOM     85  C6  IDS d1710     -19.103  -4.065 -28.560  0.00  0.00     0.206 C 
ATOM     86  O2S IDS d1710     -22.099  -4.864 -22.995  0.00  0.00    -0.572 OA
ATOM     87  C5  IDS d1710     -20.391  -4.544 -27.942  0.00  0.00     0.152 C 
ATOM     88  S   IDS d1710     -21.763  -6.258 -23.351  0.00  0.00     0.252 S 
ATOM     89  C2  IDS d1710     -22.114  -5.626 -25.879  0.00  0.00     0.134 C 
ATOM     90  O3S IDS d1710     -22.951  -7.116 -23.375  0.00  0.00    -0.572 OA
ATOM     91  C4  IDS d1710     -20.559  -6.069 -27.865  0.00  0.00     0.103 C 
ATOM     92  C1  IDS d1710     -21.739  -4.137 -25.965  0.00  0.00     0.161 C 
ATOM     93  O61 IDS d1710     -18.866  -4.306 -29.764  0.00  0.00    -0.646 OA
ATOM     94  H   IDS d1710     -21.894  -7.424 -26.940  0.00  0.00     0.091 H 
ATOM     95  H   IDS d1710     -22.955  -5.167 -28.342  0.00  0.00     0.210 HD
ATOM     96  H   IDS d1710     -21.175  -4.205 -28.586  0.00  0.00     0.104 H 
ATOM     97  H   IDS d1710     -23.160  -5.676 -25.655  0.00  0.00     0.097 H 
ATOM     98  H   IDS d1710     -20.549  -6.499 -28.845  0.00  0.00     0.092 H 
ATOM     99  H   IDS d1710     -21.665  -3.708 -24.988  0.00  0.00     0.133 H 
ATOM    100  C4  SGN d1713      -8.424  -9.578 -26.348  0.00  0.00     0.095 C 
ATOM    101  N   SGN d1713      -8.310  -5.864 -25.901  0.00  0.00    -0.210 NA
ATOM    102  O4S SGN d1713      -8.431 -13.852 -24.845  0.00  0.00    -0.572 OA
ATOM    103  O4  SGN d1713      -8.540 -10.419 -27.508  0.00  0.00    -0.348 OA
ATOM    104  C2  SGN d1713      -8.419  -7.248 -25.509  0.00  0.00     0.081 C 
ATOM    105  O6  SGN d1713      -8.770 -11.424 -24.177  0.00  0.00    -0.254 OA
ATOM    106  O2S SGN d1713      -6.838  -5.273 -24.099  0.00  0.00    -0.296 OA
ATOM    107  O3S SGN d1713      -7.527  -3.418 -25.755  0.00  0.00    -0.296 OA
ATOM    108  C6  SGN d1713      -9.904 -11.172 -25.017  0.00  0.00     0.067 C 
ATOM    109  O5S SGN d1713      -9.928 -13.335 -22.969  0.00  0.00    -0.572 OA
ATOM    110  C5  SGN d1713      -9.772  -9.805 -25.619  0.00  0.00     0.091 C 
ATOM    111  O3  SGN d1713      -6.876  -7.970 -27.180  0.00  0.00    -0.391 OA
ATOM    112  O1S SGN d1713      -9.071  -4.388 -24.097  0.00  0.00    -0.296 OA
ATOM    113  S1  SGN d1713      -7.906  -4.706 -24.872  0.00  0.00     0.156 S 
ATOM    114  O5  SGN d1713      -9.864  -8.902 -24.493  0.00  0.00    -0.349 OA
ATOM    115  S2  SGN d1713      -8.577 -12.911 -23.715  0.00  0.00     0.251 S 
ATOM    116  O6S SGN d1713      -7.447 -12.851 -22.817  0.00  0.00    -0.572 OA
ATOM    117  C3  SGN d1713      -8.230  -8.115 -26.739  0.00  0.00     0.083 C 
ATOM    118  C1  SGN d1713      -9.770  -7.528 -24.839  0.00  0.00     0.150 C 
ATOM    119  H   SGN d1713      -7.576  -9.811 -25.739  0.00  0.00     0.091 H 
ATOM    120  H   SGN d1713      -9.221  -5.604 -26.278  0.00  0.00     0.140 HD
ATOM    121  H   SGN d1713      -7.661  -7.477 -24.789  0.00  0.00     0.076 H 
ATOM    122  H   SGN d1713      -6.085  -5.464 -24.680  0.00  0.00     0.231 HD
ATOM    123  H   SGN d1713      -6.740  -3.611 -26.288  0.00  0.00     0.231 HD
ATOM    124  H   SGN d1713     -10.800 -11.223 -24.434  0.00  0.00     0.080 H 
ATOM    125  H   SGN d1713      -9.947 -11.905 -25.795  0.00  0.00     0.080 H 
ATOM    126  H   SGN d1713     -10.527  -9.657 -26.363  0.00  0.00     0.090 H 
ATOM    127  H   SGN d1713      -6.732  -8.518 -27.968  0.00  0.00     0.210 HD
ATOM    128  H   SGN d1713      -9.317  -5.154 -23.555  0.00  0.00     0.231 HD
ATOM    129  H   SGN d1713      -8.925  -7.829 -27.500  0.00  0.00     0.089 H 
ATOM    130  H   SGN d1713      -9.865  -6.948 -23.944  0.00  0.00     0.131 H 
ATOM    131  C2  SGN d1711     -18.361  -8.620 -26.486  0.00  0.00     0.081 C 
ATOM    132  O4S SGN d1711     -13.840  -7.618 -31.226  0.00  0.00    -0.572 OA
ATOM    133  S1  SGN d1711     -20.203 -10.105 -25.280  0.00  0.00     0.156 S 
ATOM    134  C3  SGN d1711     -17.040  -7.936 -26.091  0.00  0.00     0.083 C 
ATOM    135  O2S SGN d1711     -19.308 -11.166 -24.933  0.00  0.00    -0.296 OA
ATOM    136  O3  SGN d1711     -16.327  -8.713 -25.123  0.00  0.00    -0.391 OA
ATOM    137  N   SGN d1711     -19.284  -8.788 -25.365  0.00  0.00    -0.210 NA
ATOM    138  C4  SGN d1711     -16.193  -7.764 -27.364  0.00  0.00     0.095 C 
ATOM    139  O4  SGN d1711     -15.155  -6.811 -27.047  0.00  0.00    -0.348 OA
ATOM    140  O6S SGN d1711     -15.155  -9.404 -32.043  0.00  0.00    -0.572 OA
ATOM    141  S2  SGN d1711     -15.180  -8.066 -31.620  0.00  0.00     0.251 S 
ATOM    142  O5  SGN d1711     -18.166  -7.731 -28.737  0.00  0.00    -0.349 OA
ATOM    143  C5  SGN d1711     -16.989  -6.960 -28.431  0.00  0.00     0.091 C 
ATOM    144  O1S SGN d1711     -20.871 -10.268 -26.556  0.00  0.00    -0.296 OA
ATOM    145  O6  SGN d1711     -16.015  -7.995 -30.323  0.00  0.00    -0.254 OA
ATOM    146  O5S SGN d1711     -15.843  -7.017 -32.620  0.00  0.00    -0.572 OA
ATOM    147  O3S SGN d1711     -21.260  -9.759 -24.140  0.00  0.00    -0.296 OA
ATOM    148  C1  SGN d1711     -19.065  -7.883 -27.643  0.00  0.00     0.150 C 
ATOM    149  C6  SGN d1711     -16.287  -6.715 -29.767  0.00  0.00     0.067 C 
ATOM    150  H   SGN d1711     -18.083  -9.598 -26.817  0.00  0.00     0.076 H 
ATOM    151  H   SGN d1711     -17.246  -6.984 -25.649  0.00  0.00     0.089 H 
ATOM    152  H   SGN d1711     -18.695 -11.325 -25.668  0.00  0.00     0.231 HD
ATOM    153  H   SGN d1711     -16.124  -9.586 -25.494  0.00  0.00     0.210 HD
ATOM    154  H   SGN d1711     -19.916  -7.988 -25.379  0.00  0.00     0.140 HD
ATOM    155  H   SGN d1711     -15.879  -8.733 -27.692  0.00  0.00     0.091 H 
ATOM    156  H   SGN d1711     -17.155  -5.996 -27.998  0.00  0.00     0.090 H 
ATOM    157  H   SGN d1711     -20.216 -10.478 -27.240  0.00  0.00     0.231 HD
ATOM    158  H   SGN d1711     -21.832  -9.036 -24.439  0.00  0.00     0.231 HD
ATOM    159  H   SGN d1711     -19.909  -8.423 -28.018  0.00  0.00     0.131 H 
ATOM    160  H   SGN d1711     -15.375  -6.178 -29.612  0.00  0.00     0.080 H 
ATOM    161  H   SGN d1711     -16.898  -6.131 -30.424  0.00  0.00     0.080 H 
ENDROOT
TORSDOF 50
ENDMDL
MODEL 46
REMARK VINA RESULT:      -4.0      3.835     15.152
REMARK  0 active torsions:
REMARK  status: ('A' for Active; 'I' for Inactive)
REMARK       I    between atoms: C2_1  and  O2_12 
REMARK       I    between atoms: C1_4  and  O4_37 
REMARK       I    between atoms: O2S_5  and  S1_43 
REMARK       I    between atoms: O2_11  and  C2_82 
REMARK       I    between atoms: O2_11  and  S_80 
REMARK       I    between atoms: O2_12  and  S_23 
REMARK       I    between atoms: C4_13  and  O4_37 
REMARK       I    between atoms: C2_14  and  N_39 
REMARK       I    between atoms: O1_18  and  C1_32 
REMARK       I    between atoms: C4_19  and  O4_53 
REMARK       I    between atoms: O6_20  and  C6_76 
REMARK       I    between atoms: O6_20  and  S2_95 
REMARK       I    between atoms: S1_21  and  N_39 
REMARK       I    between atoms: S1_21  and  O1S_79 
REMARK       I    between atoms: S1_21  and  O2S_30 
REMARK       I    between atoms: S1_21  and  O3S_94 
REMARK       I    between atoms: C3_24  and  O3_26 
REMARK       I    between atoms: C3_25  and  O3_36 
REMARK       I    between atoms: C6_27  and  C5_83 
REMARK       I    between atoms: C4_28  and  O4_51 
REMARK       I    between atoms: N_29  and  C2_40 
REMARK       I    between atoms: N_29  and  S1_71 
REMARK       I    between atoms: C5_31  and  C6_76 
REMARK       I    between atoms: O1S_35  and  S1_43 
REMARK       I    between atoms: O4_38  and  C4_93 
REMARK       I    between atoms: O4_38  and  C1_96 
REMARK       I    between atoms: O6_41  and  C6_54 
REMARK       I    between atoms: O6_41  and  S2_84 
REMARK       I    between atoms: C4_42  and  O4_49 
REMARK       I    between atoms: S1_43  and  N_47 
REMARK       I    between atoms: S1_43  and  O3S_69 
REMARK       I    between atoms: O2S_44  and  S1_71 
REMARK       I    between atoms: N_47  and  C2_56 
REMARK       I    between atoms: O2_48  and  C2_99 
REMARK       I    between atoms: O2_48  and  S_63 
REMARK       I    between atoms: O4_49  and  C1_57 
REMARK       I    between atoms: O4_51  and  C1_102 
REMARK       I    between atoms: O3S_52  and  S1_71 
REMARK       I    between atoms: O4_53  and  C1_105 
REMARK       I    between atoms: C6_54  and  C5_59 
REMARK       I    between atoms: O3_60  and  C3_100 
REMARK       I    between atoms: O1S_61  and  S1_71 
REMARK       I    between atoms: S2_62  and  O6_81 
REMARK       I    between atoms: C5_65  and  C6_89 
REMARK       I    between atoms: C6_67  and  C5_74 
REMARK       I    between atoms: C3_68  and  O3_104 
REMARK       I    between atoms: C3_70  and  O3_85 
REMARK       I    between atoms: C5_77  and  C6_101 
REMARK       I    between atoms: O6_81  and  C6_101 
REMARK       I    between atoms: C3_92  and  O3_98 
ROOT
ATOM      1  C2  IDS d1714      -7.526  -8.133 -30.553  0.00  0.00     0.132 C 
ATOM      2  O3S IDS d1714      -5.381 -11.091 -31.691  0.00  0.00    -0.572 OA
ATOM      3  C1  IDS d1714      -7.090  -7.186 -29.465  0.00  0.00     0.161 C 
ATOM      4  O2S IDS d1714      -7.724 -10.620 -32.139  0.00  0.00    -0.572 OA
ATOM      5  O2  IDS d1714      -6.451  -9.059 -30.780  0.00  0.00    -0.244 OA
ATOM      6  S   IDS d1714      -6.636 -10.547 -31.130  0.00  0.00     0.252 S 
ATOM      7  C6  IDS d1714      -5.238  -4.584 -31.362  0.00  0.00     0.203 C 
ATOM      8  O5  IDS d1714      -6.012  -6.381 -29.975  0.00  0.00    -0.343 OA
ATOM      9  C4  IDS d1714      -6.946  -6.280 -32.258  0.00  0.00    -0.005 C 
ATOM     10  O61 IDS d1714      -4.229  -4.621 -30.617  0.00  0.00    -0.646 OA
ATOM     11  C3  IDS d1714      -7.863  -7.449 -31.873  0.00  0.00     0.069 C 
ATOM     12  C5  IDS d1714      -6.387  -5.530 -31.056  0.00  0.00     0.127 C 
ATOM     13  O3  IDS d1714      -9.235  -7.027 -31.855  0.00  0.00    -0.393 OA
ATOM     14  O1S IDS d1714      -7.056 -11.176 -29.873  0.00  0.00    -0.572 OA
ATOM     15  O62 IDS d1714      -5.319  -3.795 -32.333  0.00  0.00    -0.646 OA
ATOM     16  H   IDS d1714      -8.424  -8.609 -30.220  0.00  0.00     0.097 H 
ATOM     17  H   IDS d1714      -6.713  -7.650 -28.578  0.00  0.00     0.133 H 
ATOM     18  H   IDS d1714      -7.506  -5.593 -32.857  0.00  0.00     0.041 H 
ATOM     19  H   IDS d1714      -6.113  -6.692 -32.789  0.00  0.00     0.041 H 
ATOM     20  H   IDS d1714      -7.696  -8.184 -32.632  0.00  0.00     0.087 H 
ATOM     21  H   IDS d1714      -7.223  -4.932 -30.758  0.00  0.00     0.100 H 
ATOM     22  H   IDS d1714      -9.361  -6.362 -31.160  0.00  0.00     0.210 HD
ATOM     23  O5  SGN d1709     -25.471  -0.653 -24.236  0.00  0.00    -0.350 OA
ATOM     24  O2S SGN d1709     -26.080   2.922 -27.233  0.00  0.00    -0.296 OA
ATOM     25  O4S SGN d1709     -25.584  -4.316 -20.553  0.00  0.00    -0.572 OA
ATOM     26  O1  SGN d1709     -26.712  -0.592 -26.237  0.00  0.00    -0.369 OA
ATOM     27  O6  SGN d1709     -26.024  -2.610 -22.248  0.00  0.00    -0.254 OA
ATOM     28  C4  SGN d1709     -23.667  -1.937 -25.098  0.00  0.00     0.095 C 
ATOM     29  C5  SGN d1709     -25.003  -1.997 -24.351  0.00  0.00     0.091 C 
ATOM     30  C1  SGN d1709     -25.705   0.047 -25.457  0.00  0.00     0.147 C 
ATOM     31  O5S SGN d1709     -27.625  -2.821 -20.304  0.00  0.00    -0.572 OA
ATOM     32  O1S SGN d1709     -24.531   2.761 -29.041  0.00  0.00    -0.296 OA
ATOM     33  S1  SGN d1709     -24.799   2.424 -27.661  0.00  0.00     0.156 S 
ATOM     34  N   SGN d1709     -24.666   0.842 -27.520  0.00  0.00    -0.210 NA
ATOM     35  O4  SGN d1709     -23.344  -3.319 -25.331  0.00  0.00    -0.348 OA
ATOM     36  C2  SGN d1709     -24.402   0.170 -26.253  0.00  0.00     0.081 C 
ATOM     37  C3  SGN d1709     -23.806  -1.231 -26.435  0.00  0.00     0.083 C 
ATOM     38  O3S SGN d1709     -23.698   3.028 -26.727  0.00  0.00    -0.296 OA
ATOM     39  C6  SGN d1709     -24.784  -2.512 -22.924  0.00  0.00     0.067 C 
ATOM     40  S2  SGN d1709     -26.048  -2.943 -20.745  0.00  0.00     0.251 S 
ATOM     41  O6S SGN d1709     -25.283  -1.906 -20.040  0.00  0.00    -0.572 OA
ATOM     42  O3  SGN d1709     -22.520  -1.063 -27.034  0.00  0.00    -0.391 OA
ATOM     43  H   SGN d1709     -26.775   2.557 -27.802  0.00  0.00     0.231 HD
ATOM     44  H   SGN d1709     -27.528  -0.660 -25.718  0.00  0.00     0.212 HD
ATOM     45  H   SGN d1709     -22.927  -1.401 -24.542  0.00  0.00     0.091 H 
ATOM     46  H   SGN d1709     -25.685  -2.637 -24.872  0.00  0.00     0.090 H 
ATOM     47  H   SGN d1709     -26.057   1.028 -25.217  0.00  0.00     0.131 H 
ATOM     48  H   SGN d1709     -25.221   2.381 -29.607  0.00  0.00     0.231 HD
ATOM     49  H   SGN d1709     -23.909   0.568 -28.145  0.00  0.00     0.140 HD
ATOM     50  H   SGN d1709     -23.684   0.766 -25.730  0.00  0.00     0.076 H 
ATOM     51  H   SGN d1709     -24.444  -1.831 -27.050  0.00  0.00     0.089 H 
ATOM     52  H   SGN d1709     -23.731   3.996 -26.771  0.00  0.00     0.231 HD
ATOM     53  H   SGN d1709     -24.323  -3.477 -22.962  0.00  0.00     0.080 H 
ATOM     54  H   SGN d1709     -24.151  -1.828 -22.399  0.00  0.00     0.080 H 
ATOM     55  H   SGN d1709     -21.964  -0.516 -26.456  0.00  0.00     0.210 HD
ATOM     56  O1S IDS d1712     -11.746  -2.617 -31.190  0.00  0.00    -0.572 OA
ATOM     57  O2S IDS d1712     -13.409  -1.278 -29.971  0.00  0.00    -0.572 OA
ATOM     58  O61 IDS d1712     -11.896  -5.658 -23.784  0.00  0.00    -0.646 OA
ATOM     59  O5  IDS d1712     -13.206  -5.544 -27.106  0.00  0.00    -0.340 OA
ATOM     60  C4  IDS d1712     -12.065  -3.735 -25.985  0.00  0.00     0.103 C 
ATOM     61  O2  IDS d1712     -12.580  -3.370 -29.116  0.00  0.00    -0.244 OA
ATOM     62  O4  IDS d1712     -10.891  -3.953 -26.777  0.00  0.00    -0.348 OA
ATOM     63  C1  IDS d1712     -14.081  -4.734 -27.878  0.00  0.00     0.161 C 
ATOM     64  S   IDS d1712     -12.200  -2.103 -29.890  0.00  0.00     0.252 S 
ATOM     65  C5  IDS d1712     -12.882  -5.022 -25.813  0.00  0.00     0.152 C 
ATOM     66  O62 IDS d1712     -11.917  -7.153 -25.393  0.00  0.00    -0.646 OA
ATOM     67  O3S IDS d1712     -11.114  -1.435 -29.112  0.00  0.00    -0.572 OA
ATOM     68  C6  IDS d1712     -12.184  -6.023 -24.946  0.00  0.00     0.206 C 
ATOM     69  C3  IDS d1712     -12.938  -2.735 -26.730  0.00  0.00     0.094 C 
ATOM     70  O3  IDS d1712     -14.028  -2.333 -25.888  0.00  0.00    -0.390 OA
ATOM     71  C2  IDS d1712     -13.520  -3.344 -28.032  0.00  0.00     0.134 C 
ATOM     72  H   IDS d1712     -11.767  -3.388 -25.018  0.00  0.00     0.092 H 
ATOM     73  H   IDS d1712     -14.181  -5.198 -28.838  0.00  0.00     0.133 H 
ATOM     74  H   IDS d1712     -13.792  -4.793 -25.298  0.00  0.00     0.104 H 
ATOM     75  H   IDS d1712     -12.326  -1.897 -26.988  0.00  0.00     0.091 H 
ATOM     76  H   IDS d1712     -14.569  -3.108 -25.667  0.00  0.00     0.210 HD
ATOM     77  H   IDS d1712     -14.324  -2.675 -28.260  0.00  0.00     0.097 H 
ATOM     78  O62 IDS d1710     -19.309  -2.142 -27.156  0.00  0.00    -0.646 OA
ATOM     79  O2  IDS d1710     -20.951  -5.717 -23.996  0.00  0.00    -0.244 OA
ATOM     80  O1S IDS d1710     -19.768  -6.187 -21.873  0.00  0.00    -0.572 OA
ATOM     81  C3  IDS d1710     -21.913  -5.906 -26.204  0.00  0.00     0.094 C 
ATOM     82  O3  IDS d1710     -23.160  -5.868 -26.899  0.00  0.00    -0.390 OA
ATOM     83  O4  IDS d1710     -19.529  -5.528 -26.555  0.00  0.00    -0.348 OA
ATOM     84  O5  IDS d1710     -21.015  -3.265 -25.665  0.00  0.00    -0.340 OA
ATOM     85  C6  IDS d1710     -20.060  -2.902 -27.819  0.00  0.00     0.206 C 
ATOM     86  O2S IDS d1710     -21.676  -4.662 -21.914  0.00  0.00    -0.572 OA
ATOM     87  C5  IDS d1710     -21.056  -3.715 -27.034  0.00  0.00     0.152 C 
ATOM     88  S   IDS d1710     -21.090  -5.910 -22.443  0.00  0.00     0.252 S 
ATOM     89  C2  IDS d1710     -22.051  -5.280 -24.808  0.00  0.00     0.134 C 
ATOM     90  O3S IDS d1710     -22.021  -7.037 -22.337  0.00  0.00    -0.572 OA
ATOM     91  C4  IDS d1710     -20.837  -5.235 -27.062  0.00  0.00     0.103 C 
ATOM     92  C1  IDS d1710     -22.066  -3.743 -24.826  0.00  0.00     0.161 C 
ATOM     93  O61 IDS d1710     -20.002  -3.025 -29.062  0.00  0.00    -0.646 OA
ATOM     94  H   IDS d1710     -21.611  -6.920 -26.043  0.00  0.00     0.091 H 
ATOM     95  H   IDS d1710     -23.424  -4.944 -27.040  0.00  0.00     0.210 HD
ATOM     96  H   IDS d1710     -22.005  -3.557 -27.501  0.00  0.00     0.104 H 
ATOM     97  H   IDS d1710     -22.993  -5.601 -24.413  0.00  0.00     0.097 H 
ATOM     98  H   IDS d1710     -20.908  -5.607 -28.063  0.00  0.00     0.092 H 
ATOM     99  H   IDS d1710     -21.914  -3.350 -23.843  0.00  0.00     0.133 H 
ATOM    100  C4  SGN d1713      -8.152  -5.644 -27.964  0.00  0.00     0.095 C 
ATOM    101  N   SGN d1713      -8.848  -2.043 -27.220  0.00  0.00    -0.210 NA
ATOM    102  O4S SGN d1713      -6.855  -9.842 -26.861  0.00  0.00    -0.572 OA
ATOM    103  O4  SGN d1713      -8.280  -6.438 -29.155  0.00  0.00    -0.348 OA
ATOM    104  C2  SGN d1713      -8.547  -3.426 -26.937  0.00  0.00     0.081 C 
ATOM    105  O6  SGN d1713      -7.632  -7.608 -25.936  0.00  0.00    -0.254 OA
ATOM    106  O2S SGN d1713      -7.248  -1.178 -25.653  0.00  0.00    -0.296 OA
ATOM    107  O3S SGN d1713      -8.659   0.513 -26.997  0.00  0.00    -0.296 OA
ATOM    108  C6  SGN d1713      -8.930  -7.614 -26.543  0.00  0.00     0.067 C 
ATOM    109  O5S SGN d1713      -8.051  -9.797 -24.718  0.00  0.00    -0.572 OA
ATOM    110  C5  SGN d1713      -9.245  -6.233 -27.036  0.00  0.00     0.091 C 
ATOM    111  O3  SGN d1713      -7.219  -3.666 -28.905  0.00  0.00    -0.391 OA
ATOM    112  O1S SGN d1713      -9.587  -0.883 -25.190  0.00  0.00    -0.296 OA
ATOM    113  S1  SGN d1713      -8.546  -0.865 -26.179  0.00  0.00     0.156 S 
ATOM    114  O5  SGN d1713      -9.337  -5.431 -25.837  0.00  0.00    -0.349 OA
ATOM    115  S2  SGN d1713      -7.006  -9.017 -25.645  0.00  0.00     0.251 S 
ATOM    116  O6S SGN d1713      -5.775  -8.713 -24.952  0.00  0.00    -0.572 OA
ATOM    117  C3  SGN d1713      -8.390  -4.165 -28.253  0.00  0.00     0.083 C 
ATOM    118  C1  SGN d1713      -9.641  -4.064 -26.072  0.00  0.00     0.150 C 
ATOM    119  H   SGN d1713      -7.174  -5.682 -27.532  0.00  0.00     0.091 H 
ATOM    120  H   SGN d1713      -9.849  -2.004 -27.410  0.00  0.00     0.140 HD
ATOM    121  H   SGN d1713      -7.635  -3.487 -26.381  0.00  0.00     0.076 H 
ATOM    122  H   SGN d1713      -6.594  -1.149 -26.368  0.00  0.00     0.231 HD
ATOM    123  H   SGN d1713      -7.964   0.546 -27.672  0.00  0.00     0.231 HD
ATOM    124  H   SGN d1713      -9.662  -7.913 -25.822  0.00  0.00     0.080 H 
ATOM    125  H   SGN d1713      -8.943  -8.301 -27.363  0.00  0.00     0.080 H 
ATOM    126  H   SGN d1713     -10.140  -6.248 -27.624  0.00  0.00     0.090 H 
ATOM    127  H   SGN d1713      -7.099  -4.126 -29.751  0.00  0.00     0.210 HD
ATOM    128  H   SGN d1713      -9.537  -1.708 -24.683  0.00  0.00     0.231 HD
ATOM    129  H   SGN d1713      -9.264  -4.030 -28.855  0.00  0.00     0.089 H 
ATOM    130  H   SGN d1713      -9.702  -3.565 -25.128  0.00  0.00     0.131 H 
ATOM    131  C2  SGN d1711     -17.874  -7.207 -26.309  0.00  0.00     0.081 C 
ATOM    132  O4S SGN d1711     -14.697  -4.903 -31.649  0.00  0.00    -0.572 OA
ATOM    133  S1  SGN d1711     -19.046  -9.158 -24.939  0.00  0.00     0.156 S 
ATOM    134  C3  SGN d1711     -16.704  -6.231 -26.089  0.00  0.00     0.083 C 
ATOM    135  O2S SGN d1711     -17.874  -9.973 -24.846  0.00  0.00    -0.296 OA
ATOM    136  O3  SGN d1711     -15.657  -6.844 -25.329  0.00  0.00    -0.391 OA
ATOM    137  N   SGN d1711     -18.502  -7.650 -25.066  0.00  0.00    -0.210 NA
ATOM    138  C4  SGN d1711     -16.178  -5.799 -27.468  0.00  0.00     0.095 C 
ATOM    139  O4  SGN d1711     -15.358  -4.630 -27.252  0.00  0.00    -0.348 OA
ATOM    140  O6S SGN d1711     -15.676  -6.926 -32.381  0.00  0.00    -0.572 OA
ATOM    141  S2  SGN d1711     -15.941  -5.656 -31.844  0.00  0.00     0.251 S 
ATOM    142  O5  SGN d1711     -18.324  -6.204 -28.474  0.00  0.00    -0.349 OA
ATOM    143  C5  SGN d1711     -17.329  -5.176 -28.308  0.00  0.00     0.091 C 
ATOM    144  O1S SGN d1711     -19.884  -9.429 -26.091  0.00  0.00    -0.296 OA
ATOM    145  O6  SGN d1711     -16.509  -5.852 -30.422  0.00  0.00    -0.254 OA
ATOM    146  O5S SGN d1711     -17.011  -4.766 -32.620  0.00  0.00    -0.572 OA
ATOM    147  O3S SGN d1711     -19.921  -9.136 -23.609  0.00  0.00    -0.296 OA
ATOM    148  C1  SGN d1711     -18.938  -6.623 -27.260  0.00  0.00     0.150 C 
ATOM    149  C6  SGN d1711     -16.970  -4.706 -29.719  0.00  0.00     0.067 C 
ATOM    150  H   SGN d1711     -17.437  -8.070 -26.767  0.00  0.00     0.076 H 
ATOM    151  H   SGN d1711     -17.045  -5.381 -25.536  0.00  0.00     0.089 H 
ATOM    152  H   SGN d1711     -17.390  -9.941 -25.685  0.00  0.00     0.231 HD
ATOM    153  H   SGN d1711     -15.325  -7.621 -25.804  0.00  0.00     0.210 HD
ATOM    154  H   SGN d1711     -19.297  -7.034 -24.901  0.00  0.00     0.140 HD
ATOM    155  H   SGN d1711     -15.709  -6.643 -27.929  0.00  0.00     0.091 H 
ATOM    156  H   SGN d1711     -17.637  -4.304 -27.771  0.00  0.00     0.090 H 
ATOM    157  H   SGN d1711     -19.338  -9.439 -26.893  0.00  0.00     0.231 HD
ATOM    158  H   SGN d1711     -20.696  -8.568 -23.741  0.00  0.00     0.231 HD
ATOM    159  H   SGN d1711     -19.684  -7.341 -27.530  0.00  0.00     0.131 H 
ATOM    160  H   SGN d1711     -16.201  -3.964 -29.676  0.00  0.00     0.080 H 
ATOM    161  H   SGN d1711     -17.815  -4.267 -30.207  0.00  0.00     0.080 H 
ENDROOT
TORSDOF 50
ENDMDL
MODEL 47
REMARK VINA RESULT:      -3.7      4.437      9.391
REMARK  0 active torsions:
REMARK  status: ('A' for Active; 'I' for Inactive)
REMARK       I    between atoms: C2_1  and  O2_12 
REMARK       I    between atoms: C1_4  and  O4_37 
REMARK       I    between atoms: O2S_5  and  S1_43 
REMARK       I    between atoms: O2_11  and  C2_82 
REMARK       I    between atoms: O2_11  and  S_80 
REMARK       I    between atoms: O2_12  and  S_23 
REMARK       I    between atoms: C4_13  and  O4_37 
REMARK       I    between atoms: C2_14  and  N_39 
REMARK       I    between atoms: O1_18  and  C1_32 
REMARK       I    between atoms: C4_19  and  O4_53 
REMARK       I    between atoms: O6_20  and  C6_76 
REMARK       I    between atoms: O6_20  and  S2_95 
REMARK       I    between atoms: S1_21  and  N_39 
REMARK       I    between atoms: S1_21  and  O1S_79 
REMARK       I    between atoms: S1_21  and  O2S_30 
REMARK       I    between atoms: S1_21  and  O3S_94 
REMARK       I    between atoms: C3_24  and  O3_26 
REMARK       I    between atoms: C3_25  and  O3_36 
REMARK       I    between atoms: C6_27  and  C5_83 
REMARK       I    between atoms: C4_28  and  O4_51 
REMARK       I    between atoms: N_29  and  C2_40 
REMARK       I    between atoms: N_29  and  S1_71 
REMARK       I    between atoms: C5_31  and  C6_76 
REMARK       I    between atoms: O1S_35  and  S1_43 
REMARK       I    between atoms: O4_38  and  C4_93 
REMARK       I    between atoms: O4_38  and  C1_96 
REMARK       I    between atoms: O6_41  and  C6_54 
REMARK       I    between atoms: O6_41  and  S2_84 
REMARK       I    between atoms: C4_42  and  O4_49 
REMARK       I    between atoms: S1_43  and  N_47 
REMARK       I    between atoms: S1_43  and  O3S_69 
REMARK       I    between atoms: O2S_44  and  S1_71 
REMARK       I    between atoms: N_47  and  C2_56 
REMARK       I    between atoms: O2_48  and  C2_99 
REMARK       I    between atoms: O2_48  and  S_63 
REMARK       I    between atoms: O4_49  and  C1_57 
REMARK       I    between atoms: O4_51  and  C1_102 
REMARK       I    between atoms: O3S_52  and  S1_71 
REMARK       I    between atoms: O4_53  and  C1_105 
REMARK       I    between atoms: C6_54  and  C5_59 
REMARK       I    between atoms: O3_60  and  C3_100 
REMARK       I    between atoms: O1S_61  and  S1_71 
REMARK       I    between atoms: S2_62  and  O6_81 
REMARK       I    between atoms: C5_65  and  C6_89 
REMARK       I    between atoms: C6_67  and  C5_74 
REMARK       I    between atoms: C3_68  and  O3_104 
REMARK       I    between atoms: C3_70  and  O3_85 
REMARK       I    between atoms: C5_77  and  C6_101 
REMARK       I    between atoms: O6_81  and  C6_101 
REMARK       I    between atoms: C3_92  and  O3_98 
ROOT
ATOM      1  C2  IDS d1714     -20.640  -7.291 -27.706  0.00  0.00     0.132 C 
ATOM      2  O3S IDS d1714     -23.517  -5.177 -26.326  0.00  0.00    -0.572 OA
ATOM      3  C1  IDS d1714     -20.768  -8.770 -27.957  0.00  0.00     0.161 C 
ATOM      4  O2S IDS d1714     -21.155  -4.630 -26.522  0.00  0.00    -0.572 OA
ATOM      5  O2  IDS d1714     -21.924  -6.808 -27.277  0.00  0.00    -0.244 OA
ATOM      6  S   IDS d1714     -22.138  -5.704 -26.227  0.00  0.00     0.252 S 
ATOM      7  C6  IDS d1714     -21.991  -8.887 -31.463  0.00  0.00     0.203 C 
ATOM      8  O5  IDS d1714     -21.631  -8.961 -29.093  0.00  0.00    -0.343 OA
ATOM      9  C4  IDS d1714     -20.814  -6.945 -30.261  0.00  0.00    -0.005 C 
ATOM     10  O61 IDS d1714     -22.939  -9.668 -31.208  0.00  0.00    -0.646 OA
ATOM     11  C3  IDS d1714     -20.205  -6.489 -28.928  0.00  0.00     0.069 C 
ATOM     12  C5  IDS d1714     -21.105  -8.440 -30.311  0.00  0.00     0.127 C 
ATOM     13  O3  IDS d1714     -18.772  -6.479 -29.007  0.00  0.00    -0.393 OA
ATOM     14  O1S IDS d1714     -21.831  -6.346 -24.944  0.00  0.00    -0.572 OA
ATOM     15  O62 IDS d1714     -21.760  -8.477 -32.625  0.00  0.00    -0.646 OA
ATOM     16  H   IDS d1714     -19.876  -7.158 -26.969  0.00  0.00     0.097 H 
ATOM     17  H   IDS d1714     -21.207  -9.333 -27.160  0.00  0.00     0.133 H 
ATOM     18  H   IDS d1714     -20.128  -6.707 -31.047  0.00  0.00     0.041 H 
ATOM     19  H   IDS d1714     -21.749  -6.437 -30.374  0.00  0.00     0.041 H 
ATOM     20  H   IDS d1714     -20.589  -5.502 -28.780  0.00  0.00     0.087 H 
ATOM     21  H   IDS d1714     -20.132  -8.851 -30.478  0.00  0.00     0.100 H 
ATOM     22  H   IDS d1714     -18.448  -7.384 -29.141  0.00  0.00     0.210 HD
ATOM     23  O5  SGN d1709      -1.100 -13.253 -26.980  0.00  0.00    -0.350 OA
ATOM     24  O2S SGN d1709       0.248 -12.522 -31.428  0.00  0.00    -0.296 OA
ATOM     25  O4S SGN d1709      -1.739 -14.380 -21.949  0.00  0.00    -0.572 OA
ATOM     26  O1  SGN d1709       0.017 -11.397 -27.904  0.00  0.00    -0.369 OA
ATOM     27  O6  SGN d1709      -0.965 -13.784 -24.189  0.00  0.00    -0.254 OA
ATOM     28  C4  SGN d1709      -3.210 -12.186 -26.745  0.00  0.00     0.095 C 
ATOM     29  C5  SGN d1709      -1.898 -12.537 -26.037  0.00  0.00     0.091 C 
ATOM     30  C1  SGN d1709      -0.756 -12.561 -28.179  0.00  0.00     0.147 C 
ATOM     31  O5S SGN d1709       0.624 -15.005 -22.649  0.00  0.00    -0.572 OA
ATOM     32  O1S SGN d1709      -1.378 -11.210 -32.582  0.00  0.00    -0.296 OA
ATOM     33  S1  SGN d1709      -1.137 -12.135 -31.496  0.00  0.00     0.156 S 
ATOM     34  N   SGN d1709      -1.659 -11.447 -30.156  0.00  0.00    -0.210 NA
ATOM     35  O4  SGN d1709      -3.883 -11.326 -25.810  0.00  0.00    -0.348 OA
ATOM     36  C2  SGN d1709      -2.022 -12.196 -28.960  0.00  0.00     0.081 C 
ATOM     37  C3  SGN d1709      -2.962 -11.418 -28.032  0.00  0.00     0.083 C 
ATOM     38  O3S SGN d1709      -2.002 -13.426 -31.676  0.00  0.00    -0.296 OA
ATOM     39  C6  SGN d1709      -2.171 -13.495 -24.872  0.00  0.00     0.067 C 
ATOM     40  S2  SGN d1709      -0.952 -14.856 -23.084  0.00  0.00     0.251 S 
ATOM     41  O6S SGN d1709      -1.395 -16.124 -23.681  0.00  0.00    -0.572 OA
ATOM     42  O3  SGN d1709      -4.191 -11.238 -28.737  0.00  0.00    -0.391 OA
ATOM     43  H   SGN d1709       0.799 -11.732 -31.316  0.00  0.00     0.231 HD
ATOM     44  H   SGN d1709       0.814 -11.647 -27.410  0.00  0.00     0.212 HD
ATOM     45  H   SGN d1709      -3.762 -13.062 -27.012  0.00  0.00     0.091 H 
ATOM     46  H   SGN d1709      -1.427 -11.646 -25.678  0.00  0.00     0.090 H 
ATOM     47  H   SGN d1709      -0.156 -13.213 -28.780  0.00  0.00     0.131 H 
ATOM     48  H   SGN d1709      -0.835 -10.417 -32.457  0.00  0.00     0.231 HD
ATOM     49  H   SGN d1709      -2.491 -10.919 -30.419  0.00  0.00     0.140 HD
ATOM     50  H   SGN d1709      -2.540 -13.073 -29.289  0.00  0.00     0.076 H 
ATOM     51  H   SGN d1709      -2.528 -10.478 -27.765  0.00  0.00     0.089 H 
ATOM     52  H   SGN d1709      -1.728 -13.891 -32.482  0.00  0.00     0.231 HD
ATOM     53  H   SGN d1709      -2.862 -13.040 -24.193  0.00  0.00     0.080 H 
ATOM     54  H   SGN d1709      -2.584 -14.404 -25.255  0.00  0.00     0.080 H 
ATOM     55  H   SGN d1709      -4.562 -12.105 -28.966  0.00  0.00     0.210 HD
ATOM     56  O1S IDS d1712     -15.197  -8.894 -31.761  0.00  0.00    -0.572 OA
ATOM     57  O2S IDS d1712     -13.192 -10.312 -31.870  0.00  0.00    -0.572 OA
ATOM     58  O61 IDS d1712     -15.461 -13.440 -25.175  0.00  0.00    -0.646 OA
ATOM     59  O5  IDS d1712     -14.328 -10.499 -26.858  0.00  0.00    -0.340 OA
ATOM     60  C4  IDS d1712     -14.918 -12.585 -27.922  0.00  0.00     0.103 C 
ATOM     61  O2  IDS d1712     -14.481 -10.077 -29.851  0.00  0.00    -0.244 OA
ATOM     62  O4  IDS d1712     -16.146 -12.022 -28.399  0.00  0.00    -0.348 OA
ATOM     63  C1  IDS d1712     -13.316 -10.124 -27.781  0.00  0.00     0.161 C 
ATOM     64  S   IDS d1712     -14.565 -10.164 -31.379  0.00  0.00     0.252 S 
ATOM     65  C5  IDS d1712     -14.446 -11.908 -26.629  0.00  0.00     0.152 C 
ATOM     66  O62 IDS d1712     -15.898 -11.313 -24.844  0.00  0.00    -0.646 OA
ATOM     67  O3S IDS d1712     -15.407 -11.357 -31.693  0.00  0.00    -0.572 OA
ATOM     68  C6  IDS d1712     -15.332 -12.230 -25.466  0.00  0.00     0.206 C 
ATOM     69  C3  IDS d1712     -13.858 -12.332 -28.984  0.00  0.00     0.094 C 
ATOM     70  O3  IDS d1712     -12.662 -13.048 -28.645  0.00  0.00    -0.390 OA
ATOM     71  C2  IDS d1712     -13.513 -10.825 -29.100  0.00  0.00     0.134 C 
ATOM     72  H   IDS d1712     -15.072 -13.626 -27.726  0.00  0.00     0.092 H 
ATOM     73  H   IDS d1712     -13.383  -9.064 -27.914  0.00  0.00     0.133 H 
ATOM     74  H   IDS d1712     -13.484 -12.293 -26.362  0.00  0.00     0.104 H 
ATOM     75  H   IDS d1712     -14.250 -12.666 -29.922  0.00  0.00     0.091 H 
ATOM     76  H   IDS d1712     -12.325 -12.729 -27.793  0.00  0.00     0.210 HD
ATOM     77  H   IDS d1712     -12.578 -10.841 -29.621  0.00  0.00     0.097 H 
ATOM     78  O62 IDS d1710      -7.573 -11.146 -28.521  0.00  0.00    -0.646 OA
ATOM     79  O2  IDS d1710      -6.737 -11.610 -23.566  0.00  0.00    -0.244 OA
ATOM     80  O1S IDS d1710      -7.896 -13.343 -22.233  0.00  0.00    -0.572 OA
ATOM     81  C3  IDS d1710      -5.963  -9.500 -24.453  0.00  0.00     0.094 C 
ATOM     82  O3  IDS d1710      -4.782  -8.717 -24.637  0.00  0.00    -0.390 OA
ATOM     83  O4  IDS d1710      -8.188  -9.833 -25.396  0.00  0.00    -0.348 OA
ATOM     84  O5  IDS d1710      -6.136 -11.493 -26.469  0.00  0.00    -0.340 OA
ATOM     85  C6  IDS d1710      -7.072 -10.062 -28.130  0.00  0.00     0.206 C 
ATOM     86  O2S IDS d1710      -5.668 -13.766 -23.142  0.00  0.00    -0.572 OA
ATOM     87  C5  IDS d1710      -6.277 -10.111 -26.852  0.00  0.00     0.152 C 
ATOM     88  S   IDS d1710      -6.576 -12.777 -22.527  0.00  0.00     0.252 S 
ATOM     89  C2  IDS d1710      -5.604 -10.965 -24.166  0.00  0.00     0.134 C 
ATOM     90  O3S IDS d1710      -5.957 -12.107 -21.380  0.00  0.00    -0.572 OA
ATOM     91  C4  IDS d1710      -6.875  -9.330 -25.672  0.00  0.00     0.103 C 
ATOM     92  C1  IDS d1710      -5.201 -11.753 -25.424  0.00  0.00     0.161 C 
ATOM     93  O61 IDS d1710      -7.220  -8.972 -28.727  0.00  0.00    -0.646 OA
ATOM     94  H   IDS d1710      -6.504  -9.156 -23.596  0.00  0.00     0.091 H 
ATOM     95  H   IDS d1710      -4.301  -9.037 -25.416  0.00  0.00     0.210 HD
ATOM     96  H   IDS d1710      -5.343  -9.634 -27.062  0.00  0.00     0.104 H 
ATOM     97  H   IDS d1710      -4.755 -10.957 -23.513  0.00  0.00     0.097 H 
ATOM     98  H   IDS d1710      -6.949  -8.289 -25.908  0.00  0.00     0.092 H 
ATOM     99  H   IDS d1710      -5.200 -12.805 -25.228  0.00  0.00     0.133 H 
ATOM    100  C4  SGN d1713     -19.279 -10.638 -28.186  0.00  0.00     0.095 C 
ATOM    101  N   SGN d1713     -17.659 -13.020 -30.575  0.00  0.00    -0.210 NA
ATOM    102  O4S SGN d1713     -21.541  -9.589 -24.404  0.00  0.00    -0.572 OA
ATOM    103  O4  SGN d1713     -19.414  -9.207 -28.174  0.00  0.00    -0.348 OA
ATOM    104  C2  SGN d1713     -18.285 -12.584 -29.350  0.00  0.00     0.081 C 
ATOM    105  O6  SGN d1713     -20.179 -11.391 -25.566  0.00  0.00    -0.254 OA
ATOM    106  O2S SGN d1713     -18.909 -15.065 -30.710  0.00  0.00    -0.296 OA
ATOM    107  O3S SGN d1713     -17.183 -14.579 -32.565  0.00  0.00    -0.296 OA
ATOM    108  C6  SGN d1713     -18.956 -10.649 -25.656  0.00  0.00     0.067 C 
ATOM    109  O5S SGN d1713     -20.269 -11.182 -23.036  0.00  0.00    -0.572 OA
ATOM    110  C5  SGN d1713     -18.326 -10.906 -26.992  0.00  0.00     0.091 C 
ATOM    111  O3  SGN d1713     -19.725 -11.058 -30.487  0.00  0.00    -0.391 OA
ATOM    112  O1S SGN d1713     -16.552 -15.185 -30.262  0.00  0.00    -0.296 OA
ATOM    113  S1  SGN d1713     -17.601 -14.558 -31.015  0.00  0.00     0.156 S 
ATOM    114  O5  SGN d1713     -17.976 -12.308 -26.967  0.00  0.00    -0.349 OA
ATOM    115  S2  SGN d1713     -21.127 -11.007 -24.376  0.00  0.00     0.251 S 
ATOM    116  O6S SGN d1713     -22.206 -11.963 -24.469  0.00  0.00    -0.572 OA
ATOM    117  C3  SGN d1713     -18.688 -11.130 -29.504  0.00  0.00     0.083 C 
ATOM    118  C1  SGN d1713     -17.348 -12.774 -28.152  0.00  0.00     0.150 C 
ATOM    119  H   SGN d1713     -20.212 -11.153 -28.098  0.00  0.00     0.091 H 
ATOM    120  H   SGN d1713     -16.690 -12.702 -30.526  0.00  0.00     0.140 HD
ATOM    121  H   SGN d1713     -19.155 -13.179 -29.162  0.00  0.00     0.076 H 
ATOM    122  H   SGN d1713     -19.568 -14.601 -31.250  0.00  0.00     0.231 HD
ATOM    123  H   SGN d1713     -17.879 -14.158 -33.093  0.00  0.00     0.231 HD
ATOM    124  H   SGN d1713     -18.289 -10.962 -24.880  0.00  0.00     0.080 H 
ATOM    125  H   SGN d1713     -19.158  -9.604 -25.548  0.00  0.00     0.080 H 
ATOM    126  H   SGN d1713     -17.494 -10.248 -27.139  0.00  0.00     0.090 H 
ATOM    127  H   SGN d1713     -19.999 -10.134 -30.602  0.00  0.00     0.210 HD
ATOM    128  H   SGN d1713     -16.785 -15.184 -29.320  0.00  0.00     0.231 HD
ATOM    129  H   SGN d1713     -17.839 -10.542 -29.784  0.00  0.00     0.089 H 
ATOM    130  H   SGN d1713     -17.116 -13.811 -28.025  0.00  0.00     0.131 H 
ATOM    131  C2  SGN d1711     -10.201  -9.454 -24.201  0.00  0.00     0.081 C 
ATOM    132  O4S SGN d1711     -12.947  -6.785 -29.609  0.00  0.00    -0.572 OA
ATOM    133  S1  SGN d1711      -9.495  -9.363 -21.642  0.00  0.00     0.156 S 
ATOM    134  C3  SGN d1711     -11.073 -10.359 -25.090  0.00  0.00     0.083 C 
ATOM    135  O2S SGN d1711     -10.829  -9.223 -21.144  0.00  0.00    -0.296 OA
ATOM    136  O3  SGN d1711     -12.203 -10.858 -24.366  0.00  0.00    -0.391 OA
ATOM    137  N   SGN d1711      -9.645 -10.145 -23.039  0.00  0.00    -0.210 NA
ATOM    138  C4  SGN d1711     -11.539  -9.531 -26.300  0.00  0.00     0.095 C 
ATOM    139  O4  SGN d1711     -12.025 -10.471 -27.283  0.00  0.00    -0.348 OA
ATOM    140  O6S SGN d1711     -12.548  -4.940 -28.186  0.00  0.00    -0.572 OA
ATOM    141  S2  SGN d1711     -11.945  -6.005 -28.874  0.00  0.00     0.251 S 
ATOM    142  O5  SGN d1711      -9.617  -8.097 -26.128  0.00  0.00    -0.349 OA
ATOM    143  C5  SGN d1711     -10.310  -8.952 -27.056  0.00  0.00     0.091 C 
ATOM    144  O1S SGN d1711      -8.810  -8.112 -21.902  0.00  0.00    -0.296 OA
ATOM    145  O6  SGN d1711     -11.376  -6.984 -27.825  0.00  0.00    -0.254 OA
ATOM    146  O5S SGN d1711     -10.724  -5.633 -29.828  0.00  0.00    -0.572 OA
ATOM    147  O3S SGN d1711      -8.579 -10.325 -20.763  0.00  0.00    -0.296 OA
ATOM    148  C1  SGN d1711      -9.071  -8.778 -25.003  0.00  0.00     0.150 C 
ATOM    149  C6  SGN d1711     -10.606  -8.088 -28.283  0.00  0.00     0.067 C 
ATOM    150  H   SGN d1711     -10.863  -8.699 -23.833  0.00  0.00     0.076 H 
ATOM    151  H   SGN d1711     -10.501 -11.203 -25.413  0.00  0.00     0.089 H 
ATOM    152  H   SGN d1711     -11.329  -8.627 -21.723  0.00  0.00     0.231 HD
ATOM    153  H   SGN d1711     -12.744 -10.114 -24.058  0.00  0.00     0.210 HD
ATOM    154  H   SGN d1711      -8.712 -10.463 -23.301  0.00  0.00     0.140 HD
ATOM    155  H   SGN d1711     -12.228  -8.789 -25.954  0.00  0.00     0.091 H 
ATOM    156  H   SGN d1711      -9.766  -9.801 -27.413  0.00  0.00     0.090 H 
ATOM    157  H   SGN d1711      -9.379  -7.537 -22.437  0.00  0.00     0.231 HD
ATOM    158  H   SGN d1711      -7.693 -10.374 -21.155  0.00  0.00     0.231 HD
ATOM    159  H   SGN d1711      -8.545  -8.043 -24.430  0.00  0.00     0.131 H 
ATOM    160  H   SGN d1711     -11.160  -8.650 -29.006  0.00  0.00     0.080 H 
ATOM    161  H   SGN d1711      -9.702  -7.760 -28.753  0.00  0.00     0.080 H 
ENDROOT
TORSDOF 50
ENDMDL
