REMARK  0 active torsions:
REMARK  status: ('A' for Active; 'I' for Inactive)
REMARK       I    between atoms: O3I_1  and  S3H_51 
REMARK       I    between atoms: O1I_2  and  S1G_48 
REMARK       I    between atoms: O54_3  and  C53_28 
REMARK       I    between atoms: O54_3  and  S55_64 
REMARK       I    between atoms: C41_5  and  C43_30 
REMARK       I    between atoms: C1B_6  and  O1C_53 
REMARK       I    between atoms: O4G_7  and  C4F_62 
REMARK       I    between atoms: O4G_7  and  C50_15 
REMARK       I    between atoms: N5G_8  and  C5F_50 
REMARK       I    between atoms: N5G_8  and  S5H_47 
REMARK       I    between atoms: N1F_9  and  C1E_41 
REMARK       I    between atoms: N1F_9  and  S1G_48 
REMARK       I    between atoms: O3K_10  and  S3H_51 
REMARK       I    between atoms: C5N_11  and  O5M_87 
REMARK       I    between atoms: C21_12  and  C23_57 
REMARK       I    between atoms: C26_13  and  O27_73 
REMARK       I    between atoms: C49_16  and  O4A_21 
REMARK       I    between atoms: O2D_17  and  C2C_35 
REMARK       I    between atoms: O2D_17  and  C30_56 
REMARK       I    between atoms: O1L_18  and  C1K_89 
REMARK       I    between atoms: O1L_18  and  C20_27 
REMARK       I    between atoms: C46_20  and  O47_33 
REMARK       I    between atoms: O4A_21  and  S4B_39 
REMARK       I    between atoms: N3G_22  and  C3F_46 
REMARK       I    between atoms: N3G_22  and  S3H_51 
REMARK       I    between atoms: C40_25  and  O3M_29 
REMARK       I    between atoms: O5I_26  and  S5H_47 
REMARK       I    between atoms: C53_28  and  C51_66 
REMARK       I    between atoms: O3M_29  and  C3L_61 
REMARK       I    between atoms: S17_31  and  O16_86 
REMARK       I    between atoms: O5K_34  and  S5H_47 
REMARK       I    between atoms: O1J_37  and  S1G_48 
REMARK       I    between atoms: C12_38  and  O10_70 
REMARK       I    between atoms: C13_42  and  C15_63 
REMARK       I    between atoms: C29_43  and  O2A_60 
REMARK       I    between atoms: C31_45  and  C33_81 
REMARK       I    between atoms: S5H_47  and  O5J_49 
REMARK       I    between atoms: S1G_48  and  O1H_78 
REMARK       I    between atoms: S3H_51  and  O3J_68 
REMARK       I    between atoms: O3A_54  and  C39_85 
REMARK       I    between atoms: O3A_54  and  S3B_83 
REMARK       I    between atoms: C5L_55  and  O5M_87 
REMARK       I    between atoms: C15_63  and  O16_86 
REMARK       I    between atoms: C59_71  and  O5A_75 
REMARK       I    between atoms: C33_81  and  O34_91 
REMARK       I    between atoms: S35_82  and  O34_91 
ROOT
ATOM      1  O3I NTO d 869     -19.416  17.282 -24.454  0.00  0.00    -0.296 OA
ATOM      2  O1I NTO d 869      -7.213  20.120 -15.006  0.00  0.00    -0.296 OA
ATOM      3  O54 NTO d 869     -23.268  14.084 -21.445  0.00  0.00    -0.254 OA
ATOM      4  O18 NTO d 869      -5.902  12.483 -18.231  0.00  0.00    -0.572 OA
ATOM      5  C41 NTO d 869     -19.583  17.767 -19.318  0.00  0.00     0.152 C 
ATOM      6  C1B NTO d 869      -6.130  19.124 -18.889  0.00  0.00     0.083 C 
ATOM      7  O4G NTO d 869     -22.702  16.885 -19.311  0.00  0.00    -0.348 OA
ATOM      8  N5G NTO d 869     -23.106  13.929 -15.488  0.00  0.00    -0.210 NA
ATOM      9  N1F NTO d 869      -7.876  20.084 -17.471  0.00  0.00    -0.210 NA
ATOM     10  O3K NTO d 869     -17.820  19.074 -24.961  0.00  0.00    -0.296 OA
ATOM     11  C5N NTO d 869     -26.593  13.129 -16.939  0.00  0.00     0.007 C 
ATOM     12  C21 NTO d 869     -10.671  18.133 -20.610  0.00  0.00     0.152 C 
ATOM     13  C26 NTO d 869     -10.840  18.591 -18.200  0.00  0.00     0.092 C 
ATOM     14  O4E NTO d 869     -24.829  19.942 -21.741  0.00  0.00    -0.572 OA
ATOM     15  C50 NTO d 869     -22.864  15.511 -18.929  0.00  0.00     0.095 C 
ATOM     16  C49 NTO d 869     -21.634  18.519 -20.717  0.00  0.00     0.134 C 
ATOM     17  O2D NTO d 869     -14.213  17.993 -19.768  0.00  0.00    -0.348 OA
ATOM     18  O1L NTO d 869      -8.682  18.127 -19.277  0.00  0.00    -0.348 OA
ATOM     19  O19 NTO d 869      -4.670  12.859 -20.318  0.00  0.00    -0.572 OA
ATOM     20  C46 NTO d 869     -20.332  18.828 -21.457  0.00  0.00     0.094 C 
ATOM     21  O4A NTO d 869     -22.756  18.785 -21.562  0.00  0.00    -0.244 OA
ATOM     22  N3G NTO d 869     -16.988  16.993 -23.701  0.00  0.00    -0.210 NA
ATOM     23  O36 NTO d 869     -12.450  22.058 -19.582  0.00  0.00    -0.572 OA
ATOM     24  O57 NTO d 869     -24.365  14.414 -23.544  0.00  0.00    -0.572 OA
ATOM     25  C40 NTO d 869     -19.154  18.611 -20.510  0.00  0.00     0.103 C 
ATOM     26  O5I NTO d 869     -20.908  12.828 -14.807  0.00  0.00    -0.296 OA
ATOM     27  C20 NTO d 869     -10.076  17.790 -19.253  0.00  0.00     0.103 C 
ATOM     28  C53 NTO d 869     -24.245  14.986 -20.923  0.00  0.00     0.067 C 
ATOM     29  O3M NTO d 869     -18.124  17.935 -21.241  0.00  0.00    -0.348 OA
ATOM     30  C43 NTO d 869     -18.331  17.270 -18.612  0.00  0.00     0.206 C 
ATOM     31  S17 NTO d 869      -6.017  12.918 -19.661  0.00  0.00     0.251 S 
ATOM     32  O45 NTO d 869     -17.466  16.677 -19.296  0.00  0.00    -0.646 OA
ATOM     33  O47 NTO d 869     -20.346  20.191 -21.892  0.00  0.00    -0.390 OA
ATOM     34  O5K NTO d 869     -22.961  12.153 -13.647  0.00  0.00    -0.296 OA
ATOM     35  C2C NTO d 869     -12.853  18.454 -19.705  0.00  0.00     0.160 C 
ATOM     36  O38 NTO d 869     -13.840  23.606 -20.865  0.00  0.00    -0.572 OA
ATOM     37  O1J NTO d 869      -8.002  22.194 -16.045  0.00  0.00    -0.296 OA
ATOM     38  C12 NTO d 869      -5.408  17.824 -19.254  0.00  0.00     0.089 C 
ATOM     39  S4B NTO d 869     -23.479  19.926 -21.091  0.00  0.00     0.252 S 
ATOM     40  O4D NTO d 869     -22.729  21.177 -21.441  0.00  0.00    -0.572 OA
ATOM     41  C1E NTO d 869      -7.072  18.879 -17.710  0.00  0.00     0.081 C 
ATOM     42  C13 NTO d 869      -6.407  16.680 -19.441  0.00  0.00     0.090 C 
ATOM     43  C29 NTO d 869     -12.325  18.232 -18.285  0.00  0.00     0.110 C 
ATOM     44  O42 NTO d 869     -20.371  16.647 -19.759  0.00  0.00    -0.340 OA
ATOM     45  C31 NTO d 869     -16.056  19.416 -20.362  0.00  0.00     0.091 C 
ATOM     46  C3F NTO d 869     -16.387  18.046 -22.862  0.00  0.00     0.083 C 
ATOM     47  S5H NTO d 869     -22.376  12.567 -14.965  0.00  0.00     0.156 S 
ATOM     48  S1G NTO d 869      -7.203  20.943 -16.261  0.00  0.00     0.156 S 
ATOM     49  O5J NTO d 869     -22.584  11.461 -15.956  0.00  0.00    -0.296 OA
ATOM     50  C5F NTO d 869     -23.056  13.995 -16.956  0.00  0.00     0.081 C 
ATOM     51  S3H NTO d 869     -17.998  17.590 -24.838  0.00  0.00     0.156 S 
ATOM     52  O25 NTO d 869      -8.793  17.988 -22.064  0.00  0.00    -0.646 OA
ATOM     53  O1C NTO d 869      -5.169  20.122 -18.537  0.00  0.00    -0.391 OA
ATOM     54  O3A NTO d 869     -14.421  16.699 -22.390  0.00  0.00    -0.247 OA
ATOM     55  C5L NTO d 869     -24.367  13.466 -17.541  0.00  0.00     0.149 C 
ATOM     56  C30 NTO d 869     -14.925  18.542 -20.888  0.00  0.00     0.096 C 
ATOM     57  C23 NTO d 869      -9.846  17.429 -21.677  0.00  0.00     0.206 C 
ATOM     58  O3E NTO d 869     -14.595  14.997 -20.702  0.00  0.00    -0.572 OA
ATOM     59  O14 NTO d 869      -7.249  16.543 -18.285  0.00  0.00    -0.349 OA
ATOM     60  O2A NTO d 869     -13.061  19.043 -17.368  0.00  0.00    -0.388 OA
ATOM     61  C3L NTO d 869     -17.487  18.837 -22.156  0.00  0.00     0.150 C 
ATOM     62  C4F NTO d 869     -21.649  17.054 -20.271  0.00  0.00     0.161 C 
ATOM     63  C15 NTO d 869      -5.628  15.372 -19.606  0.00  0.00     0.067 C 
ATOM     64  S55 NTO d 869     -23.150  13.867 -22.856  0.00  0.00     0.251 S 
ATOM     65  O58 NTO d 869     -23.044  12.395 -23.117  0.00  0.00    -0.572 OA
ATOM     66  C51 NTO d 869     -24.212  14.980 -19.393  0.00  0.00     0.091 C 
ATOM     67  O56 NTO d 869     -21.929  14.561 -23.382  0.00  0.00    -0.572 OA
ATOM     68  O3J NTO d 869     -17.691  16.959 -26.164  0.00  0.00    -0.296 OA
ATOM     69  O44 NTO d 869     -18.220  17.485 -17.377  0.00  0.00    -0.646 OA
ATOM     70  O10 NTO d 869      -4.700  18.022 -20.480  0.00  0.00    -0.390 OA
ATOM     71  C59 NTO d 869     -22.807  15.436 -17.404  0.00  0.00     0.083 C 
ATOM     72  O52 NTO d 869     -24.408  13.621 -18.969  0.00  0.00    -0.349 OA
ATOM     73  O27 NTO d 869     -10.353  18.269 -16.894  0.00  0.00    -0.390 OA
ATOM     74  O1A NTO d 869      -6.971  12.013 -20.379  0.00  0.00    -0.572 OA
ATOM     75  O5A NTO d 869     -21.505  15.852 -16.980  0.00  0.00    -0.391 OA
ATOM     76  O37 NTO d 869     -14.508  22.942 -18.599  0.00  0.00    -0.572 OA
ATOM     77  O24 NTO d 869     -10.250  16.320 -22.101  0.00  0.00    -0.646 OA
ATOM     78  O1H NTO d 869      -5.791  21.293 -16.625  0.00  0.00    -0.296 OA
ATOM     79  O22 NTO d 869     -12.056  17.748 -20.670  0.00  0.00    -0.340 OA
ATOM     80  O3D NTO d 869     -13.445  14.558 -22.820  0.00  0.00    -0.572 OA
ATOM     81  C33 NTO d 869     -15.455  20.593 -19.588  0.00  0.00     0.067 C 
ATOM     82  S35 NTO d 869     -13.858  22.484 -19.871  0.00  0.00     0.251 S 
ATOM     83  S3B NTO d 869     -14.581  15.293 -22.173  0.00  0.00     0.252 S 
ATOM     84  O4C NTO d 869     -23.648  19.836 -19.603  0.00  0.00    -0.572 OA
ATOM     85  C39 NTO d 869     -15.490  17.435 -21.784  0.00  0.00     0.108 C 
ATOM     86  O16 NTO d 869      -6.518  14.259 -19.711  0.00  0.00    -0.254 OA
ATOM     87  O5M NTO d 869     -25.502  14.054 -16.893  0.00  0.00    -0.364 OA
ATOM     88  O3C NTO d 869     -15.871  14.829 -22.781  0.00  0.00    -0.572 OA
ATOM     89  C1K NTO d 869      -8.021  17.734 -18.066  0.00  0.00     0.150 C 
ATOM     90  O32 NTO d 869     -16.880  19.916 -21.427  0.00  0.00    -0.349 OA
ATOM     91  O34 NTO d 869     -14.598  21.384 -20.417  0.00  0.00    -0.254 OA
ATOM     92  H   NTO d 869     -19.615  17.690 -23.597  0.00  0.00     0.231 HD
ATOM     93  H   NTO d 869      -8.128  19.896 -14.774  0.00  0.00     0.231 HD
ATOM     94  H   NTO d 869     -20.178  18.355 -18.651  0.00  0.00     0.104 H 
ATOM     95  H   NTO d 869      -6.700  19.460 -19.730  0.00  0.00     0.089 H 
ATOM     96  H   NTO d 869     -24.079  13.929 -15.183  0.00  0.00     0.140 HD
ATOM     97  H   NTO d 869      -8.825  19.815 -17.212  0.00  0.00     0.140 HD
ATOM     98  H   NTO d 869     -18.016  19.495 -24.109  0.00  0.00     0.231 HD
ATOM     99  H   NTO d 869     -27.446  13.559 -16.457  0.00  0.00     0.066 H 
ATOM    100  H   NTO d 869     -26.317  12.226 -16.436  0.00  0.00     0.066 H 
ATOM    101  H   NTO d 869     -26.832  12.910 -17.959  0.00  0.00     0.066 H 
ATOM    102  H   NTO d 869     -10.639  19.190 -20.775  0.00  0.00     0.104 H 
ATOM    103  H   NTO d 869     -10.702  19.637 -18.379  0.00  0.00     0.091 H 
ATOM    104  H   NTO d 869     -22.091  14.923 -19.378  0.00  0.00     0.091 H 
ATOM    105  H   NTO d 869     -21.697  19.146 -19.852  0.00  0.00     0.097 H 
ATOM    106  H   NTO d 869     -20.237  18.183 -22.305  0.00  0.00     0.091 H 
ATOM    107  H   NTO d 869     -17.513  16.357 -23.100  0.00  0.00     0.140 HD
ATOM    108  H   NTO d 869     -18.799  19.550 -20.141  0.00  0.00     0.092 H 
ATOM    109  H   NTO d 869     -20.774  13.543 -14.166  0.00  0.00     0.231 HD
ATOM    110  H   NTO d 869     -10.161  16.749 -19.021  0.00  0.00     0.092 H 
ATOM    111  H   NTO d 869     -25.216  14.685 -21.256  0.00  0.00     0.080 H 
ATOM    112  H   NTO d 869     -24.027  15.974 -21.271  0.00  0.00     0.080 H 
ATOM    113  H   NTO d 869     -20.432  20.775 -21.122  0.00  0.00     0.210 HD
ATOM    114  H   NTO d 869     -22.831  12.863 -12.998  0.00  0.00     0.231 HD
ATOM    115  H   NTO d 869     -12.802  19.497 -19.936  0.00  0.00     0.133 H 
ATOM    116  H   NTO d 869      -8.913  21.959 -15.810  0.00  0.00     0.231 HD
ATOM    117  H   NTO d 869      -4.736  17.568 -18.462  0.00  0.00     0.091 H 
ATOM    118  H   NTO d 869      -6.500  18.638 -16.838  0.00  0.00     0.076 H 
ATOM    119  H   NTO d 869      -7.010  16.892 -20.299  0.00  0.00     0.090 H 
ATOM    120  H   NTO d 869     -12.445  17.199 -18.034  0.00  0.00     0.094 H 
ATOM    121  H   NTO d 869     -16.673  18.820 -19.723  0.00  0.00     0.090 H 
ATOM    122  H   NTO d 869     -15.809  18.682 -23.500  0.00  0.00     0.076 H 
ATOM    123  H   NTO d 869     -22.209  11.719 -16.812  0.00  0.00     0.231 HD
ATOM    124  H   NTO d 869     -22.252  13.386 -17.313  0.00  0.00     0.076 H 
ATOM    125  H   NTO d 869      -4.652  19.818 -17.774  0.00  0.00     0.210 HD
ATOM    126  H   NTO d 869     -24.411  12.415 -17.347  0.00  0.00     0.131 H 
ATOM    127  H   NTO d 869     -14.250  19.124 -21.480  0.00  0.00     0.091 H 
ATOM    128  H   NTO d 869     -12.948  19.978 -17.600  0.00  0.00     0.210 HD
ATOM    129  H   NTO d 869     -18.196  19.239 -22.850  0.00  0.00     0.131 H 
ATOM    130  H   NTO d 869     -21.839  16.419 -21.111  0.00  0.00     0.133 H 
ATOM    131  H   NTO d 869      -4.992  15.233 -18.757  0.00  0.00     0.080 H 
ATOM    132  H   NTO d 869      -5.046  15.431 -20.502  0.00  0.00     0.080 H 
ATOM    133  H   NTO d 869     -24.976  15.601 -18.974  0.00  0.00     0.090 H 
ATOM    134  H   NTO d 869     -18.291  17.314 -26.838  0.00  0.00     0.231 HD
ATOM    135  H   NTO d 869      -5.328  18.253 -21.182  0.00  0.00     0.210 HD
ATOM    136  H   NTO d 869     -23.554  16.070 -16.974  0.00  0.00     0.089 H 
ATOM    137  H   NTO d 869     -10.476  17.321 -16.727  0.00  0.00     0.210 HD
ATOM    138  H   NTO d 869     -20.836  15.272 -17.375  0.00  0.00     0.210 HD
ATOM    139  H   NTO d 869      -5.281  20.479 -16.763  0.00  0.00     0.231 HD
ATOM    140  H   NTO d 869     -14.888  20.214 -18.764  0.00  0.00     0.080 H 
ATOM    141  H   NTO d 869     -16.257  21.214 -19.246  0.00  0.00     0.080 H 
ATOM    142  H   NTO d 869     -16.072  16.765 -21.186  0.00  0.00     0.092 H 
ATOM    143  H   NTO d 869      -8.730  17.537 -17.289  0.00  0.00     0.131 H 
ENDROOT
TORSDOF 46
