MODEL 1
REMARK VINA RESULT:     -14.1      0.000      0.000
REMARK  0 active torsions:
REMARK  status: ('A' for Active; 'I' for Inactive)
REMARK       I    between atoms: O3I_1  and  S3H_51 
REMARK       I    between atoms: O1I_2  and  S1G_48 
REMARK       I    between atoms: O54_3  and  C53_28 
REMARK       I    between atoms: O54_3  and  S55_64 
REMARK       I    between atoms: C41_5  and  C43_30 
REMARK       I    between atoms: C1B_6  and  O1C_53 
REMARK       I    between atoms: O4G_7  and  C4F_62 
REMARK       I    between atoms: O4G_7  and  C50_15 
REMARK       I    between atoms: N5G_8  and  C5F_50 
REMARK       I    between atoms: N5G_8  and  S5H_47 
REMARK       I    between atoms: N1F_9  and  C1E_41 
REMARK       I    between atoms: N1F_9  and  S1G_48 
REMARK       I    between atoms: O3K_10  and  S3H_51 
REMARK       I    between atoms: C5N_11  and  O5M_87 
REMARK       I    between atoms: C21_12  and  C23_57 
REMARK       I    between atoms: C26_13  and  O27_73 
REMARK       I    between atoms: C49_16  and  O4A_21 
REMARK       I    between atoms: O2D_17  and  C2C_35 
REMARK       I    between atoms: O2D_17  and  C30_56 
REMARK       I    between atoms: O1L_18  and  C1K_89 
REMARK       I    between atoms: O1L_18  and  C20_27 
REMARK       I    between atoms: C46_20  and  O47_33 
REMARK       I    between atoms: O4A_21  and  S4B_39 
REMARK       I    between atoms: N3G_22  and  C3F_46 
REMARK       I    between atoms: N3G_22  and  S3H_51 
REMARK       I    between atoms: C40_25  and  O3M_29 
REMARK       I    between atoms: O5I_26  and  S5H_47 
REMARK       I    between atoms: C53_28  and  C51_66 
REMARK       I    between atoms: O3M_29  and  C3L_61 
REMARK       I    between atoms: S17_31  and  O16_86 
REMARK       I    between atoms: O5K_34  and  S5H_47 
REMARK       I    between atoms: O1J_37  and  S1G_48 
REMARK       I    between atoms: C12_38  and  O10_70 
REMARK       I    between atoms: C13_42  and  C15_63 
REMARK       I    between atoms: C29_43  and  O2A_60 
REMARK       I    between atoms: C31_45  and  C33_81 
REMARK       I    between atoms: S5H_47  and  O5J_49 
REMARK       I    between atoms: S1G_48  and  O1H_78 
REMARK       I    between atoms: S3H_51  and  O3J_68 
REMARK       I    between atoms: O3A_54  and  C39_85 
REMARK       I    between atoms: O3A_54  and  S3B_83 
REMARK       I    between atoms: C5L_55  and  O5M_87 
REMARK       I    between atoms: C15_63  and  O16_86 
REMARK       I    between atoms: C59_71  and  O5A_75 
REMARK       I    between atoms: C33_81  and  O34_91 
REMARK       I    between atoms: S35_82  and  O34_91 
ROOT
ATOM      1  O3I NTO d 869      65.446   5.661  13.900  0.00  0.00    -0.296 OA
ATOM      2  O1I NTO d 869      55.295  -2.623   5.265  0.00  0.00    -0.296 OA
ATOM      3  O54 NTO d 869      67.057   2.321  18.414  0.00  0.00    -0.254 OA
ATOM      4  O18 NTO d 869      50.802   0.745  11.503  0.00  0.00    -0.572 OA
ATOM      5  C41 NTO d 869      65.390   0.530  13.346  0.00  0.00     0.152 C 
ATOM      6  C1B NTO d 869      54.201   1.348   5.787  0.00  0.00     0.083 C 
ATOM      7  O4G NTO d 869      67.707   0.236  15.594  0.00  0.00    -0.348 OA
ATOM      8  N5G NTO d 869      66.340  -3.594  18.235  0.00  0.00    -0.210 NA
ATOM      9  N1F NTO d 869      56.067  -0.230   5.709  0.00  0.00    -0.210 NA
ATOM     10  O3K NTO d 869      64.938   6.306  11.589  0.00  0.00    -0.296 OA
ATOM     11  C5N NTO d 869      69.141  -2.470  20.643  0.00  0.00     0.007 C 
ATOM     12  C21 NTO d 869      57.858   2.644   8.871  0.00  0.00     0.152 C 
ATOM     13  C26 NTO d 869      58.020   0.226   8.451  0.00  0.00     0.092 C 
ATOM     14  O4E NTO d 869      71.223   2.444  14.002  0.00  0.00    -0.572 OA
ATOM     15  C50 NTO d 869      67.166  -0.153  16.866  0.00  0.00     0.095 C 
ATOM     16  C49 NTO d 869      67.662   1.728  13.708  0.00  0.00     0.134 C 
ATOM     17  O2D NTO d 869      60.827   1.476  10.632  0.00  0.00    -0.348 OA
ATOM     18  O1L NTO d 869      55.999   1.502   7.885  0.00  0.00    -0.348 OA
ATOM     19  O19 NTO d 869      50.075   2.936  10.674  0.00  0.00    -0.572 OA
ATOM     20  C46 NTO d 869      66.729   2.585  12.851  0.00  0.00     0.094 C 
ATOM     21  O4A NTO d 869      68.843   2.464  14.036  0.00  0.00    -0.244 OA
ATOM     22  N3G NTO d 869      63.117   5.139  12.979  0.00  0.00    -0.210 NA
ATOM     23  O36 NTO d 869      61.190   1.437   6.212  0.00  0.00    -0.572 OA
ATOM     24  O57 NTO d 869      68.351   4.307  18.725  0.00  0.00    -0.572 OA
ATOM     25  C40 NTO d 869      65.514   1.752  12.448  0.00  0.00     0.103 C 
ATOM     26  O5I NTO d 869      63.834  -4.063  18.141  0.00  0.00    -0.296 OA
ATOM     27  C20 NTO d 869      57.060   1.350   8.838  0.00  0.00     0.103 C 
ATOM     28  C53 NTO d 869      68.296   1.706  18.059  0.00  0.00     0.067 C 
ATOM     29  O3M NTO d 869      64.352   2.579  12.587  0.00  0.00    -0.348 OA
ATOM     30  C43 NTO d 869      63.998  -0.055  13.165  0.00  0.00     0.206 C 
ATOM     31  S17 NTO d 869      51.229   2.156  11.231  0.00  0.00     0.251 S 
ATOM     32  O45 NTO d 869      63.016   0.710  13.307  0.00  0.00    -0.646 OA
ATOM     33  O47 NTO d 869      67.423   3.010  11.674  0.00  0.00    -0.390 OA
ATOM     34  O5K NTO d 869      65.217  -5.405  19.658  0.00  0.00    -0.296 OA
ATOM     35  C2C NTO d 869      59.847   1.538   9.582  0.00  0.00     0.160 C 
ATOM     36  O38 NTO d 869      63.249   2.578   5.556  0.00  0.00    -0.572 OA
ATOM     37  O1J NTO d 869      57.056  -1.671   3.852  0.00  0.00    -0.296 OA
ATOM     38  C12 NTO d 869      52.983   1.785   6.606  0.00  0.00     0.089 C 
ATOM     39  S4B NTO d 869      69.978   1.922  13.354  0.00  0.00     0.252 S 
ATOM     40  O4D NTO d 869      69.942   2.335  11.912  0.00  0.00    -0.572 OA
ATOM     41  C1E NTO d 869      54.812   0.088   6.400  0.00  0.00     0.081 C 
ATOM     42  C13 NTO d 869      53.333   1.883   8.093  0.00  0.00     0.090 C 
ATOM     43  C29 NTO d 869      59.160   0.175   9.471  0.00  0.00     0.110 C 
ATOM     44  O42 NTO d 869      65.588   0.900  14.722  0.00  0.00    -0.340 OA
ATOM     45  C31 NTO d 869      63.166   1.890  10.272  0.00  0.00     0.091 C 
ATOM     46  C3F NTO d 869      63.018   4.354  11.735  0.00  0.00     0.083 C 
ATOM     47  S5H NTO d 869      65.011  -4.041  19.070  0.00  0.00     0.156 S 
ATOM     48  S1G NTO d 869      55.782  -1.376   4.586  0.00  0.00     0.156 S 
ATOM     49  O5J NTO d 869      64.753  -3.068  20.182  0.00  0.00    -0.296 OA
ATOM     50  C5F NTO d 869      66.451  -2.128  18.213  0.00  0.00     0.081 C 
ATOM     51  S3H NTO d 869      64.381   6.174  12.976  0.00  0.00     0.156 S 
ATOM     52  O25 NTO d 869      56.265   4.267   8.171  0.00  0.00    -0.646 OA
ATOM     53  O1C NTO d 869      53.801   1.083   4.441  0.00  0.00    -0.391 OA
ATOM     54  O3A NTO d 869      60.617   4.074  11.975  0.00  0.00    -0.247 OA
ATOM     55  C5L NTO d 869      67.399  -1.665  19.320  0.00  0.00     0.149 C 
ATOM     56  C30 NTO d 869      61.805   2.523  10.529  0.00  0.00     0.096 C 
ATOM     57  C23 NTO d 869      56.891   3.786   9.145  0.00  0.00     0.206 C 
ATOM     58  O3E NTO d 869      59.822   2.385  13.488  0.00  0.00    -0.572 OA
ATOM     59  O14 NTO d 869      53.909   0.655   8.564  0.00  0.00    -0.349 OA
ATOM     60  O2A NTO d 869      60.112  -0.811   9.067  0.00  0.00    -0.388 OA
ATOM     61  C3L NTO d 869      64.298   3.545  11.529  0.00  0.00     0.150 C 
ATOM     62  C4F NTO d 869      66.944   1.289  14.987  0.00  0.00     0.161 C 
ATOM     63  C15 NTO d 869      52.045   2.126   8.884  0.00  0.00     0.067 C 
ATOM     64  S55 NTO d 869      66.969   3.738  18.606  0.00  0.00     0.251 S 
ATOM     65  O58 NTO d 869      66.201   4.014  19.863  0.00  0.00    -0.572 OA
ATOM     66  C51 NTO d 869      68.136   0.186  17.988  0.00  0.00     0.091 C 
ATOM     67  O56 NTO d 869      66.271   4.372  17.440  0.00  0.00    -0.572 OA
ATOM     68  O3J NTO d 869      63.925   7.526  13.440  0.00  0.00    -0.296 OA
ATOM     69  O44 NTO d 869      63.898  -1.275  12.874  0.00  0.00    -0.646 OA
ATOM     70  O10 NTO d 869      52.559   3.071   6.147  0.00  0.00    -0.390 OA
ATOM     71  C59 NTO d 869      66.952  -1.666  16.844  0.00  0.00     0.083 C 
ATOM     72  O52 NTO d 869      67.628  -0.248  19.260  0.00  0.00    -0.349 OA
ATOM     73  O27 NTO d 869      57.331  -1.027   8.453  0.00  0.00    -0.390 OA
ATOM     74  O1A NTO d 869      51.697   2.786  12.507  0.00  0.00    -0.572 OA
ATOM     75  O5A NTO d 869      65.972  -1.968  15.846  0.00  0.00    -0.391 OA
ATOM     76  O37 NTO d 869      63.330   0.262   6.365  0.00  0.00    -0.572 OA
ATOM     77  O24 NTO d 869      56.756   4.176  10.329  0.00  0.00    -0.646 OA
ATOM     78  O1H NTO d 869      54.740  -0.884   3.626  0.00  0.00    -0.296 OA
ATOM     79  O22 NTO d 869      58.895   2.576   9.866  0.00  0.00    -0.340 OA
ATOM     80  O3D NTO d 869      58.784   4.602  13.417  0.00  0.00    -0.572 OA
ATOM     81  C33 NTO d 869      63.131   1.170   8.920  0.00  0.00     0.067 C 
ATOM     82  S35 NTO d 869      62.650   1.591   6.513  0.00  0.00     0.251 S 
ATOM     83  S3B NTO d 869      60.073   3.849  13.280  0.00  0.00     0.252 S 
ATOM     84  O4C NTO d 869      69.958   0.425  13.453  0.00  0.00    -0.572 OA
ATOM     85  C39 NTO d 869      61.852   3.367  11.807  0.00  0.00     0.108 C 
ATOM     86  O16 NTO d 869      52.307   2.153  10.288  0.00  0.00    -0.254 OA
ATOM     87  O5M NTO d 869      68.618  -2.419  19.312  0.00  0.00    -0.364 OA
ATOM     88  O3C NTO d 869      61.036   4.336  14.322  0.00  0.00    -0.572 OA
ATOM     89  C1K NTO d 869      55.132   0.359   7.871  0.00  0.00     0.150 C 
ATOM     90  O32 NTO d 869      64.215   2.871  10.263  0.00  0.00    -0.349 OA
ATOM     91  O34 NTO d 869      62.824   2.071   7.853  0.00  0.00    -0.254 OA
ATOM     92  H   NTO d 869      65.742   4.787  13.601  0.00  0.00     0.231 HD
ATOM     93  H   NTO d 869      55.972  -2.938   5.885  0.00  0.00     0.231 HD
ATOM     94  H   NTO d 869      66.134  -0.193  13.082  0.00  0.00     0.104 H 
ATOM     95  H   NTO d 869      54.931   2.131   5.794  0.00  0.00     0.089 H 
ATOM     96  H   NTO d 869      67.167  -3.988  18.682  0.00  0.00     0.140 HD
ATOM     97  H   NTO d 869      56.750  -0.575   6.383  0.00  0.00     0.140 HD
ATOM     98  H   NTO d 869      65.237   5.438  11.277  0.00  0.00     0.231 HD
ATOM     99  H   NTO d 869      70.051  -3.032  20.648  0.00  0.00     0.066 H 
ATOM    100  H   NTO d 869      68.429  -2.941  21.288  0.00  0.00     0.066 H 
ATOM    101  H   NTO d 869      69.332  -1.476  20.990  0.00  0.00     0.066 H 
ATOM    102  H   NTO d 869      58.344   2.806   7.932  0.00  0.00     0.104 H 
ATOM    103  H   NTO d 869      58.410   0.413   7.472  0.00  0.00     0.091 H 
ATOM    104  H   NTO d 869      66.248   0.369  17.037  0.00  0.00     0.091 H 
ATOM    105  H   NTO d 869      67.942   0.858  13.150  0.00  0.00     0.097 H 
ATOM    106  H   NTO d 869      66.412   3.441  13.408  0.00  0.00     0.091 H 
ATOM    107  H   NTO d 869      63.226   4.494  13.763  0.00  0.00     0.140 HD
ATOM    108  H   NTO d 869      65.616   1.414  11.439  0.00  0.00     0.092 H 
ATOM    109  H   NTO d 869      64.001  -4.692  17.422  0.00  0.00     0.231 HD
ATOM    110  H   NTO d 869      56.622   1.116   9.786  0.00  0.00     0.092 H 
ATOM    111  H   NTO d 869      69.033   1.949  18.796  0.00  0.00     0.080 H 
ATOM    112  H   NTO d 869      68.602   2.069  17.100  0.00  0.00     0.080 H 
ATOM    113  H   NTO d 869      67.710   2.233  11.170  0.00  0.00     0.210 HD
ATOM    114  H   NTO d 869      65.384  -6.043  18.945  0.00  0.00     0.231 HD
ATOM    115  H   NTO d 869      60.316   1.768   8.648  0.00  0.00     0.133 H 
ATOM    116  H   NTO d 869      57.724  -1.989   4.480  0.00  0.00     0.231 HD
ATOM    117  H   NTO d 869      52.206   1.060   6.483  0.00  0.00     0.091 H 
ATOM    118  H   NTO d 869      54.123  -0.726   6.308  0.00  0.00     0.076 H 
ATOM    119  H   NTO d 869      54.034   2.681   8.225  0.00  0.00     0.090 H 
ATOM    120  H   NTO d 869      58.755  -0.082  10.428  0.00  0.00     0.094 H 
ATOM    121  H   NTO d 869      63.371   1.199  11.062  0.00  0.00     0.090 H 
ATOM    122  H   NTO d 869      62.866   5.040  10.927  0.00  0.00     0.076 H 
ATOM    123  H   NTO d 869      64.618  -2.182  19.812  0.00  0.00     0.231 HD
ATOM    124  H   NTO d 869      65.488  -1.695  18.384  0.00  0.00     0.076 H 
ATOM    125  H   NTO d 869      53.140   0.373   4.434  0.00  0.00     0.210 HD
ATOM    126  H   NTO d 869      66.924  -1.858  20.259  0.00  0.00     0.131 H 
ATOM    127  H   NTO d 869      61.539   3.172   9.722  0.00  0.00     0.091 H 
ATOM    128  H   NTO d 869      60.475  -0.573   8.200  0.00  0.00     0.210 HD
ATOM    129  H   NTO d 869      65.168   4.169  11.537  0.00  0.00     0.131 H 
ATOM    130  H   NTO d 869      66.881   2.111  15.670  0.00  0.00     0.133 H 
ATOM    131  H   NTO d 869      51.350   1.341   8.672  0.00  0.00     0.080 H 
ATOM    132  H   NTO d 869      51.638   3.072   8.593  0.00  0.00     0.080 H 
ATOM    133  H   NTO d 869      69.064  -0.305  17.785  0.00  0.00     0.090 H 
ATOM    134  H   NTO d 869      64.676   8.139  13.437  0.00  0.00     0.231 HD
ATOM    135  H   NTO d 869      53.278   3.710   6.268  0.00  0.00     0.210 HD
ATOM    136  H   NTO d 869      67.871  -2.166  16.620  0.00  0.00     0.089 H 
ATOM    137  H   NTO d 869      56.976  -1.200   9.339  0.00  0.00     0.210 HD
ATOM    138  H   NTO d 869      65.144  -1.510  16.057  0.00  0.00     0.210 HD
ATOM    139  H   NTO d 869      53.919  -0.695   4.108  0.00  0.00     0.231 HD
ATOM    140  H   NTO d 869      62.385   0.404   8.954  0.00  0.00     0.080 H 
ATOM    141  H   NTO d 869      64.100   0.752   8.738  0.00  0.00     0.080 H 
ATOM    142  H   NTO d 869      61.995   2.721  12.647  0.00  0.00     0.092 H 
ATOM    143  H   NTO d 869      55.595  -0.479   8.348  0.00  0.00     0.131 H 
ENDROOT
TORSDOF 46
ENDMDL
MODEL 2
REMARK VINA RESULT:     -12.3      1.034      1.067
REMARK  0 active torsions:
REMARK  status: ('A' for Active; 'I' for Inactive)
REMARK       I    between atoms: O3I_1  and  S3H_51 
REMARK       I    between atoms: O1I_2  and  S1G_48 
REMARK       I    between atoms: O54_3  and  C53_28 
REMARK       I    between atoms: O54_3  and  S55_64 
REMARK       I    between atoms: C41_5  and  C43_30 
REMARK       I    between atoms: C1B_6  and  O1C_53 
REMARK       I    between atoms: O4G_7  and  C4F_62 
REMARK       I    between atoms: O4G_7  and  C50_15 
REMARK       I    between atoms: N5G_8  and  C5F_50 
REMARK       I    between atoms: N5G_8  and  S5H_47 
REMARK       I    between atoms: N1F_9  and  C1E_41 
REMARK       I    between atoms: N1F_9  and  S1G_48 
REMARK       I    between atoms: O3K_10  and  S3H_51 
REMARK       I    between atoms: C5N_11  and  O5M_87 
REMARK       I    between atoms: C21_12  and  C23_57 
REMARK       I    between atoms: C26_13  and  O27_73 
REMARK       I    between atoms: C49_16  and  O4A_21 
REMARK       I    between atoms: O2D_17  and  C2C_35 
REMARK       I    between atoms: O2D_17  and  C30_56 
REMARK       I    between atoms: O1L_18  and  C1K_89 
REMARK       I    between atoms: O1L_18  and  C20_27 
REMARK       I    between atoms: C46_20  and  O47_33 
REMARK       I    between atoms: O4A_21  and  S4B_39 
REMARK       I    between atoms: N3G_22  and  C3F_46 
REMARK       I    between atoms: N3G_22  and  S3H_51 
REMARK       I    between atoms: C40_25  and  O3M_29 
REMARK       I    between atoms: O5I_26  and  S5H_47 
REMARK       I    between atoms: C53_28  and  C51_66 
REMARK       I    between atoms: O3M_29  and  C3L_61 
REMARK       I    between atoms: S17_31  and  O16_86 
REMARK       I    between atoms: O5K_34  and  S5H_47 
REMARK       I    between atoms: O1J_37  and  S1G_48 
REMARK       I    between atoms: C12_38  and  O10_70 
REMARK       I    between atoms: C13_42  and  C15_63 
REMARK       I    between atoms: C29_43  and  O2A_60 
REMARK       I    between atoms: C31_45  and  C33_81 
REMARK       I    between atoms: S5H_47  and  O5J_49 
REMARK       I    between atoms: S1G_48  and  O1H_78 
REMARK       I    between atoms: S3H_51  and  O3J_68 
REMARK       I    between atoms: O3A_54  and  C39_85 
REMARK       I    between atoms: O3A_54  and  S3B_83 
REMARK       I    between atoms: C5L_55  and  O5M_87 
REMARK       I    between atoms: C15_63  and  O16_86 
REMARK       I    between atoms: C59_71  and  O5A_75 
REMARK       I    between atoms: C33_81  and  O34_91 
REMARK       I    between atoms: S35_82  and  O34_91 
ROOT
ATOM      1  O3I NTO d 869      66.235   4.674  13.277  0.00  0.00    -0.296 OA
ATOM      2  O1I NTO d 869      55.442  -3.438   5.281  0.00  0.00    -0.296 OA
ATOM      3  O54 NTO d 869      67.523   1.624  18.090  0.00  0.00    -0.254 OA
ATOM      4  O18 NTO d 869      51.228   0.851  11.136  0.00  0.00    -0.572 OA
ATOM      5  C41 NTO d 869      65.732  -0.462  13.180  0.00  0.00     0.152 C 
ATOM      6  C1B NTO d 869      54.697   0.644   5.434  0.00  0.00     0.083 C 
ATOM      7  O4G NTO d 869      68.003  -0.753  15.475  0.00  0.00    -0.348 OA
ATOM      8  N5G NTO d 869      66.292  -4.199  18.428  0.00  0.00    -0.210 NA
ATOM      9  N1F NTO d 869      56.418  -1.092   5.520  0.00  0.00    -0.210 NA
ATOM     10  O3K NTO d 869      65.796   5.151  10.912  0.00  0.00    -0.296 OA
ATOM     11  C5N NTO d 869      69.168  -3.111  20.762  0.00  0.00     0.007 C 
ATOM     12  C21 NTO d 869      58.437   1.888   8.438  0.00  0.00     0.152 C 
ATOM     13  C26 NTO d 869      58.389  -0.562   8.236  0.00  0.00     0.092 C 
ATOM     14  O4E NTO d 869      71.707   0.990  13.739  0.00  0.00    -0.572 OA
ATOM     15  C50 NTO d 869      67.424  -0.978  16.769  0.00  0.00     0.095 C 
ATOM     16  C49 NTO d 869      68.099   0.562  13.463  0.00  0.00     0.134 C 
ATOM     17  O2D NTO d 869      61.283   0.630  10.334  0.00  0.00    -0.348 OA
ATOM     18  O1L NTO d 869      56.491   0.828   7.533  0.00  0.00    -0.348 OA
ATOM     19  O19 NTO d 869      50.700   3.014  10.107  0.00  0.00    -0.572 OA
ATOM     20  C46 NTO d 869      67.249   1.416  12.521  0.00  0.00     0.094 C 
ATOM     21  O4A NTO d 869      69.338   1.219  13.740  0.00  0.00    -0.244 OA
ATOM     22  N3G NTO d 869      63.873   4.275  12.376  0.00  0.00    -0.210 NA
ATOM     23  O36 NTO d 869      61.664   0.163   5.940  0.00  0.00    -0.572 OA
ATOM     24  O57 NTO d 869      68.985   3.511  18.240  0.00  0.00    -0.572 OA
ATOM     25  C40 NTO d 869      65.967   0.660  12.179  0.00  0.00     0.103 C 
ATOM     26  O5I NTO d 869      63.756  -4.455  18.343  0.00  0.00    -0.296 OA
ATOM     27  C20 NTO d 869      57.529   0.670   8.510  0.00  0.00     0.103 C 
ATOM     28  C53 NTO d 869      68.706   0.875  17.807  0.00  0.00     0.067 C 
ATOM     29  O3M NTO d 869      64.882   1.593  12.229  0.00  0.00    -0.348 OA
ATOM     30  C43 NTO d 869      64.295  -0.937  13.033  0.00  0.00     0.206 C 
ATOM     31  S17 NTO d 869      51.779   2.190  10.746  0.00  0.00     0.251 S 
ATOM     32  O45 NTO d 869      63.383  -0.081  13.094  0.00  0.00    -0.646 OA
ATOM     33  O47 NTO d 869      67.983   1.673  11.321  0.00  0.00    -0.390 OA
ATOM     34  O5K NTO d 869      65.008  -5.771  19.990  0.00  0.00    -0.296 OA
ATOM     35  C2C NTO d 869      60.318   0.682   9.269  0.00  0.00     0.160 C 
ATOM     36  O38 NTO d 869      63.819   1.058   5.212  0.00  0.00    -0.572 OA
ATOM     37  O1J NTO d 869      57.287  -2.773   3.812  0.00  0.00    -0.296 OA
ATOM     38  C12 NTO d 869      53.518   1.256   6.195  0.00  0.00     0.089 C 
ATOM     39  S4B NTO d 869      70.424   0.522  13.123  0.00  0.00     0.252 S 
ATOM     40  O4D NTO d 869      70.432   0.806  11.650  0.00  0.00    -0.572 OA
ATOM     41  C1E NTO d 869      55.192  -0.605   6.164  0.00  0.00     0.081 C 
ATOM     42  C13 NTO d 869      53.867   1.456   7.672  0.00  0.00     0.090 C 
ATOM     43  C29 NTO d 869      59.515  -0.621   9.272  0.00  0.00     0.110 C 
ATOM     44  O42 NTO d 869      65.955   0.012  14.520  0.00  0.00    -0.340 OA
ATOM     45  C31 NTO d 869      63.652   0.805   9.968  0.00  0.00     0.091 C 
ATOM     46  C3F NTO d 869      63.713   3.394  11.205  0.00  0.00     0.083 C 
ATOM     47  S5H NTO d 869      64.925  -4.452  19.281  0.00  0.00     0.156 S 
ATOM     48  S1G NTO d 869      56.039  -2.304   4.500  0.00  0.00     0.156 S 
ATOM     49  O5J NTO d 869      64.748  -3.365  20.299  0.00  0.00    -0.296 OA
ATOM     50  C5F NTO d 869      66.531  -2.756  18.276  0.00  0.00     0.081 C 
ATOM     51  S3H NTO d 869      65.223   5.192  12.297  0.00  0.00     0.156 S 
ATOM     52  O25 NTO d 869      56.996   3.574   7.576  0.00  0.00    -0.646 OA
ATOM     53  O1C NTO d 869      54.282   0.294   4.111  0.00  0.00    -0.391 OA
ATOM     54  O3A NTO d 869      61.295   3.345  11.438  0.00  0.00    -0.247 OA
ATOM     55  C5L NTO d 869      67.511  -2.280  19.351  0.00  0.00     0.149 C 
ATOM     56  C30 NTO d 869      62.350   1.574  10.151  0.00  0.00     0.096 C 
ATOM     57  C23 NTO d 869      57.573   3.130   8.597  0.00  0.00     0.206 C 
ATOM     58  O3E NTO d 869      60.347   1.874  13.085  0.00  0.00    -0.572 OA
ATOM     59  O14 NTO d 869      54.331   0.229   8.258  0.00  0.00    -0.349 OA
ATOM     60  O2A NTO d 869      60.379  -1.718   8.969  0.00  0.00    -0.388 OA
ATOM     61  C3L NTO d 869      64.917   2.462  11.088  0.00  0.00     0.150 C 
ATOM     62  C4F NTO d 869      67.339   0.304  14.767  0.00  0.00     0.161 C 
ATOM     63  C15 NTO d 869      52.601   1.880   8.421  0.00  0.00     0.067 C 
ATOM     64  S55 NTO d 869      67.559   3.055  18.154  0.00  0.00     0.251 S 
ATOM     65  O58 NTO d 869      66.812   3.508  19.372  0.00  0.00    -0.572 OA
ATOM     66  C51 NTO d 869      68.413  -0.626  17.869  0.00  0.00     0.091 C 
ATOM     67  O56 NTO d 869      66.925   3.640  16.927  0.00  0.00    -0.572 OA
ATOM     68  O3J NTO d 869      64.884   6.614  12.633  0.00  0.00    -0.296 OA
ATOM     69  O44 NTO d 869      64.091  -2.166  12.850  0.00  0.00    -0.646 OA
ATOM     70  O10 NTO d 869      53.210   2.527   5.618  0.00  0.00    -0.390 OA
ATOM     71  C59 NTO d 869      67.078  -2.463  16.878  0.00  0.00     0.083 C 
ATOM     72  O52 NTO d 869      67.864  -0.899  19.168  0.00  0.00    -0.349 OA
ATOM     73  O27 NTO d 869      57.593  -1.746   8.340  0.00  0.00    -0.390 OA
ATOM     74  O1A NTO d 869      52.294   2.889  11.967  0.00  0.00    -0.572 OA
ATOM     75  O5A NTO d 869      66.080  -2.768  15.899  0.00  0.00    -0.391 OA
ATOM     76  O37 NTO d 869      63.692  -1.174   6.224  0.00  0.00    -0.572 OA
ATOM     77  O24 NTO d 869      57.466   3.634   9.740  0.00  0.00    -0.646 OA
ATOM     78  O1H NTO d 869      55.049  -1.812   3.487  0.00  0.00    -0.296 OA
ATOM     79  O22 NTO d 869      59.459   1.820   9.448  0.00  0.00    -0.340 OA
ATOM     80  O3D NTO d 869      59.507   4.158  12.804  0.00  0.00    -0.572 OA
ATOM     81  C33 NTO d 869      63.561  -0.028   8.686  0.00  0.00     0.067 C 
ATOM     82  S35 NTO d 869      63.131   0.217   6.244  0.00  0.00     0.251 S 
ATOM     83  S3B NTO d 869      60.727   3.286  12.751  0.00  0.00     0.252 S 
ATOM     84  O4C NTO d 869      70.273  -0.952  13.355  0.00  0.00    -0.572 OA
ATOM     85  C39 NTO d 869      62.464   2.522  11.349  0.00  0.00     0.108 C 
ATOM     86  O16 NTO d 869      52.857   2.009   9.821  0.00  0.00    -0.254 OA
ATOM     87  O5M NTO d 869      68.659  -3.134  19.425  0.00  0.00    -0.364 OA
ATOM     88  O3C NTO d 869      61.723   3.780  13.757  0.00  0.00    -0.572 OA
ATOM     89  C1K NTO d 869      55.527  -0.232   7.609  0.00  0.00     0.150 C 
ATOM     90  O32 NTO d 869      64.783   1.687   9.886  0.00  0.00    -0.349 OA
ATOM     91  O34 NTO d 869      63.339   0.798   7.539  0.00  0.00    -0.254 OA
ATOM     92  H   NTO d 869      66.454   3.754  13.060  0.00  0.00     0.231 HD
ATOM     93  H   NTO d 869      56.085  -3.754   5.935  0.00  0.00     0.231 HD
ATOM     94  H   NTO d 869      66.412  -1.267  12.991  0.00  0.00     0.104 H 
ATOM     95  H   NTO d 869      55.492   1.358   5.381  0.00  0.00     0.089 H 
ATOM     96  H   NTO d 869      67.080  -4.622  18.918  0.00  0.00     0.140 HD
ATOM     97  H   NTO d 869      57.064  -1.433   6.231  0.00  0.00     0.140 HD
ATOM     98  H   NTO d 869      66.020   4.235  10.682  0.00  0.00     0.231 HD
ATOM     99  H   NTO d 869      70.027  -3.747  20.828  0.00  0.00     0.066 H 
ATOM    100  H   NTO d 869      68.415  -3.459  21.437  0.00  0.00     0.066 H 
ATOM    101  H   NTO d 869      69.444  -2.110  21.022  0.00  0.00     0.066 H 
ATOM    102  H   NTO d 869      58.941   1.923   7.494  0.00  0.00     0.104 H 
ATOM    103  H   NTO d 869      58.799  -0.499   7.249  0.00  0.00     0.091 H 
ATOM    104  H   NTO d 869      66.554  -0.366  16.881  0.00  0.00     0.091 H 
ATOM    105  H   NTO d 869      68.304  -0.375  12.989  0.00  0.00     0.097 H 
ATOM    106  H   NTO d 869      67.005   2.343  12.996  0.00  0.00     0.091 H 
ATOM    107  H   NTO d 869      63.921   3.696  13.215  0.00  0.00     0.140 HD
ATOM    108  H   NTO d 869      66.045   0.225  11.205  0.00  0.00     0.092 H 
ATOM    109  H   NTO d 869      63.871  -5.158  17.685  0.00  0.00     0.231 HD
ATOM    110  H   NTO d 869      57.067   0.561   9.469  0.00  0.00     0.092 H 
ATOM    111  H   NTO d 869      69.458   1.118  18.529  0.00  0.00     0.080 H 
ATOM    112  H   NTO d 869      69.047   1.122  16.824  0.00  0.00     0.080 H 
ATOM    113  H   NTO d 869      68.204   0.832  10.891  0.00  0.00     0.210 HD
ATOM    114  H   NTO d 869      65.123  -6.482  19.339  0.00  0.00     0.231 HD
ATOM    115  H   NTO d 869      60.810   0.786   8.325  0.00  0.00     0.133 H 
ATOM    116  H   NTO d 869      57.921  -3.090   4.473  0.00  0.00     0.231 HD
ATOM    117  H   NTO d 869      52.681   0.593   6.127  0.00  0.00     0.091 H 
ATOM    118  H   NTO d 869      54.434  -1.361   6.135  0.00  0.00     0.076 H 
ATOM    119  H   NTO d 869      54.635   2.198   7.742  0.00  0.00     0.090 H 
ATOM    120  H   NTO d 869      59.084  -0.755  10.242  0.00  0.00     0.094 H 
ATOM    121  H   NTO d 869      63.792   0.172  10.820  0.00  0.00     0.090 H 
ATOM    122  H   NTO d 869      63.625   4.016  10.338  0.00  0.00     0.076 H 
ATOM    123  H   NTO d 869      64.693  -2.507  19.850  0.00  0.00     0.231 HD
ATOM    124  H   NTO d 869      65.609  -2.227  18.396  0.00  0.00     0.076 H 
ATOM    125  H   NTO d 869      53.561  -0.353   4.159  0.00  0.00     0.210 HD
ATOM    126  H   NTO d 869      67.015  -2.345  20.297  0.00  0.00     0.131 H 
ATOM    127  H   NTO d 869      62.145   2.169   9.286  0.00  0.00     0.091 H 
ATOM    128  H   NTO d 869      60.766  -1.591   8.089  0.00  0.00     0.210 HD
ATOM    129  H   NTO d 869      65.839   3.006  11.052  0.00  0.00     0.131 H 
ATOM    130  H   NTO d 869      67.344   1.185  15.373  0.00  0.00     0.133 H 
ATOM    131  H   NTO d 869      51.841   1.142   8.271  0.00  0.00     0.080 H 
ATOM    132  H   NTO d 869      52.280   2.828   8.043  0.00  0.00     0.080 H 
ATOM    133  H   NTO d 869      69.297  -1.212  17.722  0.00  0.00     0.090 H 
ATOM    134  H   NTO d 869      65.686   7.158  12.586  0.00  0.00     0.231 HD
ATOM    135  H   NTO d 869      53.982   3.110   5.691  0.00  0.00     0.210 HD
ATOM    136  H   NTO d 869      67.951  -3.059  16.712  0.00  0.00     0.089 H 
ATOM    137  H   NTO d 869      57.220  -1.808   9.234  0.00  0.00     0.210 HD
ATOM    138  H   NTO d 869      65.295  -2.222  16.058  0.00  0.00     0.210 HD
ATOM    139  H   NTO d 869      54.246  -1.510   3.939  0.00  0.00     0.231 HD
ATOM    140  H   NTO d 869      62.751  -0.720   8.778  0.00  0.00     0.080 H 
ATOM    141  H   NTO d 869      64.490  -0.543   8.554  0.00  0.00     0.080 H 
ATOM    142  H   NTO d 869      62.545   1.944  12.246  0.00  0.00     0.092 H 
ATOM    143  H   NTO d 869      55.912  -1.061   8.164  0.00  0.00     0.131 H 
ENDROOT
TORSDOF 46
ENDMDL
MODEL 3
REMARK VINA RESULT:     -11.9      1.193      1.222
REMARK  0 active torsions:
REMARK  status: ('A' for Active; 'I' for Inactive)
REMARK       I    between atoms: O3I_1  and  S3H_51 
REMARK       I    between atoms: O1I_2  and  S1G_48 
REMARK       I    between atoms: O54_3  and  C53_28 
REMARK       I    between atoms: O54_3  and  S55_64 
REMARK       I    between atoms: C41_5  and  C43_30 
REMARK       I    between atoms: C1B_6  and  O1C_53 
REMARK       I    between atoms: O4G_7  and  C4F_62 
REMARK       I    between atoms: O4G_7  and  C50_15 
REMARK       I    between atoms: N5G_8  and  C5F_50 
REMARK       I    between atoms: N5G_8  and  S5H_47 
REMARK       I    between atoms: N1F_9  and  C1E_41 
REMARK       I    between atoms: N1F_9  and  S1G_48 
REMARK       I    between atoms: O3K_10  and  S3H_51 
REMARK       I    between atoms: C5N_11  and  O5M_87 
REMARK       I    between atoms: C21_12  and  C23_57 
REMARK       I    between atoms: C26_13  and  O27_73 
REMARK       I    between atoms: C49_16  and  O4A_21 
REMARK       I    between atoms: O2D_17  and  C2C_35 
REMARK       I    between atoms: O2D_17  and  C30_56 
REMARK       I    between atoms: O1L_18  and  C1K_89 
REMARK       I    between atoms: O1L_18  and  C20_27 
REMARK       I    between atoms: C46_20  and  O47_33 
REMARK       I    between atoms: O4A_21  and  S4B_39 
REMARK       I    between atoms: N3G_22  and  C3F_46 
REMARK       I    between atoms: N3G_22  and  S3H_51 
REMARK       I    between atoms: C40_25  and  O3M_29 
REMARK       I    between atoms: O5I_26  and  S5H_47 
REMARK       I    between atoms: C53_28  and  C51_66 
REMARK       I    between atoms: O3M_29  and  C3L_61 
REMARK       I    between atoms: S17_31  and  O16_86 
REMARK       I    between atoms: O5K_34  and  S5H_47 
REMARK       I    between atoms: O1J_37  and  S1G_48 
REMARK       I    between atoms: C12_38  and  O10_70 
REMARK       I    between atoms: C13_42  and  C15_63 
REMARK       I    between atoms: C29_43  and  O2A_60 
REMARK       I    between atoms: C31_45  and  C33_81 
REMARK       I    between atoms: S5H_47  and  O5J_49 
REMARK       I    between atoms: S1G_48  and  O1H_78 
REMARK       I    between atoms: S3H_51  and  O3J_68 
REMARK       I    between atoms: O3A_54  and  C39_85 
REMARK       I    between atoms: O3A_54  and  S3B_83 
REMARK       I    between atoms: C5L_55  and  O5M_87 
REMARK       I    between atoms: C15_63  and  O16_86 
REMARK       I    between atoms: C59_71  and  O5A_75 
REMARK       I    between atoms: C33_81  and  O34_91 
REMARK       I    between atoms: S35_82  and  O34_91 
ROOT
ATOM      1  O3I NTO d 869      65.838   5.452  15.247  0.00  0.00    -0.296 OA
ATOM      2  O1I NTO d 869      56.212  -1.031   4.685  0.00  0.00    -0.296 OA
ATOM      3  O54 NTO d 869      67.294   1.299  19.088  0.00  0.00    -0.254 OA
ATOM      4  O18 NTO d 869      51.392   1.017  11.244  0.00  0.00    -0.572 OA
ATOM      5  C41 NTO d 869      65.885   0.529  13.694  0.00  0.00     0.152 C 
ATOM      6  C1B NTO d 869      55.036   2.753   5.924  0.00  0.00     0.083 C 
ATOM      7  O4G NTO d 869      68.102  -0.187  15.947  0.00  0.00    -0.348 OA
ATOM      8  N5G NTO d 869      66.675  -4.470  17.718  0.00  0.00    -0.210 NA
ATOM      9  N1F NTO d 869      56.927   1.232   5.625  0.00  0.00    -0.210 NA
ATOM     10  O3K NTO d 869      65.425   6.536  13.086  0.00  0.00    -0.296 OA
ATOM     11  C5N NTO d 869      69.348  -3.825  20.429  0.00  0.00     0.007 C 
ATOM     12  C21 NTO d 869      58.531   3.438   9.372  0.00  0.00     0.152 C 
ATOM     13  C26 NTO d 869      58.748   1.152   8.493  0.00  0.00     0.092 C 
ATOM     14  O4E NTO d 869      71.653   2.312  14.987  0.00  0.00    -0.572 OA
ATOM     15  C50 NTO d 869      67.510  -0.821  17.091  0.00  0.00     0.095 C 
ATOM     16  C49 NTO d 869      68.120   1.647  14.390  0.00  0.00     0.134 C 
ATOM     17  O2D NTO d 869      61.434   1.965  11.007  0.00  0.00    -0.348 OA
ATOM     18  O1L NTO d 869      56.735   2.502   8.094  0.00  0.00    -0.348 OA
ATOM     19  O19 NTO d 869      50.671   3.324  10.828  0.00  0.00    -0.572 OA
ATOM     20  C46 NTO d 869      67.213   2.650  13.675  0.00  0.00     0.094 C 
ATOM     21  O4A NTO d 869      69.273   2.311  14.912  0.00  0.00    -0.244 OA
ATOM     22  N3G NTO d 869      63.561   5.107  14.132  0.00  0.00    -0.210 NA
ATOM     23  O36 NTO d 869      61.996   2.798   6.687  0.00  0.00    -0.572 OA
ATOM     24  O57 NTO d 869      68.543   3.193  19.843  0.00  0.00    -0.572 OA
ATOM     25  C40 NTO d 869      66.030   1.906  13.060  0.00  0.00     0.103 C 
ATOM     26  O5I NTO d 869      64.184  -4.925  17.416  0.00  0.00    -0.296 OA
ATOM     27  C20 NTO d 869      57.754   2.171   9.048  0.00  0.00     0.103 C 
ATOM     28  C53 NTO d 869      68.558   0.773  18.678  0.00  0.00     0.067 C 
ATOM     29  O3M NTO d 869      64.851   2.682  13.304  0.00  0.00    -0.348 OA
ATOM     30  C43 NTO d 869      64.511  -0.016  13.337  0.00  0.00     0.206 C 
ATOM     31  S17 NTO d 869      51.810   2.456  11.275  0.00  0.00     0.251 S 
ATOM     32  O45 NTO d 869      63.512   0.700  13.579  0.00  0.00    -0.646 OA
ATOM     33  O47 NTO d 869      67.953   3.303  12.639  0.00  0.00    -0.390 OA
ATOM     34  O5K NTO d 869      65.517  -6.532  18.703  0.00  0.00    -0.296 OA
ATOM     35  C2C NTO d 869      60.502   2.226   9.944  0.00  0.00     0.160 C 
ATOM     36  O38 NTO d 869      64.066   4.058   6.365  0.00  0.00    -0.572 OA
ATOM     37  O1J NTO d 869      58.021   0.190   3.571  0.00  0.00    -0.296 OA
ATOM     38  C12 NTO d 869      53.776   3.013   6.755  0.00  0.00     0.089 C 
ATOM     39  S4B NTO d 869      70.446   1.921  14.191  0.00  0.00     0.252 S 
ATOM     40  O4D NTO d 869      70.468   2.609  12.858  0.00  0.00    -0.572 OA
ATOM     41  C1E NTO d 869      55.637   1.401   6.306  0.00  0.00     0.081 C 
ATOM     42  C13 NTO d 869      54.057   2.819   8.247  0.00  0.00     0.090 C 
ATOM     43  C29 NTO d 869      59.841   0.907   9.536  0.00  0.00     0.110 C 
ATOM     44  O42 NTO d 869      66.015   0.624  15.124  0.00  0.00    -0.340 OA
ATOM     45  C31 NTO d 869      63.781   2.455  10.845  0.00  0.00     0.091 C 
ATOM     46  C3F NTO d 869      63.530   4.582  12.755  0.00  0.00     0.083 C 
ATOM     47  S5H NTO d 869      65.317  -5.080  18.385  0.00  0.00     0.156 S 
ATOM     48  S1G NTO d 869      56.710   0.328   4.288  0.00  0.00     0.156 S 
ATOM     49  O5J NTO d 869      64.995  -4.347  19.653  0.00  0.00    -0.296 OA
ATOM     50  C5F NTO d 869      66.765  -3.027  17.989  0.00  0.00     0.081 C 
ATOM     51  S3H NTO d 869      64.808   6.130  14.391  0.00  0.00     0.156 S 
ATOM     52  O25 NTO d 869      56.947   5.158   8.929  0.00  0.00    -0.646 OA
ATOM     53  O1C NTO d 869      54.701   2.755   4.535  0.00  0.00    -0.391 OA
ATOM     54  O3A NTO d 869      61.125   4.246  12.822  0.00  0.00    -0.247 OA
ATOM     55  C5L NTO d 869      67.655  -2.786  19.209  0.00  0.00     0.149 C 
ATOM     56  C30 NTO d 869      62.400   3.017  11.157  0.00  0.00     0.096 C 
ATOM     57  C23 NTO d 869      57.535   4.499   9.818  0.00  0.00     0.206 C 
ATOM     58  O3E NTO d 869      60.288   2.287  13.935  0.00  0.00    -0.572 OA
ATOM     59  O14 NTO d 869      54.630   1.525   8.495  0.00  0.00    -0.349 OA
ATOM     60  O2A NTO d 869      60.825   0.026   8.992  0.00  0.00    -0.388 OA
ATOM     61  C3L NTO d 869      64.830   3.837  12.454  0.00  0.00     0.150 C 
ATOM     62  C4F NTO d 869      67.352   0.961  15.524  0.00  0.00     0.161 C 
ATOM     63  C15 NTO d 869      52.731   2.894   9.009  0.00  0.00     0.067 C 
ATOM     64  S55 NTO d 869      67.177   2.650  19.550  0.00  0.00     0.251 S 
ATOM     65  O58 NTO d 869      66.349   2.669  20.799  0.00  0.00    -0.572 OA
ATOM     66  C51 NTO d 869      68.423  -0.704  18.302  0.00  0.00     0.091 C 
ATOM     67  O56 NTO d 869      66.523   3.497  18.499  0.00  0.00    -0.572 OA
ATOM     68  O3J NTO d 869      64.311   7.362  15.090  0.00  0.00    -0.296 OA
ATOM     69  O44 NTO d 869      64.443  -1.156  12.807  0.00  0.00    -0.646 OA
ATOM     70  O10 NTO d 869      53.354   4.361   6.538  0.00  0.00    -0.390 OA
ATOM     71  C59 NTO d 869      67.321  -2.302  16.762  0.00  0.00     0.083 C 
ATOM     72  O52 NTO d 869      67.866  -1.383  19.439  0.00  0.00    -0.349 OA
ATOM     73  O27 NTO d 869      58.078  -0.082   8.216  0.00  0.00    -0.390 OA
ATOM     74  O1A NTO d 869      52.211   2.826  12.670  0.00  0.00    -0.572 OA
ATOM     75  O5A NTO d 869      66.391  -2.408  15.680  0.00  0.00    -0.391 OA
ATOM     76  O37 NTO d 869      64.145   1.629   6.707  0.00  0.00    -0.572 OA
ATOM     77  O24 NTO d 869      57.341   4.647  11.048  0.00  0.00    -0.646 OA
ATOM     78  O1H NTO d 869      55.705   0.993   3.395  0.00  0.00    -0.296 OA
ATOM     79  O22 NTO d 869      59.523   3.183  10.382  0.00  0.00    -0.340 OA
ATOM     80  O3D NTO d 869      59.221   4.470  14.252  0.00  0.00    -0.572 OA
ATOM     81  C33 NTO d 869      63.818   2.014   9.379  0.00  0.00     0.067 C 
ATOM     82  S35 NTO d 869      63.439   2.899   7.081  0.00  0.00     0.251 S 
ATOM     83  S3B NTO d 869      60.527   3.766  14.030  0.00  0.00     0.252 S 
ATOM     84  O4C NTO d 869      70.444   0.433  13.993  0.00  0.00    -0.572 OA
ATOM     85  C39 NTO d 869      62.377   3.594  12.576  0.00  0.00     0.108 C 
ATOM     86  O16 NTO d 869      52.929   2.645  10.402  0.00  0.00    -0.254 OA
ATOM     87  O5M NTO d 869      68.885  -3.516  19.110  0.00  0.00    -0.364 OA
ATOM     88  O3C NTO d 869      61.434   4.044  15.192  0.00  0.00    -0.572 OA
ATOM     89  C1K NTO d 869      55.887   1.379   7.815  0.00  0.00     0.150 C 
ATOM     90  O32 NTO d 869      64.814   3.425  11.078  0.00  0.00    -0.349 OA
ATOM     91  O34 NTO d 869      63.546   3.107   8.495  0.00  0.00    -0.254 OA
ATOM     92  H   NTO d 869      66.160   4.656  14.795  0.00  0.00     0.231 HD
ATOM     93  H   NTO d 869      56.865  -1.458   5.262  0.00  0.00     0.231 HD
ATOM     94  H   NTO d 869      66.650  -0.122  13.329  0.00  0.00     0.104 H 
ATOM     95  H   NTO d 869      55.753   3.524   6.119  0.00  0.00     0.089 H 
ATOM     96  H   NTO d 869      67.488  -4.939  18.117  0.00  0.00     0.140 HD
ATOM     97  H   NTO d 869      57.584   0.765   6.250  0.00  0.00     0.140 HD
ATOM     98  H   NTO d 869      65.751   5.748  12.623  0.00  0.00     0.231 HD
ATOM     99  H   NTO d 869      70.266  -4.371  20.366  0.00  0.00     0.066 H 
ATOM    100  H   NTO d 869      68.615  -4.418  20.935  0.00  0.00     0.066 H 
ATOM    101  H   NTO d 869      69.508  -2.917  20.972  0.00  0.00     0.066 H 
ATOM    102  H   NTO d 869      59.056   3.785   8.506  0.00  0.00     0.104 H 
ATOM    103  H   NTO d 869      59.178   1.529   7.589  0.00  0.00     0.091 H 
ATOM    104  H   NTO d 869      66.578  -0.349  17.318  0.00  0.00     0.091 H 
ATOM    105  H   NTO d 869      68.437   0.905  13.687  0.00  0.00     0.097 H 
ATOM    106  H   NTO d 869      66.859   3.378  14.374  0.00  0.00     0.091 H 
ATOM    107  H   NTO d 869      63.644   4.322  14.779  0.00  0.00     0.140 HD
ATOM    108  H   NTO d 869      66.183   1.773  12.010  0.00  0.00     0.092 H 
ATOM    109  H   NTO d 869      64.392  -5.400  16.596  0.00  0.00     0.231 HD
ATOM    110  H   NTO d 869      57.278   1.753   9.909  0.00  0.00     0.092 H 
ATOM    111  H   NTO d 869      69.257   0.870  19.482  0.00  0.00     0.080 H 
ATOM    112  H   NTO d 869      68.901   1.319  17.824  0.00  0.00     0.080 H 
ATOM    113  H   NTO d 869      68.275   2.641  12.006  0.00  0.00     0.210 HD
ATOM    114  H   NTO d 869      65.726  -7.016  17.887  0.00  0.00     0.231 HD
ATOM    115  H   NTO d 869      61.009   2.638   9.097  0.00  0.00     0.133 H 
ATOM    116  H   NTO d 869      58.664  -0.241   4.155  0.00  0.00     0.231 HD
ATOM    117  H   NTO d 869      53.016   2.322   6.455  0.00  0.00     0.091 H 
ATOM    118  H   NTO d 869      54.966   0.617   6.023  0.00  0.00     0.076 H 
ATOM    119  H   NTO d 869      54.740   3.579   8.566  0.00  0.00     0.090 H 
ATOM    120  H   NTO d 869      59.397   0.465  10.403  0.00  0.00     0.094 H 
ATOM    121  H   NTO d 869      63.961   1.623  11.493  0.00  0.00     0.090 H 
ATOM    122  H   NTO d 869      63.404   5.413  12.091  0.00  0.00     0.076 H 
ATOM    123  H   NTO d 869      64.864  -3.406  19.458  0.00  0.00     0.231 HD
ATOM    124  H   NTO d 869      65.789  -2.642  18.196  0.00  0.00     0.076 H 
ATOM    125  H   NTO d 869      54.051   2.057   4.358  0.00  0.00     0.210 HD
ATOM    126  H   NTO d 869      67.141  -3.162  20.068  0.00  0.00     0.131 H 
ATOM    127  H   NTO d 869      62.161   3.811  10.481  0.00  0.00     0.091 H 
ATOM    128  H   NTO d 869      61.223   0.431   8.206  0.00  0.00     0.210 HD
ATOM    129  H   NTO d 869      65.689   4.452  12.626  0.00  0.00     0.131 H 
ATOM    130  H   NTO d 869      67.245   1.632  16.350  0.00  0.00     0.133 H 
ATOM    131  H   NTO d 869      52.058   2.161   8.614  0.00  0.00     0.080 H 
ATOM    132  H   NTO d 869      52.323   3.876   8.890  0.00  0.00     0.080 H 
ATOM    133  H   NTO d 869      69.367  -1.140  18.050  0.00  0.00     0.090 H 
ATOM    134  H   NTO d 869      65.052   7.968  15.243  0.00  0.00     0.231 HD
ATOM    135  H   NTO d 869      54.057   4.969   6.815  0.00  0.00     0.210 HD
ATOM    136  H   NTO d 869      68.256  -2.743  16.489  0.00  0.00     0.089 H 
ATOM    137  H   NTO d 869      57.686  -0.428   9.034  0.00  0.00     0.210 HD
ATOM    138  H   NTO d 869      65.548  -2.005  15.937  0.00  0.00     0.210 HD
ATOM    139  H   NTO d 869      54.861   1.078   3.865  0.00  0.00     0.231 HD
ATOM    140  H   NTO d 869      63.083   1.253   9.226  0.00  0.00     0.080 H 
ATOM    141  H   NTO d 869      64.800   1.646   9.164  0.00  0.00     0.080 H 
ATOM    142  H   NTO d 869      62.491   2.795  13.280  0.00  0.00     0.092 H 
ATOM    143  H   NTO d 869      56.340   0.466   8.139  0.00  0.00     0.131 H 
ENDROOT
TORSDOF 46
ENDMDL
MODEL 4
REMARK VINA RESULT:     -10.7      2.612      3.216
REMARK  0 active torsions:
REMARK  status: ('A' for Active; 'I' for Inactive)
REMARK       I    between atoms: O3I_1  and  S3H_51 
REMARK       I    between atoms: O1I_2  and  S1G_48 
REMARK       I    between atoms: O54_3  and  C53_28 
REMARK       I    between atoms: O54_3  and  S55_64 
REMARK       I    between atoms: C41_5  and  C43_30 
REMARK       I    between atoms: C1B_6  and  O1C_53 
REMARK       I    between atoms: O4G_7  and  C4F_62 
REMARK       I    between atoms: O4G_7  and  C50_15 
REMARK       I    between atoms: N5G_8  and  C5F_50 
REMARK       I    between atoms: N5G_8  and  S5H_47 
REMARK       I    between atoms: N1F_9  and  C1E_41 
REMARK       I    between atoms: N1F_9  and  S1G_48 
REMARK       I    between atoms: O3K_10  and  S3H_51 
REMARK       I    between atoms: C5N_11  and  O5M_87 
REMARK       I    between atoms: C21_12  and  C23_57 
REMARK       I    between atoms: C26_13  and  O27_73 
REMARK       I    between atoms: C49_16  and  O4A_21 
REMARK       I    between atoms: O2D_17  and  C2C_35 
REMARK       I    between atoms: O2D_17  and  C30_56 
REMARK       I    between atoms: O1L_18  and  C1K_89 
REMARK       I    between atoms: O1L_18  and  C20_27 
REMARK       I    between atoms: C46_20  and  O47_33 
REMARK       I    between atoms: O4A_21  and  S4B_39 
REMARK       I    between atoms: N3G_22  and  C3F_46 
REMARK       I    between atoms: N3G_22  and  S3H_51 
REMARK       I    between atoms: C40_25  and  O3M_29 
REMARK       I    between atoms: O5I_26  and  S5H_47 
REMARK       I    between atoms: C53_28  and  C51_66 
REMARK       I    between atoms: O3M_29  and  C3L_61 
REMARK       I    between atoms: S17_31  and  O16_86 
REMARK       I    between atoms: O5K_34  and  S5H_47 
REMARK       I    between atoms: O1J_37  and  S1G_48 
REMARK       I    between atoms: C12_38  and  O10_70 
REMARK       I    between atoms: C13_42  and  C15_63 
REMARK       I    between atoms: C29_43  and  O2A_60 
REMARK       I    between atoms: C31_45  and  C33_81 
REMARK       I    between atoms: S5H_47  and  O5J_49 
REMARK       I    between atoms: S1G_48  and  O1H_78 
REMARK       I    between atoms: S3H_51  and  O3J_68 
REMARK       I    between atoms: O3A_54  and  C39_85 
REMARK       I    between atoms: O3A_54  and  S3B_83 
REMARK       I    between atoms: C5L_55  and  O5M_87 
REMARK       I    between atoms: C15_63  and  O16_86 
REMARK       I    between atoms: C59_71  and  O5A_75 
REMARK       I    between atoms: C33_81  and  O34_91 
REMARK       I    between atoms: S35_82  and  O34_91 
ROOT
ATOM      1  O3I NTO d 869      65.409   5.198  14.433  0.00  0.00    -0.296 OA
ATOM      2  O1I NTO d 869      53.846   2.246   4.244  0.00  0.00    -0.296 OA
ATOM      3  O54 NTO d 869      67.418   0.061  16.355  0.00  0.00    -0.254 OA
ATOM      4  O18 NTO d 869      50.356   1.850  11.867  0.00  0.00    -0.572 OA
ATOM      5  C41 NTO d 869      65.033   1.069  11.359  0.00  0.00     0.152 C 
ATOM      6  C1B NTO d 869      53.022   5.367   6.856  0.00  0.00     0.083 C 
ATOM      7  O4G NTO d 869      67.601  -0.276  12.809  0.00  0.00    -0.348 OA
ATOM      8  N5G NTO d 869      66.398  -4.949  13.290  0.00  0.00    -0.210 NA
ATOM      9  N1F NTO d 869      54.783   4.094   5.734  0.00  0.00    -0.210 NA
ATOM     10  O3K NTO d 869      64.641   6.920  12.865  0.00  0.00    -0.296 OA
ATOM     11  C5N NTO d 869      69.535  -5.146  15.532  0.00  0.00     0.007 C 
ATOM     12  C21 NTO d 869      57.102   4.993   9.645  0.00  0.00     0.152 C 
ATOM     13  C26 NTO d 869      57.091   3.133   8.036  0.00  0.00     0.092 C 
ATOM     14  O4E NTO d 869      70.988   2.517  12.104  0.00  0.00    -0.572 OA
ATOM     15  C50 NTO d 869      67.209  -1.272  13.765  0.00  0.00     0.095 C 
ATOM     16  C49 NTO d 869      67.388   1.968  11.970  0.00  0.00     0.134 C 
ATOM     17  O2D NTO d 869      60.211   3.161  10.148  0.00  0.00    -0.348 OA
ATOM     18  O1L NTO d 869      55.079   4.471   8.475  0.00  0.00    -0.348 OA
ATOM     19  O19 NTO d 869      49.637   4.139  12.375  0.00  0.00    -0.572 OA
ATOM     20  C46 NTO d 869      66.396   3.120  11.803  0.00  0.00     0.094 C 
ATOM     21  O4A NTO d 869      68.635   2.461  12.464  0.00  0.00    -0.244 OA
ATOM     22  N3G NTO d 869      62.959   5.164  13.698  0.00  0.00    -0.210 NA
ATOM     23  O36 NTO d 869      60.003   5.391   6.320  0.00  0.00    -0.572 OA
ATOM     24  O57 NTO d 869      68.837   1.640  17.455  0.00  0.00    -0.572 OA
ATOM     25  C40 NTO d 869      65.100   2.581  11.201  0.00  0.00     0.103 C 
ATOM     26  O5I NTO d 869      63.881  -5.363  13.309  0.00  0.00    -0.296 OA
ATOM     27  C20 NTO d 869      56.244   3.878   9.066  0.00  0.00     0.103 C 
ATOM     28  C53 NTO d 869      68.571  -0.257  15.574  0.00  0.00     0.067 C 
ATOM     29  O3M NTO d 869      64.007   3.194  11.896  0.00  0.00    -0.348 OA
ATOM     30  C43 NTO d 869      63.602   0.626  11.095  0.00  0.00     0.206 C 
ATOM     31  S17 NTO d 869      50.813   3.212  12.296  0.00  0.00     0.251 S 
ATOM     32  O45 NTO d 869      62.685   1.188  11.737  0.00  0.00    -0.646 OA
ATOM     33  O47 NTO d 869      66.954   4.103  10.925  0.00  0.00    -0.390 OA
ATOM     34  O5K NTO d 869      65.379  -7.259  13.729  0.00  0.00    -0.296 OA
ATOM     35  C2C NTO d 869      59.109   3.727   9.418  0.00  0.00     0.160 C 
ATOM     36  O38 NTO d 869      62.015   6.756   6.065  0.00  0.00    -0.572 OA
ATOM     37  O1J NTO d 869      55.456   3.827   3.290  0.00  0.00    -0.296 OA
ATOM     38  C12 NTO d 869      51.941   5.295   7.939  0.00  0.00     0.089 C 
ATOM     39  S4B NTO d 869      69.646   2.371  11.455  0.00  0.00     0.252 S 
ATOM     40  O4D NTO d 869      69.446   3.461  10.444  0.00  0.00    -0.572 OA
ATOM     41  C1E NTO d 869      53.644   3.985   6.654  0.00  0.00     0.081 C 
ATOM     42  C13 NTO d 869      52.483   4.630   9.206  0.00  0.00     0.090 C 
ATOM     43  C29 NTO d 869      58.348   2.595   8.723  0.00  0.00     0.110 C 
ATOM     44  O42 NTO d 869      65.422   0.690  12.691  0.00  0.00    -0.340 OA
ATOM     45  C31 NTO d 869      62.503   3.755   9.736  0.00  0.00     0.091 C 
ATOM     46  C3F NTO d 869      62.663   5.123  12.254  0.00  0.00     0.083 C 
ATOM     47  S5H NTO d 869      65.166  -5.790  13.952  0.00  0.00     0.156 S 
ATOM     48  S1G NTO d 869      54.301   3.676   4.235  0.00  0.00     0.156 S 
ATOM     49  O5J NTO d 869      65.100  -5.528  15.427  0.00  0.00    -0.296 OA
ATOM     50  C5F NTO d 869      66.576  -3.675  14.002  0.00  0.00     0.081 C 
ATOM     51  S3H NTO d 869      64.260   6.086  14.051  0.00  0.00     0.156 S 
ATOM     52  O25 NTO d 869      55.514   6.707  10.090  0.00  0.00    -0.646 OA
ATOM     53  O1C NTO d 869      52.441   5.817   5.630  0.00  0.00    -0.391 OA
ATOM     54  O3A NTO d 869      60.301   4.702  12.639  0.00  0.00    -0.247 OA
ATOM     55  C5L NTO d 869      67.680  -3.820  15.051  0.00  0.00     0.149 C 
ATOM     56  C30 NTO d 869      61.218   4.136  10.461  0.00  0.00     0.096 C 
ATOM     57  C23 NTO d 869      56.235   5.812  10.589  0.00  0.00     0.206 C 
ATOM     58  O3E NTO d 869      59.625   2.459  13.174  0.00  0.00    -0.572 OA
ATOM     59  O14 NTO d 869      53.054   3.346   8.904  0.00  0.00    -0.349 OA
ATOM     60  O2A NTO d 869      59.191   1.976   7.750  0.00  0.00    -0.388 OA
ATOM     61  C3L NTO d 869      63.865   4.563  11.495  0.00  0.00     0.150 C 
ATOM     62  C4F NTO d 869      66.819   0.921  12.931  0.00  0.00     0.161 C 
ATOM     63  C15 NTO d 869      51.320   4.404  10.175  0.00  0.00     0.067 C 
ATOM     64  S55 NTO d 869      67.425   1.179  17.251  0.00  0.00     0.251 S 
ATOM     65  O58 NTO d 869      66.839   0.757  18.564  0.00  0.00    -0.572 OA
ATOM     66  C51 NTO d 869      68.329  -1.531  14.761  0.00  0.00     0.091 C 
ATOM     67  O56 NTO d 869      66.616   2.303  16.676  0.00  0.00    -0.572 OA
ATOM     68  O3J NTO d 869      63.934   7.000  15.195  0.00  0.00    -0.296 OA
ATOM     69  O44 NTO d 869      63.406  -0.276  10.240  0.00  0.00    -0.646 OA
ATOM     70  O10 NTO d 869      51.525   6.625   8.259  0.00  0.00    -0.390 OA
ATOM     71  C59 NTO d 869      66.920  -2.566  13.006  0.00  0.00     0.083 C 
ATOM     72  O52 NTO d 869      67.968  -2.566  15.690  0.00  0.00    -0.349 OA
ATOM     73  O27 NTO d 869      56.348   2.039   7.492  0.00  0.00    -0.390 OA
ATOM     74  O1A NTO d 869      51.471   3.113  13.639  0.00  0.00    -0.572 OA
ATOM     75  O5A NTO d 869      65.807  -2.341  12.135  0.00  0.00    -0.391 OA
ATOM     76  O37 NTO d 869      62.086   4.355   5.564  0.00  0.00    -0.572 OA
ATOM     77  O24 NTO d 869      56.271   5.539  11.812  0.00  0.00    -0.646 OA
ATOM     78  O1H NTO d 869      53.171   4.564   3.810  0.00  0.00    -0.296 OA
ATOM     79  O22 NTO d 869      58.253   4.451  10.316  0.00  0.00    -0.340 OA
ATOM     80  O3D NTO d 869      58.696   4.377  14.382  0.00  0.00    -0.572 OA
ATOM     81  C33 NTO d 869      62.260   3.825   8.226  0.00  0.00     0.067 C 
ATOM     82  S35 NTO d 869      61.496   5.405   6.458  0.00  0.00     0.251 S 
ATOM     83  S3B NTO d 869      59.919   3.830  13.708  0.00  0.00     0.252 S 
ATOM     84  O4C NTO d 869      69.566   1.033  10.781  0.00  0.00    -0.572 OA
ATOM     85  C39 NTO d 869      61.469   4.210  11.970  0.00  0.00     0.108 C 
ATOM     86  O16 NTO d 869      51.760   3.716  11.348  0.00  0.00    -0.254 OA
ATOM     87  O5M NTO d 869      68.849  -4.435  14.497  0.00  0.00    -0.364 OA
ATOM     88  O3C NTO d 869      61.029   3.740  14.712  0.00  0.00    -0.572 OA
ATOM     89  C1K NTO d 869      54.162   3.475   7.999  0.00  0.00     0.150 C 
ATOM     90  O32 NTO d 869      63.588   4.628  10.087  0.00  0.00    -0.349 OA
ATOM     91  O34 NTO d 869      61.863   5.138   7.818  0.00  0.00    -0.254 OA
ATOM     92  H   NTO d 869      65.621   4.607  13.694  0.00  0.00     0.231 HD
ATOM     93  H   NTO d 869      54.580   1.675   4.520  0.00  0.00     0.231 HD
ATOM     94  H   NTO d 869      65.701   0.601  10.667  0.00  0.00     0.104 H 
ATOM     95  H   NTO d 869      53.784   6.054   7.162  0.00  0.00     0.089 H 
ATOM     96  H   NTO d 869      67.255  -5.497  13.358  0.00  0.00     0.140 HD
ATOM     97  H   NTO d 869      55.529   3.470   6.040  0.00  0.00     0.140 HD
ATOM     98  H   NTO d 869      64.856   6.340  12.117  0.00  0.00     0.231 HD
ATOM     99  H   NTO d 869      70.410  -5.609  15.127  0.00  0.00     0.066 H 
ATOM    100  H   NTO d 869      68.889  -5.897  15.937  0.00  0.00     0.066 H 
ATOM    101  H   NTO d 869      69.817  -4.464  16.307  0.00  0.00     0.066 H 
ATOM    102  H   NTO d 869      57.472   5.623   8.863  0.00  0.00     0.104 H 
ATOM    103  H   NTO d 869      57.361   3.802   7.245  0.00  0.00     0.091 H 
ATOM    104  H   NTO d 869      66.346  -0.933  14.300  0.00  0.00     0.091 H 
ATOM    105  H   NTO d 869      67.551   1.512  11.016  0.00  0.00     0.097 H 
ATOM    106  H   NTO d 869      66.194   3.564  12.755  0.00  0.00     0.091 H 
ATOM    107  H   NTO d 869      63.135   4.213  14.022  0.00  0.00     0.140 HD
ATOM    108  H   NTO d 869      65.056   2.808  10.156  0.00  0.00     0.092 H 
ATOM    109  H   NTO d 869      63.924  -5.533  12.356  0.00  0.00     0.231 HD
ATOM    110  H   NTO d 869      55.920   3.183   9.812  0.00  0.00     0.092 H 
ATOM    111  H   NTO d 869      69.407  -0.407  16.224  0.00  0.00     0.080 H 
ATOM    112  H   NTO d 869      68.769   0.551  14.901  0.00  0.00     0.080 H 
ATOM    113  H   NTO d 869      67.136   3.699  10.062  0.00  0.00     0.210 HD
ATOM    114  H   NTO d 869      65.423  -7.439  12.777  0.00  0.00     0.231 HD
ATOM    115  H   NTO d 869      59.465   4.412   8.678  0.00  0.00     0.133 H 
ATOM    116  H   NTO d 869      56.182   3.249   3.571  0.00  0.00     0.231 HD
ATOM    117  H   NTO d 869      51.121   4.717   7.570  0.00  0.00     0.091 H 
ATOM    118  H   NTO d 869      52.910   3.317   6.254  0.00  0.00     0.076 H 
ATOM    119  H   NTO d 869      53.233   5.264   9.629  0.00  0.00     0.090 H 
ATOM    120  H   NTO d 869      58.056   1.876   9.461  0.00  0.00     0.094 H 
ATOM    121  H   NTO d 869      62.773   2.763  10.029  0.00  0.00     0.090 H 
ATOM    122  H   NTO d 869      62.443   6.121  11.937  0.00  0.00     0.076 H 
ATOM    123  H   NTO d 869      64.963  -4.581  15.581  0.00  0.00     0.231 HD
ATOM    124  H   NTO d 869      65.665  -3.413  14.498  0.00  0.00     0.076 H 
ATOM    125  H   NTO d 869      51.750   5.194   5.352  0.00  0.00     0.210 HD
ATOM    126  H   NTO d 869      67.319  -4.476  15.816  0.00  0.00     0.131 H 
ATOM    127  H   NTO d 869      60.882   5.100  10.140  0.00  0.00     0.091 H 
ATOM    128  H   NTO d 869      59.452   2.632   7.084  0.00  0.00     0.210 HD
ATOM    129  H   NTO d 869      64.758   5.115  11.702  0.00  0.00     0.131 H 
ATOM    130  H   NTO d 869      66.883   1.277  13.938  0.00  0.00     0.133 H 
ATOM    131  H   NTO d 869      50.566   3.820   9.690  0.00  0.00     0.080 H 
ATOM    132  H   NTO d 869      50.926   5.356  10.464  0.00  0.00     0.080 H 
ATOM    133  H   NTO d 869      69.199  -1.827  14.213  0.00  0.00     0.090 H 
ATOM    134  H   NTO d 869      64.707   7.546  15.404  0.00  0.00     0.231 HD
ATOM    135  H   NTO d 869      52.284   7.130   8.591  0.00  0.00     0.210 HD
ATOM    136  H   NTO d 869      67.778  -2.861  12.437  0.00  0.00     0.089 H 
ATOM    137  H   NTO d 869      56.101   1.429   8.205  0.00  0.00     0.210 HD
ATOM    138  H   NTO d 869      65.036  -2.074  12.660  0.00  0.00     0.210 HD
ATOM    139  H   NTO d 869      52.428   4.461   4.426  0.00  0.00     0.231 HD
ATOM    140  H   NTO d 869      61.488   3.132   7.965  0.00  0.00     0.080 H 
ATOM    141  H   NTO d 869      63.176   3.582   7.728  0.00  0.00     0.080 H 
ATOM    142  H   NTO d 869      61.686   3.229  12.337  0.00  0.00     0.092 H 
ATOM    143  H   NTO d 869      54.641   2.522   7.915  0.00  0.00     0.131 H 
ENDROOT
TORSDOF 46
ENDMDL
MODEL 5
REMARK VINA RESULT:      -9.7      2.238      2.812
REMARK  0 active torsions:
REMARK  status: ('A' for Active; 'I' for Inactive)
REMARK       I    between atoms: O3I_1  and  S3H_51 
REMARK       I    between atoms: O1I_2  and  S1G_48 
REMARK       I    between atoms: O54_3  and  C53_28 
REMARK       I    between atoms: O54_3  and  S55_64 
REMARK       I    between atoms: C41_5  and  C43_30 
REMARK       I    between atoms: C1B_6  and  O1C_53 
REMARK       I    between atoms: O4G_7  and  C4F_62 
REMARK       I    between atoms: O4G_7  and  C50_15 
REMARK       I    between atoms: N5G_8  and  C5F_50 
REMARK       I    between atoms: N5G_8  and  S5H_47 
REMARK       I    between atoms: N1F_9  and  C1E_41 
REMARK       I    between atoms: N1F_9  and  S1G_48 
REMARK       I    between atoms: O3K_10  and  S3H_51 
REMARK       I    between atoms: C5N_11  and  O5M_87 
REMARK       I    between atoms: C21_12  and  C23_57 
REMARK       I    between atoms: C26_13  and  O27_73 
REMARK       I    between atoms: C49_16  and  O4A_21 
REMARK       I    between atoms: O2D_17  and  C2C_35 
REMARK       I    between atoms: O2D_17  and  C30_56 
REMARK       I    between atoms: O1L_18  and  C1K_89 
REMARK       I    between atoms: O1L_18  and  C20_27 
REMARK       I    between atoms: C46_20  and  O47_33 
REMARK       I    between atoms: O4A_21  and  S4B_39 
REMARK       I    between atoms: N3G_22  and  C3F_46 
REMARK       I    between atoms: N3G_22  and  S3H_51 
REMARK       I    between atoms: C40_25  and  O3M_29 
REMARK       I    between atoms: O5I_26  and  S5H_47 
REMARK       I    between atoms: C53_28  and  C51_66 
REMARK       I    between atoms: O3M_29  and  C3L_61 
REMARK       I    between atoms: S17_31  and  O16_86 
REMARK       I    between atoms: O5K_34  and  S5H_47 
REMARK       I    between atoms: O1J_37  and  S1G_48 
REMARK       I    between atoms: C12_38  and  O10_70 
REMARK       I    between atoms: C13_42  and  C15_63 
REMARK       I    between atoms: C29_43  and  O2A_60 
REMARK       I    between atoms: C31_45  and  C33_81 
REMARK       I    between atoms: S5H_47  and  O5J_49 
REMARK       I    between atoms: S1G_48  and  O1H_78 
REMARK       I    between atoms: S3H_51  and  O3J_68 
REMARK       I    between atoms: O3A_54  and  C39_85 
REMARK       I    between atoms: O3A_54  and  S3B_83 
REMARK       I    between atoms: C5L_55  and  O5M_87 
REMARK       I    between atoms: C15_63  and  O16_86 
REMARK       I    between atoms: C59_71  and  O5A_75 
REMARK       I    between atoms: C33_81  and  O34_91 
REMARK       I    between atoms: S35_82  and  O34_91 
ROOT
ATOM      1  O3I NTO d 869      66.345   5.863  16.060  0.00  0.00    -0.296 OA
ATOM      2  O1I NTO d 869      59.311  -0.715   3.671  0.00  0.00    -0.296 OA
ATOM      3  O54 NTO d 869      66.887   1.747  20.169  0.00  0.00    -0.254 OA
ATOM      4  O18 NTO d 869      53.150   1.406   8.960  0.00  0.00    -0.572 OA
ATOM      5  C41 NTO d 869      66.721   0.925  14.605  0.00  0.00     0.152 C 
ATOM      6  C1B NTO d 869      57.900   3.084   4.578  0.00  0.00     0.083 C 
ATOM      7  O4G NTO d 869      68.374   0.229  17.305  0.00  0.00    -0.348 OA
ATOM      8  N5G NTO d 869      66.571  -4.034  18.751  0.00  0.00    -0.210 NA
ATOM      9  N1F NTO d 869      59.805   1.557   4.725  0.00  0.00    -0.210 NA
ATOM     10  O3K NTO d 869      66.431   6.926  13.851  0.00  0.00    -0.296 OA
ATOM     11  C5N NTO d 869      68.570  -3.366  21.986  0.00  0.00     0.007 C 
ATOM     12  C21 NTO d 869      60.535   3.799   8.714  0.00  0.00     0.152 C 
ATOM     13  C26 NTO d 869      60.936   1.504   7.929  0.00  0.00     0.092 C 
ATOM     14  O4E NTO d 869      72.059   2.713  17.142  0.00  0.00    -0.572 OA
ATOM     15  C50 NTO d 869      67.539  -0.394  18.292  0.00  0.00     0.095 C 
ATOM     16  C49 NTO d 869      68.747   2.047  15.774  0.00  0.00     0.134 C 
ATOM     17  O2D NTO d 869      62.992   2.339  10.973  0.00  0.00    -0.348 OA
ATOM     18  O1L NTO d 869      59.069   2.852   7.075  0.00  0.00    -0.348 OA
ATOM     19  O19 NTO d 869      52.548   3.710   8.371  0.00  0.00    -0.572 OA
ATOM     20  C46 NTO d 869      68.028   3.043  14.864  0.00  0.00     0.094 C 
ATOM     21  O4A NTO d 869      69.757   2.714  16.535  0.00  0.00    -0.244 OA
ATOM     22  N3G NTO d 869      64.375   5.510  14.466  0.00  0.00    -0.210 NA
ATOM     23  O36 NTO d 869      64.512   3.127   6.882  0.00  0.00    -0.572 OA
ATOM     24  O57 NTO d 869      67.942   3.647  21.167  0.00  0.00    -0.572 OA
ATOM     25  C40 NTO d 869      67.010   2.295  14.007  0.00  0.00     0.103 C 
ATOM     26  O5I NTO d 869      64.209  -4.490  17.902  0.00  0.00    -0.296 OA
ATOM     27  C20 NTO d 869      59.847   2.530   8.237  0.00  0.00     0.103 C 
ATOM     28  C53 NTO d 869      68.209   1.216  20.059  0.00  0.00     0.067 C 
ATOM     29  O3M NTO d 869      65.809   3.075  13.972  0.00  0.00    -0.348 OA
ATOM     30  C43 NTO d 869      65.461   0.378  13.953  0.00  0.00     0.206 C 
ATOM     31  S17 NTO d 869      53.555   2.845   9.071  0.00  0.00     0.251 S 
ATOM     32  O45 NTO d 869      64.436   1.097  13.959  0.00  0.00    -0.646 OA
ATOM     33  O47 NTO d 869      68.984   3.685  14.014  0.00  0.00    -0.390 OA
ATOM     34  O5K NTO d 869      65.214  -6.085  19.471  0.00  0.00    -0.296 OA
ATOM     35  C2C NTO d 869      62.323   2.590   9.726  0.00  0.00     0.160 C 
ATOM     36  O38 NTO d 869      66.606   4.381   7.021  0.00  0.00    -0.572 OA
ATOM     37  O1J NTO d 869      61.328   0.493   2.979  0.00  0.00    -0.296 OA
ATOM     38  C12 NTO d 869      56.487   3.353   5.102  0.00  0.00     0.089 C 
ATOM     39  S4B NTO d 869      71.059   2.315  16.099  0.00  0.00     0.252 S 
ATOM     40  O4D NTO d 869      71.383   2.990  14.798  0.00  0.00    -0.572 OA
ATOM     41  C1E NTO d 869      58.396   1.734   5.098  0.00  0.00     0.081 C 
ATOM     42  C13 NTO d 869      56.426   3.174   6.620  0.00  0.00     0.090 C 
ATOM     43  C29 NTO d 869      61.766   1.268   9.193  0.00  0.00     0.110 C 
ATOM     44  O42 NTO d 869      66.528   1.033  16.026  0.00  0.00    -0.340 OA
ATOM     45  C31 NTO d 869      65.317   2.824  11.338  0.00  0.00     0.091 C 
ATOM     46  C3F NTO d 869      64.652   4.971  13.122  0.00  0.00     0.083 C 
ATOM     47  S5H NTO d 869      65.096  -4.636  19.102  0.00  0.00     0.156 S 
ATOM     48  S1G NTO d 869      59.890   0.639   3.382  0.00  0.00     0.156 S 
ATOM     49  O5J NTO d 869      64.500  -3.889  20.258  0.00  0.00    -0.296 OA
ATOM     50  C5F NTO d 869      66.603  -2.589  19.021  0.00  0.00     0.081 C 
ATOM     51  S3H NTO d 869      65.536   6.534  14.989  0.00  0.00     0.156 S 
ATOM     52  O25 NTO d 869      59.097   5.516   7.912  0.00  0.00    -0.646 OA
ATOM     53  O1C NTO d 869      57.886   3.072   3.148  0.00  0.00    -0.391 OA
ATOM     54  O3A NTO d 869      62.292   4.638  12.651  0.00  0.00    -0.247 OA
ATOM     55  C5L NTO d 869      67.198  -2.337  20.408  0.00  0.00     0.149 C 
ATOM     56  C30 NTO d 869      63.904   3.391  11.327  0.00  0.00     0.096 C 
ATOM     57  C23 NTO d 869      59.469   4.865   8.916  0.00  0.00     0.206 C 
ATOM     58  O3E NTO d 869      61.220   2.692  13.567  0.00  0.00    -0.572 OA
ATOM     59  O14 NTO d 869      56.924   1.882   7.003  0.00  0.00    -0.349 OA
ATOM     60  O2A NTO d 869      62.844   0.380   8.892  0.00  0.00    -0.388 OA
ATOM     61  C3L NTO d 869      65.983   4.221  13.128  0.00  0.00     0.150 C 
ATOM     62  C4F NTO d 869      67.742   1.373  16.712  0.00  0.00     0.161 C 
ATOM     63  C15 NTO d 869      54.963   3.259   7.065  0.00  0.00     0.067 C 
ATOM     64  S55 NTO d 869      66.674   3.103  20.580  0.00  0.00     0.251 S 
ATOM     65  O58 NTO d 869      65.587   3.136  21.612  0.00  0.00    -0.572 OA
ATOM     66  C51 NTO d 869      68.157  -0.265  19.676  0.00  0.00     0.091 C 
ATOM     67  O56 NTO d 869      66.275   3.940  19.401  0.00  0.00    -0.572 OA
ATOM     68  O3J NTO d 869      64.899   7.773  15.546  0.00  0.00    -0.296 OA
ATOM     69  O44 NTO d 869      65.509  -0.767  13.433  0.00  0.00    -0.646 OA
ATOM     70  O10 NTO d 869      56.129   4.700   4.782  0.00  0.00    -0.390 OA
ATOM     71  C59 NTO d 869      67.422  -1.877  17.944  0.00  0.00     0.083 C 
ATOM     72  O52 NTO d 869      67.356  -0.932  20.666  0.00  0.00    -0.349 OA
ATOM     73  O27 NTO d 869      60.341   0.268   7.521  0.00  0.00    -0.390 OA
ATOM     74  O1A NTO d 869      53.634   3.229  10.517  0.00  0.00    -0.572 OA
ATOM     75  O5A NTO d 869      66.759  -1.993  16.681  0.00  0.00    -0.391 OA
ATOM     76  O37 NTO d 869      66.598   1.956   7.395  0.00  0.00    -0.572 OA
ATOM     77  O24 NTO d 869      59.004   5.026  10.070  0.00  0.00    -0.646 OA
ATOM     78  O1H NTO d 869      59.114   1.297   2.280  0.00  0.00    -0.296 OA
ATOM     79  O22 NTO d 869      61.274   3.552   9.924  0.00  0.00    -0.340 OA
ATOM     80  O3D NTO d 869      60.117   4.879  13.615  0.00  0.00    -0.572 OA
ATOM     81  C33 NTO d 869      65.681   2.369   9.921  0.00  0.00     0.067 C 
ATOM     82  S35 NTO d 869      65.831   3.230   7.589  0.00  0.00     0.251 S 
ATOM     83  S3B NTO d 869      61.436   4.171  13.699  0.00  0.00     0.252 S 
ATOM     84  O4C NTO d 869      71.097   0.826  15.920  0.00  0.00    -0.572 OA
ATOM     85  C39 NTO d 869      63.564   3.982  12.699  0.00  0.00     0.108 C 
ATOM     86  O16 NTO d 869      54.843   3.024   8.469  0.00  0.00    -0.254 OA
ATOM     87  O5M NTO d 869      68.415  -3.069  20.595  0.00  0.00    -0.364 OA
ATOM     88  O3C NTO d 869      62.061   4.460  15.031  0.00  0.00    -0.572 OA
ATOM     89  C1K NTO d 869      58.300   1.728   6.624  0.00  0.00     0.150 C 
ATOM     90  O32 NTO d 869      66.275   3.795  11.788  0.00  0.00    -0.349 OA
ATOM     91  O34 NTO d 869      65.617   3.452   8.989  0.00  0.00    -0.254 OA
ATOM     92  H   NTO d 869      66.757   5.062  15.700  0.00  0.00     0.231 HD
ATOM     93  H   NTO d 869      59.817  -1.137   4.383  0.00  0.00     0.231 HD
ATOM     94  H   NTO d 869      67.547   0.269  14.427  0.00  0.00     0.104 H 
ATOM     95  H   NTO d 869      58.558   3.855   4.921  0.00  0.00     0.089 H 
ATOM     96  H   NTO d 869      67.272  -4.501  19.327  0.00  0.00     0.140 HD
ATOM     97  H   NTO d 869      60.304   1.096   5.486  0.00  0.00     0.140 HD
ATOM     98  H   NTO d 869      66.850   6.132  13.481  0.00  0.00     0.231 HD
ATOM     99  H   NTO d 869      69.476  -3.913  22.136  0.00  0.00     0.066 H 
ATOM    100  H   NTO d 869      67.740  -3.952  22.320  0.00  0.00     0.066 H 
ATOM    101  H   NTO d 869      68.608  -2.453  22.543  0.00  0.00     0.066 H 
ATOM    102  H   NTO d 869      61.242   4.137   7.986  0.00  0.00     0.104 H 
ATOM    103  H   NTO d 869      61.559   1.871   7.141  0.00  0.00     0.091 H 
ATOM    104  H   NTO d 869      66.580   0.082  18.300  0.00  0.00     0.091 H 
ATOM    105  H   NTO d 869      69.212   1.297  15.167  0.00  0.00     0.097 H 
ATOM    106  H   NTO d 869      67.528   3.779  15.458  0.00  0.00     0.091 H 
ATOM    107  H   NTO d 869      64.308   4.731  15.122  0.00  0.00     0.140 HD
ATOM    108  H   NTO d 869      67.394   2.151  13.019  0.00  0.00     0.092 H 
ATOM    109  H   NTO d 869      64.595  -4.973  17.155  0.00  0.00     0.231 HD
ATOM    110  H   NTO d 869      59.187   2.121   8.974  0.00  0.00     0.092 H 
ATOM    111  H   NTO d 869      68.710   1.320  20.998  0.00  0.00     0.080 H 
ATOM    112  H   NTO d 869      68.737   1.752  19.298  0.00  0.00     0.080 H 
ATOM    113  H   NTO d 869      69.437   3.017  13.475  0.00  0.00     0.210 HD
ATOM    114  H   NTO d 869      65.599  -6.577  18.728  0.00  0.00     0.231 HD
ATOM    115  H   NTO d 869      63.009   2.993   9.011  0.00  0.00     0.133 H 
ATOM    116  H   NTO d 869      61.823   0.067   3.696  0.00  0.00     0.231 HD
ATOM    117  H   NTO d 869      55.812   2.660   4.646  0.00  0.00     0.091 H 
ATOM    118  H   NTO d 869      57.802   0.948   4.679  0.00  0.00     0.076 H 
ATOM    119  H   NTO d 869      57.022   3.936   7.077  0.00  0.00     0.090 H 
ATOM    120  H   NTO d 869      61.137   0.835   9.943  0.00  0.00     0.094 H 
ATOM    121  H   NTO d 869      65.344   1.999  12.018  0.00  0.00     0.090 H 
ATOM    122  H   NTO d 869      64.681   5.795  12.440  0.00  0.00     0.076 H 
ATOM    123  H   NTO d 869      64.419  -2.951  20.030  0.00  0.00     0.231 HD
ATOM    124  H   NTO d 869      65.606  -2.201  19.001  0.00  0.00     0.076 H 
ATOM    125  H   NTO d 869      57.290   2.372   2.837  0.00  0.00     0.210 HD
ATOM    126  H   NTO d 869      66.503  -2.703  21.134  0.00  0.00     0.131 H 
ATOM    127  H   NTO d 869      63.825   4.178  10.607  0.00  0.00     0.091 H 
ATOM    128  H   NTO d 869      63.410   0.777   8.211  0.00  0.00     0.210 HD
ATOM    129  H   NTO d 869      66.785   4.837  13.482  0.00  0.00     0.131 H 
ATOM    130  H   NTO d 869      67.455   2.052  17.488  0.00  0.00     0.133 H 
ATOM    131  H   NTO d 869      54.393   2.523   6.537  0.00  0.00     0.080 H 
ATOM    132  H   NTO d 869      54.596   4.240   6.849  0.00  0.00     0.080 H 
ATOM    133  H   NTO d 869      69.132  -0.705  19.647  0.00  0.00     0.090 H 
ATOM    134  H   NTO d 869      65.589   8.380  15.856  0.00  0.00     0.231 HD
ATOM    135  H   NTO d 869      56.754   5.309   5.205  0.00  0.00     0.210 HD
ATOM    136  H   NTO d 869      68.394  -2.322  17.891  0.00  0.00     0.089 H 
ATOM    137  H   NTO d 869      59.774  -0.069   8.233  0.00  0.00     0.210 HD
ATOM    138  H   NTO d 869      65.881  -1.586  16.739  0.00  0.00     0.210 HD
ATOM    139  H   NTO d 869      58.186   1.388   2.548  0.00  0.00     0.231 HD
ATOM    140  H   NTO d 869      64.996   1.606   9.615  0.00  0.00     0.080 H 
ATOM    141  H   NTO d 869      66.685   1.997   9.936  0.00  0.00     0.080 H 
ATOM    142  H   NTO d 869      63.515   3.191  13.418  0.00  0.00     0.092 H 
ATOM    143  H   NTO d 869      58.667   0.817   7.050  0.00  0.00     0.131 H 
ENDROOT
TORSDOF 46
ENDMDL
MODEL 6
REMARK VINA RESULT:      -9.5      2.134      2.633
REMARK  0 active torsions:
REMARK  status: ('A' for Active; 'I' for Inactive)
REMARK       I    between atoms: O3I_1  and  S3H_51 
REMARK       I    between atoms: O1I_2  and  S1G_48 
REMARK       I    between atoms: O54_3  and  C53_28 
REMARK       I    between atoms: O54_3  and  S55_64 
REMARK       I    between atoms: C41_5  and  C43_30 
REMARK       I    between atoms: C1B_6  and  O1C_53 
REMARK       I    between atoms: O4G_7  and  C4F_62 
REMARK       I    between atoms: O4G_7  and  C50_15 
REMARK       I    between atoms: N5G_8  and  C5F_50 
REMARK       I    between atoms: N5G_8  and  S5H_47 
REMARK       I    between atoms: N1F_9  and  C1E_41 
REMARK       I    between atoms: N1F_9  and  S1G_48 
REMARK       I    between atoms: O3K_10  and  S3H_51 
REMARK       I    between atoms: C5N_11  and  O5M_87 
REMARK       I    between atoms: C21_12  and  C23_57 
REMARK       I    between atoms: C26_13  and  O27_73 
REMARK       I    between atoms: C49_16  and  O4A_21 
REMARK       I    between atoms: O2D_17  and  C2C_35 
REMARK       I    between atoms: O2D_17  and  C30_56 
REMARK       I    between atoms: O1L_18  and  C1K_89 
REMARK       I    between atoms: O1L_18  and  C20_27 
REMARK       I    between atoms: C46_20  and  O47_33 
REMARK       I    between atoms: O4A_21  and  S4B_39 
REMARK       I    between atoms: N3G_22  and  C3F_46 
REMARK       I    between atoms: N3G_22  and  S3H_51 
REMARK       I    between atoms: C40_25  and  O3M_29 
REMARK       I    between atoms: O5I_26  and  S5H_47 
REMARK       I    between atoms: C53_28  and  C51_66 
REMARK       I    between atoms: O3M_29  and  C3L_61 
REMARK       I    between atoms: S17_31  and  O16_86 
REMARK       I    between atoms: O5K_34  and  S5H_47 
REMARK       I    between atoms: O1J_37  and  S1G_48 
REMARK       I    between atoms: C12_38  and  O10_70 
REMARK       I    between atoms: C13_42  and  C15_63 
REMARK       I    between atoms: C29_43  and  O2A_60 
REMARK       I    between atoms: C31_45  and  C33_81 
REMARK       I    between atoms: S5H_47  and  O5J_49 
REMARK       I    between atoms: S1G_48  and  O1H_78 
REMARK       I    between atoms: S3H_51  and  O3J_68 
REMARK       I    between atoms: O3A_54  and  C39_85 
REMARK       I    between atoms: O3A_54  and  S3B_83 
REMARK       I    between atoms: C5L_55  and  O5M_87 
REMARK       I    between atoms: C15_63  and  O16_86 
REMARK       I    between atoms: C59_71  and  O5A_75 
REMARK       I    between atoms: C33_81  and  O34_91 
REMARK       I    between atoms: S35_82  and  O34_91 
ROOT
ATOM      1  O3I NTO d 869      68.706   3.945  12.909  0.00  0.00    -0.296 OA
ATOM      2  O1I NTO d 869      55.486  -2.000   6.898  0.00  0.00    -0.296 OA
ATOM      3  O54 NTO d 869      69.696   1.251  17.996  0.00  0.00    -0.254 OA
ATOM      4  O18 NTO d 869      53.082   3.882  12.382  0.00  0.00    -0.572 OA
ATOM      5  C41 NTO d 869      66.951  -0.865  13.563  0.00  0.00     0.152 C 
ATOM      6  C1B NTO d 869      55.786   2.126   6.534  0.00  0.00     0.083 C 
ATOM      7  O4G NTO d 869      69.305  -1.459  15.710  0.00  0.00    -0.348 OA
ATOM      8  N5G NTO d 869      67.115  -3.980  19.227  0.00  0.00    -0.210 NA
ATOM      9  N1F NTO d 869      57.027   0.029   6.739  0.00  0.00    -0.210 NA
ATOM     10  O3K NTO d 869      68.156   4.239  10.537  0.00  0.00    -0.296 OA
ATOM     11  C5N NTO d 869      70.395  -3.402  21.179  0.00  0.00     0.007 C 
ATOM     12  C21 NTO d 869      60.007   2.710   9.065  0.00  0.00     0.152 C 
ATOM     13  C26 NTO d 869      59.338   0.348   9.210  0.00  0.00     0.092 C 
ATOM     14  O4E NTO d 869      73.124  -0.941  13.493  0.00  0.00    -0.572 OA
ATOM     15  C50 NTO d 869      68.825  -1.375  17.060  0.00  0.00     0.095 C 
ATOM     16  C49 NTO d 869      69.512  -0.457  13.533  0.00  0.00     0.134 C 
ATOM     17  O2D NTO d 869      62.637   0.993  10.912  0.00  0.00    -0.348 OA
ATOM     18  O1L NTO d 869      57.777   2.087   8.455  0.00  0.00    -0.348 OA
ATOM     19  O19 NTO d 869      52.998   5.972  11.101  0.00  0.00    -0.572 OA
ATOM     20  C46 NTO d 869      68.806   0.471  12.544  0.00  0.00     0.094 C 
ATOM     21  O4A NTO d 869      70.897  -0.112  13.629  0.00  0.00    -0.244 OA
ATOM     22  N3G NTO d 869      66.239   4.064  12.240  0.00  0.00    -0.210 NA
ATOM     23  O36 NTO d 869      62.436  -0.066   6.610  0.00  0.00    -0.572 OA
ATOM     24  O57 NTO d 869      71.584   2.703  17.779  0.00  0.00    -0.572 OA
ATOM     25  C40 NTO d 869      67.349   0.035  12.401  0.00  0.00     0.103 C 
ATOM     26  O5I NTO d 869      64.598  -3.584  19.357  0.00  0.00    -0.296 OA
ATOM     27  C20 NTO d 869      58.840   1.783   9.369  0.00  0.00     0.103 C 
ATOM     28  C53 NTO d 869      70.623   0.195  17.738  0.00  0.00     0.067 C 
ATOM     29  O3M NTO d 869      66.537   1.215  12.397  0.00  0.00    -0.348 OA
ATOM     30  C43 NTO d 869      65.434  -0.968  13.585  0.00  0.00     0.206 C 
ATOM     31  S17 NTO d 869      53.901   4.979  11.771  0.00  0.00     0.251 S 
ATOM     32  O45 NTO d 869      64.771   0.094  13.590  0.00  0.00    -0.646 OA
ATOM     33  O47 NTO d 869      69.453   0.388  11.271  0.00  0.00    -0.390 OA
ATOM     34  O5K NTO d 869      65.652  -4.976  21.079  0.00  0.00    -0.296 OA
ATOM     35  C2C NTO d 869      61.609   1.167   9.922  0.00  0.00     0.160 C 
ATOM     36  O38 NTO d 869      64.657   0.154   5.615  0.00  0.00    -0.572 OA
ATOM     37  O1J NTO d 869      57.276  -2.007   5.225  0.00  0.00    -0.296 OA
ATOM     38  C12 NTO d 869      54.878   3.105   7.284  0.00  0.00     0.089 C 
ATOM     39  S4B NTO d 869      71.709  -1.132  13.039  0.00  0.00     0.252 S 
ATOM     40  O4D NTO d 869      71.634  -1.034  11.544  0.00  0.00    -0.572 OA
ATOM     41  C1E NTO d 869      56.031   0.886   7.394  0.00  0.00     0.081 C 
ATOM     42  C13 NTO d 869      55.416   3.380   8.689  0.00  0.00     0.090 C 
ATOM     43  C29 NTO d 869      60.515   0.123  10.162  0.00  0.00     0.110 C 
ATOM     44  O42 NTO d 869      67.420  -0.311  14.805  0.00  0.00    -0.340 OA
ATOM     45  C31 NTO d 869      64.925   0.510  10.360  0.00  0.00     0.091 C 
ATOM     46  C3F NTO d 869      65.747   3.123  11.217  0.00  0.00     0.083 C 
ATOM     47  S5H NTO d 869      65.823  -3.772  20.201  0.00  0.00     0.156 S 
ATOM     48  S1G NTO d 869      56.259  -1.157   5.927  0.00  0.00     0.156 S 
ATOM     49  O5J NTO d 869      66.024  -2.565  21.068  0.00  0.00    -0.296 OA
ATOM     50  C5F NTO d 869      67.684  -2.675  18.859  0.00  0.00     0.081 C 
ATOM     51  S3H NTO d 869      67.757   4.588  11.939  0.00  0.00     0.156 S 
ATOM     52  O25 NTO d 869      58.942   4.596   8.081  0.00  0.00    -0.646 OA
ATOM     53  O1C NTO d 869      55.164   1.742   5.305  0.00  0.00    -0.391 OA
ATOM     54  O3A NTO d 869      63.428   3.724  11.624  0.00  0.00    -0.247 OA
ATOM     55  C5L NTO d 869      68.856  -2.344  19.786  0.00  0.00     0.149 C 
ATOM     56  C30 NTO d 869      63.878   1.604  10.525  0.00  0.00     0.096 C 
ATOM     57  C23 NTO d 869      59.494   4.142   9.110  0.00  0.00     0.206 C 
ATOM     58  O3E NTO d 869      62.324   2.748  13.523  0.00  0.00    -0.572 OA
ATOM     59  O14 NTO d 869      55.623   2.152   9.407  0.00  0.00    -0.349 OA
ATOM     60  O2A NTO d 869      61.048  -1.186   9.955  0.00  0.00    -0.388 OA
ATOM     61  C3L NTO d 869      66.667   1.906  11.147  0.00  0.00     0.150 C 
ATOM     62  C4F NTO d 869      68.851  -0.357  14.911  0.00  0.00     0.161 C 
ATOM     63  C15 NTO d 869      54.377   4.199   9.460  0.00  0.00     0.067 C 
ATOM     64  S55 NTO d 869      70.088   2.622  17.858  0.00  0.00     0.251 S 
ATOM     65  O58 NTO d 869      69.605   3.391  19.050  0.00  0.00    -0.572 OA
ATOM     66  C51 NTO d 869      69.979  -1.162  18.028  0.00  0.00     0.091 C 
ATOM     67  O56 NTO d 869      69.495   3.203  16.609  0.00  0.00    -0.572 OA
ATOM     68  O3J NTO d 869      67.814   6.078  12.098  0.00  0.00    -0.296 OA
ATOM     69  O44 NTO d 869      64.916  -2.116  13.590  0.00  0.00    -0.646 OA
ATOM     70  O10 NTO d 869      54.834   4.336   6.559  0.00  0.00    -0.390 OA
ATOM     71  C59 NTO d 869      68.139  -2.697  17.399  0.00  0.00     0.083 C 
ATOM     72  O52 NTO d 869      69.516  -1.131  19.388  0.00  0.00    -0.349 OA
ATOM     73  O27 NTO d 869      58.291  -0.571   9.533  0.00  0.00    -0.390 OA
ATOM     74  O1A NTO d 869      54.695   5.660  12.844  0.00  0.00    -0.572 OA
ATOM     75  O5A NTO d 869      67.001  -2.848  16.545  0.00  0.00    -0.391 OA
ATOM     76  O37 NTO d 869      64.092  -1.836   6.934  0.00  0.00    -0.572 OA
ATOM     77  O24 NTO d 869      59.634   4.786  10.176  0.00  0.00    -0.646 OA
ATOM     78  O1H NTO d 869      55.322  -0.548   4.927  0.00  0.00    -0.296 OA
ATOM     79  O22 NTO d 869      61.080   2.500  10.000  0.00  0.00    -0.340 OA
ATOM     80  O3D NTO d 869      62.046   5.123  12.986  0.00  0.00    -0.572 OA
ATOM     81  C33 NTO d 869      64.501  -0.415   9.216  0.00  0.00     0.067 C 
ATOM     82  S35 NTO d 869      63.894  -0.355   6.800  0.00  0.00     0.251 S 
ATOM     83  S3B NTO d 869      63.002   3.967  12.969  0.00  0.00     0.252 S 
ATOM     84  O4C NTO d 869      71.225  -2.480  13.484  0.00  0.00    -0.572 OA
ATOM     85  C39 NTO d 869      64.344   2.624  11.569  0.00  0.00     0.108 C 
ATOM     86  O16 NTO d 869      54.801   4.421  10.807  0.00  0.00    -0.254 OA
ATOM     87  O5M NTO d 869      69.761  -3.449  19.897  0.00  0.00    -0.364 OA
ATOM     88  O3C NTO d 869      64.187   4.302  13.825  0.00  0.00    -0.572 OA
ATOM     89  C1K NTO d 869      56.595   1.327   8.746  0.00  0.00     0.150 C 
ATOM     90  O32 NTO d 869      66.223   1.056  10.077  0.00  0.00    -0.349 OA
ATOM     91  O34 NTO d 869      64.371   0.300   7.983  0.00  0.00    -0.254 OA
ATOM     92  H   NTO d 869      68.669   2.981  12.807  0.00  0.00     0.231 HD
ATOM     93  H   NTO d 869      56.096  -2.392   7.543  0.00  0.00     0.231 HD
ATOM     94  H   NTO d 869      67.388  -1.833  13.440  0.00  0.00     0.104 H 
ATOM     95  H   NTO d 869      56.722   2.600   6.326  0.00  0.00     0.089 H 
ATOM     96  H   NTO d 869      67.821  -4.530  19.715  0.00  0.00     0.140 HD
ATOM     97  H   NTO d 869      57.640  -0.381   7.443  0.00  0.00     0.140 HD
ATOM     98  H   NTO d 869      68.124   3.276  10.421  0.00  0.00     0.231 HD
ATOM     99  H   NTO d 869      71.073  -4.225  21.272  0.00  0.00     0.066 H 
ATOM    100  H   NTO d 869      69.653  -3.463  21.947  0.00  0.00     0.066 H 
ATOM    101  H   NTO d 869      70.934  -2.483  21.277  0.00  0.00     0.066 H 
ATOM    102  H   NTO d 869      60.403   2.503   8.092  0.00  0.00     0.104 H 
ATOM    103  H   NTO d 869      59.646   0.188   8.197  0.00  0.00     0.091 H 
ATOM    104  H   NTO d 869      68.148  -0.551  17.147  0.00  0.00     0.091 H 
ATOM    105  H   NTO d 869      69.431  -1.464  13.181  0.00  0.00     0.097 H 
ATOM    106  H   NTO d 869      68.847   1.478  12.901  0.00  0.00     0.091 H 
ATOM    107  H   NTO d 869      66.230   3.594  13.146  0.00  0.00     0.140 HD
ATOM    108  H   NTO d 869      67.217  -0.517  11.494  0.00  0.00     0.092 H 
ATOM    109  H   NTO d 869      64.469  -4.365  18.797  0.00  0.00     0.231 HD
ATOM    110  H   NTO d 869      58.467   1.909  10.364  0.00  0.00     0.092 H 
ATOM    111  H   NTO d 869      71.482   0.319  18.364  0.00  0.00     0.080 H 
ATOM    112  H   NTO d 869      70.911   0.230  16.708  0.00  0.00     0.080 H 
ATOM    113  H   NTO d 869      69.415  -0.526  10.948  0.00  0.00     0.210 HD
ATOM    114  H   NTO d 869      65.521  -5.763  20.527  0.00  0.00     0.231 HD
ATOM    115  H   NTO d 869      62.011   1.030   8.940  0.00  0.00     0.133 H 
ATOM    116  H   NTO d 869      57.878  -2.397   5.878  0.00  0.00     0.231 HD
ATOM    117  H   NTO d 869      53.901   2.676   7.367  0.00  0.00     0.091 H 
ATOM    118  H   NTO d 869      55.113   0.352   7.524  0.00  0.00     0.076 H 
ATOM    119  H   NTO d 869      56.346   3.902   8.601  0.00  0.00     0.090 H 
ATOM    120  H   NTO d 869      60.167   0.219  11.169  0.00  0.00     0.094 H 
ATOM    121  H   NTO d 869      64.992  -0.033  11.279  0.00  0.00     0.090 H 
ATOM    122  H   NTO d 869      65.726   3.640  10.281  0.00  0.00     0.076 H 
ATOM    123  H   NTO d 869      66.136  -1.780  20.509  0.00  0.00     0.231 HD
ATOM    124  H   NTO d 869      66.937  -1.917  18.969  0.00  0.00     0.076 H 
ATOM    125  H   NTO d 869      54.315   1.312   5.493  0.00  0.00     0.210 HD
ATOM    126  H   NTO d 869      68.460  -2.169  20.764  0.00  0.00     0.131 H 
ATOM    127  H   NTO d 869      63.737   2.126   9.602  0.00  0.00     0.091 H 
ATOM    128  H   NTO d 869      61.361  -1.267   9.040  0.00  0.00     0.210 HD
ATOM    129  H   NTO d 869      67.685   2.186  10.971  0.00  0.00     0.131 H 
ATOM    130  H   NTO d 869      69.135   0.558  15.386  0.00  0.00     0.133 H 
ATOM    131  H   NTO d 869      53.448   3.668   9.468  0.00  0.00     0.080 H 
ATOM    132  H   NTO d 869      54.261   5.146   8.977  0.00  0.00     0.080 H 
ATOM    133  H   NTO d 869      70.671  -1.968  17.903  0.00  0.00     0.090 H 
ATOM    134  H   NTO d 869      68.716   6.388  11.919  0.00  0.00     0.231 HD
ATOM    135  H   NTO d 869      55.728   4.705   6.495  0.00  0.00     0.210 HD
ATOM    136  H   NTO d 869      68.817  -3.513  17.257  0.00  0.00     0.089 H 
ATOM    137  H   NTO d 869      58.008  -0.430  10.451  0.00  0.00     0.210 HD
ATOM    138  H   NTO d 869      66.394  -2.104  16.681  0.00  0.00     0.210 HD
ATOM    139  H   NTO d 869      54.668   0.001   5.389  0.00  0.00     0.231 HD
ATOM    140  H   NTO d 869      63.559  -0.860   9.460  0.00  0.00     0.080 H 
ATOM    141  H   NTO d 869      65.256  -1.163   9.092  0.00  0.00     0.080 H 
ATOM    142  H   NTO d 869      64.373   2.153  12.529  0.00  0.00     0.092 H 
ATOM    143  H   NTO d 869      56.820   0.497   9.383  0.00  0.00     0.131 H 
ENDROOT
TORSDOF 46
ENDMDL
MODEL 7
REMARK VINA RESULT:      -9.4      3.123     14.018
REMARK  0 active torsions:
REMARK  status: ('A' for Active; 'I' for Inactive)
REMARK       I    between atoms: O3I_1  and  S3H_51 
REMARK       I    between atoms: O1I_2  and  S1G_48 
REMARK       I    between atoms: O54_3  and  C53_28 
REMARK       I    between atoms: O54_3  and  S55_64 
REMARK       I    between atoms: C41_5  and  C43_30 
REMARK       I    between atoms: C1B_6  and  O1C_53 
REMARK       I    between atoms: O4G_7  and  C4F_62 
REMARK       I    between atoms: O4G_7  and  C50_15 
REMARK       I    between atoms: N5G_8  and  C5F_50 
REMARK       I    between atoms: N5G_8  and  S5H_47 
REMARK       I    between atoms: N1F_9  and  C1E_41 
REMARK       I    between atoms: N1F_9  and  S1G_48 
REMARK       I    between atoms: O3K_10  and  S3H_51 
REMARK       I    between atoms: C5N_11  and  O5M_87 
REMARK       I    between atoms: C21_12  and  C23_57 
REMARK       I    between atoms: C26_13  and  O27_73 
REMARK       I    between atoms: C49_16  and  O4A_21 
REMARK       I    between atoms: O2D_17  and  C2C_35 
REMARK       I    between atoms: O2D_17  and  C30_56 
REMARK       I    between atoms: O1L_18  and  C1K_89 
REMARK       I    between atoms: O1L_18  and  C20_27 
REMARK       I    between atoms: C46_20  and  O47_33 
REMARK       I    between atoms: O4A_21  and  S4B_39 
REMARK       I    between atoms: N3G_22  and  C3F_46 
REMARK       I    between atoms: N3G_22  and  S3H_51 
REMARK       I    between atoms: C40_25  and  O3M_29 
REMARK       I    between atoms: O5I_26  and  S5H_47 
REMARK       I    between atoms: C53_28  and  C51_66 
REMARK       I    between atoms: O3M_29  and  C3L_61 
REMARK       I    between atoms: S17_31  and  O16_86 
REMARK       I    between atoms: O5K_34  and  S5H_47 
REMARK       I    between atoms: O1J_37  and  S1G_48 
REMARK       I    between atoms: C12_38  and  O10_70 
REMARK       I    between atoms: C13_42  and  C15_63 
REMARK       I    between atoms: C29_43  and  O2A_60 
REMARK       I    between atoms: C31_45  and  C33_81 
REMARK       I    between atoms: S5H_47  and  O5J_49 
REMARK       I    between atoms: S1G_48  and  O1H_78 
REMARK       I    between atoms: S3H_51  and  O3J_68 
REMARK       I    between atoms: O3A_54  and  C39_85 
REMARK       I    between atoms: O3A_54  and  S3B_83 
REMARK       I    between atoms: C5L_55  and  O5M_87 
REMARK       I    between atoms: C15_63  and  O16_86 
REMARK       I    between atoms: C59_71  and  O5A_75 
REMARK       I    between atoms: C33_81  and  O34_91 
REMARK       I    between atoms: S35_82  and  O34_91 
ROOT
ATOM      1  O3I NTO d 869      61.761  -0.133   7.146  0.00  0.00    -0.296 OA
ATOM      2  O1I NTO d 869      70.657   6.354  18.328  0.00  0.00    -0.296 OA
ATOM      3  O54 NTO d 869      56.349   1.979   7.754  0.00  0.00    -0.254 OA
ATOM      4  O18 NTO d 869      66.750  -0.125  21.961  0.00  0.00    -0.572 OA
ATOM      5  C41 NTO d 869      61.135   4.560   9.202  0.00  0.00     0.152 C 
ATOM      6  C1B NTO d 869      71.353   2.298  17.775  0.00  0.00     0.083 C 
ATOM      7  O4G NTO d 869      58.351   4.926   7.583  0.00  0.00    -0.348 OA
ATOM      8  N5G NTO d 869      55.367   7.020  10.782  0.00  0.00    -0.210 NA
ATOM      9  N1F NTO d 869      70.579   4.367  16.726  0.00  0.00    -0.210 NA
ATOM     10  O3K NTO d 869      64.208  -0.162   6.985  0.00  0.00    -0.296 OA
ATOM     11  C5N NTO d 869      52.626   6.250   8.174  0.00  0.00     0.007 C 
ATOM     12  C21 NTO d 869      67.791   1.464  14.430  0.00  0.00     0.152 C 
ATOM     13  C26 NTO d 869      67.596   3.789  15.205  0.00  0.00     0.092 C 
ATOM     14  O4E NTO d 869      59.418   4.689   3.273  0.00  0.00    -0.572 OA
ATOM     15  C50 NTO d 869      57.213   4.687   8.425  0.00  0.00     0.095 C 
ATOM     16  C49 NTO d 869      60.470   4.177   6.725  0.00  0.00     0.134 C 
ATOM     17  O2D NTO d 869      65.095   2.981  12.506  0.00  0.00    -0.348 OA
ATOM     18  O1L NTO d 869      68.947   2.135  16.417  0.00  0.00    -0.348 OA
ATOM     19  O19 NTO d 869      68.214  -2.058  21.595  0.00  0.00    -0.572 OA
ATOM     20  C46 NTO d 869      61.712   3.361   7.083  0.00  0.00     0.094 C 
ATOM     21  O4A NTO d 869      60.017   3.834   5.413  0.00  0.00    -0.244 OA
ATOM     22  N3G NTO d 869      63.119  -0.193   9.313  0.00  0.00    -0.210 NA
ATOM     23  O36 NTO d 869      69.136   4.515  11.514  0.00  0.00    -0.572 OA
ATOM     24  O57 NTO d 869      56.166   0.575   5.827  0.00  0.00    -0.572 OA
ATOM     25  C40 NTO d 869      62.221   3.800   8.454  0.00  0.00     0.103 C 
ATOM     26  O5I NTO d 869      56.009   6.593  13.214  0.00  0.00    -0.296 OA
ATOM     27  C20 NTO d 869      67.740   2.342  15.671  0.00  0.00     0.103 C 
ATOM     28  C53 NTO d 869      56.216   3.064   6.834  0.00  0.00     0.067 C 
ATOM     29  O3M NTO d 869      62.584   2.622   9.184  0.00  0.00    -0.348 OA
ATOM     30  C43 NTO d 869      61.539   4.650  10.666  0.00  0.00     0.206 C 
ATOM     31  S17 NTO d 869      67.211  -1.141  20.960  0.00  0.00     0.251 S 
ATOM     32  O45 NTO d 869      61.837   3.588  11.260  0.00  0.00    -0.646 OA
ATOM     33  O47 NTO d 869      62.730   3.591   6.104  0.00  0.00    -0.390 OA
ATOM     34  O5K NTO d 869      53.919   7.790  12.750  0.00  0.00    -0.296 OA
ATOM     35  C2C NTO d 869      66.352   2.912  13.200  0.00  0.00     0.160 C 
ATOM     36  O38 NTO d 869      69.468   4.425   9.094  0.00  0.00    -0.572 OA
ATOM     37  O1J NTO d 869      71.734   6.563  16.137  0.00  0.00    -0.296 OA
ATOM     38  C12 NTO d 869      71.004   1.234  18.819  0.00  0.00     0.089 C 
ATOM     39  S4B NTO d 869      60.237   4.919   4.507  0.00  0.00     0.252 S 
ATOM     40  O4D NTO d 869      61.692   4.990   4.149  0.00  0.00    -0.572 OA
ATOM     41  C1E NTO d 869      70.333   3.435  17.833  0.00  0.00     0.081 C 
ATOM     42  C13 NTO d 869      69.540   0.807  18.693  0.00  0.00     0.090 C 
ATOM     43  C29 NTO d 869      66.328   3.914  14.358  0.00  0.00     0.110 C 
ATOM     44  O42 NTO d 869      59.876   3.873   9.085  0.00  0.00    -0.340 OA
ATOM     45  C31 NTO d 869      64.911   3.540  10.176  0.00  0.00     0.091 C 
ATOM     46  C3F NTO d 869      64.135   0.853   9.530  0.00  0.00     0.083 C 
ATOM     47  S5H NTO d 869      54.833   6.694  12.289  0.00  0.00     0.156 S 
ATOM     48  S1G NTO d 869      71.448   5.631  17.277  0.00  0.00     0.156 S 
ATOM     49  O5J NTO d 869      54.078   5.398  12.296  0.00  0.00    -0.296 OA
ATOM     50  C5F NTO d 869      55.691   5.768  10.081  0.00  0.00     0.081 C 
ATOM     51  S3H NTO d 869      63.024  -0.669   7.753  0.00  0.00     0.156 S 
ATOM     52  O25 NTO d 869      69.234  -0.308  15.095  0.00  0.00    -0.646 OA
ATOM     53  O1C NTO d 869      72.661   2.812  18.035  0.00  0.00    -0.391 OA
ATOM     54  O3A NTO d 869      64.478   0.193  11.843  0.00  0.00    -0.247 OA
ATOM     55  C5L NTO d 869      54.507   5.344   9.210  0.00  0.00     0.149 C 
ATOM     56  C30 NTO d 869      65.171   2.427  11.183  0.00  0.00     0.096 C 
ATOM     57  C23 NTO d 869      68.047   0.032  14.877  0.00  0.00     0.206 C 
ATOM     58  O3E NTO d 869      62.886   0.941  13.481  0.00  0.00    -0.572 OA
ATOM     59  O14 NTO d 869      68.668   1.947  18.748  0.00  0.00    -0.349 OA
ATOM     60  O2A NTO d 869      66.234   5.242  13.840  0.00  0.00    -0.388 OA
ATOM     61  C3L NTO d 869      63.809   2.077   8.676  0.00  0.00     0.150 C 
ATOM     62  C4F NTO d 869      59.359   3.918   7.747  0.00  0.00     0.161 C 
ATOM     63  C15 NTO d 869      69.192  -0.102  19.876  0.00  0.00     0.067 C 
ATOM     64  S55 NTO d 869      56.512   0.636   7.285  0.00  0.00     0.251 S 
ATOM     65  O58 NTO d 869      55.598  -0.266   8.057  0.00  0.00    -0.572 OA
ATOM     66  C51 NTO d 869      55.982   4.376   7.587  0.00  0.00     0.091 C 
ATOM     67  O56 NTO d 869      57.933   0.195   7.475  0.00  0.00    -0.572 OA
ATOM     68  O3J NTO d 869      63.015  -2.168   7.685  0.00  0.00    -0.296 OA
ATOM     69  O44 NTO d 869      61.563   5.785  11.208  0.00  0.00    -0.646 OA
ATOM     70  O10 NTO d 869      71.837   0.092  18.606  0.00  0.00    -0.390 OA
ATOM     71  C59 NTO d 869      56.948   5.958   9.230  0.00  0.00     0.083 C 
ATOM     72  O52 NTO d 869      54.824   4.188   8.416  0.00  0.00    -0.349 OA
ATOM     73  O27 NTO d 869      67.493   4.658  16.336  0.00  0.00    -0.390 OA
ATOM     74  O1A NTO d 869      66.034  -1.932  20.478  0.00  0.00    -0.572 OA
ATOM     75  O5A NTO d 869      58.073   6.196  10.082  0.00  0.00    -0.391 OA
ATOM     76  O37 NTO d 869      68.164   6.250  10.089  0.00  0.00    -0.572 OA
ATOM     77  O24 NTO d 869      67.060  -0.728  15.023  0.00  0.00    -0.646 OA
ATOM     78  O1H NTO d 869      72.733   5.132  17.866  0.00  0.00    -0.296 OA
ATOM     79  O22 NTO d 869      66.570   1.574  13.678  0.00  0.00    -0.340 OA
ATOM     80  O3D NTO d 869      63.727  -1.360  13.500  0.00  0.00    -0.572 OA
ATOM     81  C33 NTO d 869      66.025   4.584  10.292  0.00  0.00     0.067 C 
ATOM     82  S35 NTO d 869      68.505   4.792  10.182  0.00  0.00     0.251 S 
ATOM     83  S3B NTO d 869      63.346  -0.203  12.625  0.00  0.00     0.252 S 
ATOM     84  O4C NTO d 869      59.810   6.206   5.150  0.00  0.00    -0.572 OA
ATOM     85  C39 NTO d 869      64.152   1.299  10.993  0.00  0.00     0.108 C 
ATOM     86  O16 NTO d 869      67.811  -0.471  19.845  0.00  0.00    -0.254 OA
ATOM     87  O5M NTO d 869      54.024   6.437   8.418  0.00  0.00    -0.364 OA
ATOM     88  O3C NTO d 869      62.226  -0.624  11.721  0.00  0.00    -0.572 OA
ATOM     89  C1K NTO d 869      68.931   2.849  17.661  0.00  0.00     0.150 C 
ATOM     90  O32 NTO d 869      64.866   3.038   8.830  0.00  0.00    -0.349 OA
ATOM     91  O34 NTO d 869      67.311   4.012  10.037  0.00  0.00    -0.254 OA
ATOM     92  H   NTO d 869      61.767   0.836   7.190  0.00  0.00     0.231 HD
ATOM     93  H   NTO d 869      69.826   6.675  17.942  0.00  0.00     0.231 HD
ATOM     94  H   NTO d 869      61.024   5.540   8.786  0.00  0.00     0.104 H 
ATOM     95  H   NTO d 869      71.332   1.856  16.800  0.00  0.00     0.089 H 
ATOM     96  H   NTO d 869      54.641   7.517  10.267  0.00  0.00     0.140 HD
ATOM     97  H   NTO d 869      69.689   4.700  16.356  0.00  0.00     0.140 HD
ATOM     98  H   NTO d 869      64.226   0.808   7.021  0.00  0.00     0.231 HD
ATOM     99  H   NTO d 869      52.256   7.062   7.584  0.00  0.00     0.066 H 
ATOM    100  H   NTO d 869      52.102   6.219   9.106  0.00  0.00     0.066 H 
ATOM    101  H   NTO d 869      52.476   5.329   7.650  0.00  0.00     0.066 H 
ATOM    102  H   NTO d 869      68.581   1.781  13.782  0.00  0.00     0.104 H 
ATOM    103  H   NTO d 869      68.455   4.064  14.627  0.00  0.00     0.091 H 
ATOM    104  H   NTO d 869      57.412   3.854   9.065  0.00  0.00     0.091 H 
ATOM    105  H   NTO d 869      60.722   5.217   6.742  0.00  0.00     0.097 H 
ATOM    106  H   NTO d 869      61.467   2.320   7.106  0.00  0.00     0.091 H 
ATOM    107  H   NTO d 869      62.210   0.171   9.599  0.00  0.00     0.140 HD
ATOM    108  H   NTO d 869      63.065   4.449   8.345  0.00  0.00     0.092 H 
ATOM    109  H   NTO d 869      56.497   7.431  13.209  0.00  0.00     0.231 HD
ATOM    110  H   NTO d 869      66.913   2.102  16.307  0.00  0.00     0.092 H 
ATOM    111  H   NTO d 869      55.386   2.877   6.185  0.00  0.00     0.080 H 
ATOM    112  H   NTO d 869      57.117   3.148   6.263  0.00  0.00     0.080 H 
ATOM    113  H   NTO d 869      62.952   4.535   6.084  0.00  0.00     0.210 HD
ATOM    114  H   NTO d 869      54.400   8.634  12.749  0.00  0.00     0.231 HD
ATOM    115  H   NTO d 869      67.156   3.161  12.541  0.00  0.00     0.133 H 
ATOM    116  H   NTO d 869      70.898   6.881  15.762  0.00  0.00     0.231 HD
ATOM    117  H   NTO d 869      71.160   1.644  19.795  0.00  0.00     0.091 H 
ATOM    118  H   NTO d 869      70.417   3.944  18.771  0.00  0.00     0.076 H 
ATOM    119  H   NTO d 869      69.412   0.304  17.757  0.00  0.00     0.090 H 
ATOM    120  H   NTO d 869      65.480   3.703  14.974  0.00  0.00     0.094 H 
ATOM    121  H   NTO d 869      63.960   3.976  10.395  0.00  0.00     0.090 H 
ATOM    122  H   NTO d 869      65.088   0.444   9.263  0.00  0.00     0.076 H 
ATOM    123  H   NTO d 869      54.661   4.683  11.999  0.00  0.00     0.231 HD
ATOM    124  H   NTO d 869      55.882   4.997  10.798  0.00  0.00     0.076 H 
ATOM    125  H   NTO d 869      72.681   3.213  18.919  0.00  0.00     0.210 HD
ATOM    126  H   NTO d 869      53.708   5.057   9.861  0.00  0.00     0.131 H 
ATOM    127  H   NTO d 869      66.145   2.010  11.033  0.00  0.00     0.091 H 
ATOM    128  H   NTO d 869      67.006   5.428  13.283  0.00  0.00     0.210 HD
ATOM    129  H   NTO d 869      63.713   1.826   7.640  0.00  0.00     0.131 H 
ATOM    130  H   NTO d 869      58.921   2.957   7.574  0.00  0.00     0.133 H 
ATOM    131  H   NTO d 869      69.395   0.418  20.789  0.00  0.00     0.080 H 
ATOM    132  H   NTO d 869      69.785  -0.990  19.812  0.00  0.00     0.080 H 
ATOM    133  H   NTO d 869      55.817   5.196   6.920  0.00  0.00     0.090 H 
ATOM    134  H   NTO d 869      62.959  -2.449   6.759  0.00  0.00     0.231 HD
ATOM    135  H   NTO d 869      71.679  -0.262  17.717  0.00  0.00     0.210 HD
ATOM    136  H   NTO d 869      56.802   6.790   8.572  0.00  0.00     0.089 H 
ATOM    137  H   NTO d 869      66.716   4.413  16.863  0.00  0.00     0.210 HD
ATOM    138  H   NTO d 869      58.196   5.437  10.673  0.00  0.00     0.210 HD
ATOM    139  H   NTO d 869      72.540   4.530  18.602  0.00  0.00     0.231 HD
ATOM    140  H   NTO d 869      66.017   4.993  11.281  0.00  0.00     0.080 H 
ATOM    141  H   NTO d 869      65.847   5.347   9.563  0.00  0.00     0.080 H 
ATOM    142  H   NTO d 869      63.179   1.659  11.258  0.00  0.00     0.092 H 
ATOM    143  H   NTO d 869      68.172   3.603  17.660  0.00  0.00     0.131 H 
ENDROOT
TORSDOF 46
ENDMDL
MODEL 8
REMARK VINA RESULT:      -9.4      3.148     13.782
REMARK  0 active torsions:
REMARK  status: ('A' for Active; 'I' for Inactive)
REMARK       I    between atoms: O3I_1  and  S3H_51 
REMARK       I    between atoms: O1I_2  and  S1G_48 
REMARK       I    between atoms: O54_3  and  C53_28 
REMARK       I    between atoms: O54_3  and  S55_64 
REMARK       I    between atoms: C41_5  and  C43_30 
REMARK       I    between atoms: C1B_6  and  O1C_53 
REMARK       I    between atoms: O4G_7  and  C4F_62 
REMARK       I    between atoms: O4G_7  and  C50_15 
REMARK       I    between atoms: N5G_8  and  C5F_50 
REMARK       I    between atoms: N5G_8  and  S5H_47 
REMARK       I    between atoms: N1F_9  and  C1E_41 
REMARK       I    between atoms: N1F_9  and  S1G_48 
REMARK       I    between atoms: O3K_10  and  S3H_51 
REMARK       I    between atoms: C5N_11  and  O5M_87 
REMARK       I    between atoms: C21_12  and  C23_57 
REMARK       I    between atoms: C26_13  and  O27_73 
REMARK       I    between atoms: C49_16  and  O4A_21 
REMARK       I    between atoms: O2D_17  and  C2C_35 
REMARK       I    between atoms: O2D_17  and  C30_56 
REMARK       I    between atoms: O1L_18  and  C1K_89 
REMARK       I    between atoms: O1L_18  and  C20_27 
REMARK       I    between atoms: C46_20  and  O47_33 
REMARK       I    between atoms: O4A_21  and  S4B_39 
REMARK       I    between atoms: N3G_22  and  C3F_46 
REMARK       I    between atoms: N3G_22  and  S3H_51 
REMARK       I    between atoms: C40_25  and  O3M_29 
REMARK       I    between atoms: O5I_26  and  S5H_47 
REMARK       I    between atoms: C53_28  and  C51_66 
REMARK       I    between atoms: O3M_29  and  C3L_61 
REMARK       I    between atoms: S17_31  and  O16_86 
REMARK       I    between atoms: O5K_34  and  S5H_47 
REMARK       I    between atoms: O1J_37  and  S1G_48 
REMARK       I    between atoms: C12_38  and  O10_70 
REMARK       I    between atoms: C13_42  and  C15_63 
REMARK       I    between atoms: C29_43  and  O2A_60 
REMARK       I    between atoms: C31_45  and  C33_81 
REMARK       I    between atoms: S5H_47  and  O5J_49 
REMARK       I    between atoms: S1G_48  and  O1H_78 
REMARK       I    between atoms: S3H_51  and  O3J_68 
REMARK       I    between atoms: O3A_54  and  C39_85 
REMARK       I    between atoms: O3A_54  and  S3B_83 
REMARK       I    between atoms: C5L_55  and  O5M_87 
REMARK       I    between atoms: C15_63  and  O16_86 
REMARK       I    between atoms: C59_71  and  O5A_75 
REMARK       I    between atoms: C33_81  and  O34_91 
REMARK       I    between atoms: S35_82  and  O34_91 
ROOT
ATOM      1  O3I NTO d 869      62.991  -0.178   7.475  0.00  0.00    -0.296 OA
ATOM      2  O1I NTO d 869      69.977   1.012  21.476  0.00  0.00    -0.296 OA
ATOM      3  O54 NTO d 869      57.712   2.280   7.925  0.00  0.00    -0.254 OA
ATOM      4  O18 NTO d 869      65.033  -5.756  21.935  0.00  0.00    -0.572 OA
ATOM      5  C41 NTO d 869      62.288   3.597  10.924  0.00  0.00     0.152 C 
ATOM      6  C1B NTO d 869      70.502  -2.680  19.649  0.00  0.00     0.083 C 
ATOM      7  O4G NTO d 869      59.896   4.834   9.120  0.00  0.00    -0.348 OA
ATOM      8  N5G NTO d 869      56.496   6.101  12.337  0.00  0.00    -0.210 NA
ATOM      9  N1F NTO d 869      70.079  -0.299  19.287  0.00  0.00    -0.210 NA
ATOM     10  O3K NTO d 869      65.417  -0.463   7.701  0.00  0.00    -0.296 OA
ATOM     11  C5N NTO d 869      54.263   6.602   9.228  0.00  0.00     0.007 C 
ATOM     12  C21 NTO d 869      67.602  -1.888  15.709  0.00  0.00     0.152 C 
ATOM     13  C26 NTO d 869      67.413   0.050  17.210  0.00  0.00     0.092 C 
ATOM     14  O4E NTO d 869      61.753   5.917   5.227  0.00  0.00    -0.572 OA
ATOM     15  C50 NTO d 869      58.605   4.475   9.633  0.00  0.00     0.095 C 
ATOM     16  C49 NTO d 869      62.087   4.152   8.398  0.00  0.00     0.134 C 
ATOM     17  O2D NTO d 869      65.430   0.515  14.041  0.00  0.00    -0.348 OA
ATOM     18  O1L NTO d 869      68.396  -2.072  17.960  0.00  0.00    -0.348 OA
ATOM     19  O19 NTO d 869      66.412  -7.625  21.148  0.00  0.00    -0.572 OA
ATOM     20  C46 NTO d 869      63.182   3.112   8.638  0.00  0.00     0.094 C 
ATOM     21  O4A NTO d 869      61.873   4.328   6.995  0.00  0.00    -0.244 OA
ATOM     22  N3G NTO d 869      63.902  -1.131   9.668  0.00  0.00    -0.210 NA
ATOM     23  O36 NTO d 869      69.677   1.765  14.302  0.00  0.00    -0.572 OA
ATOM     24  O57 NTO d 869      57.811   1.636   5.625  0.00  0.00    -0.572 OA
ATOM     25  C40 NTO d 869      63.446   2.999  10.138  0.00  0.00     0.103 C 
ATOM     26  O5I NTO d 869      56.630   4.808  14.532  0.00  0.00    -0.296 OA
ATOM     27  C20 NTO d 869      67.370  -1.476  17.154  0.00  0.00     0.103 C 
ATOM     28  C53 NTO d 869      57.829   3.618   7.437  0.00  0.00     0.067 C 
ATOM     29  O3M NTO d 869      63.584   1.609  10.454  0.00  0.00    -0.348 OA
ATOM     30  C43 NTO d 869      62.409   3.141  12.370  0.00  0.00     0.206 C 
ATOM     31  S17 NTO d 869      65.612  -6.428  20.727  0.00  0.00     0.251 S 
ATOM     32  O45 NTO d 869      62.518   1.913  12.592  0.00  0.00    -0.646 OA
ATOM     33  O47 NTO d 869      64.381   3.525   7.975  0.00  0.00    -0.390 OA
ATOM     34  O5K NTO d 869      54.750   6.347  14.196  0.00  0.00    -0.296 OA
ATOM     35  C2C NTO d 869      66.522   0.059  14.856  0.00  0.00     0.160 C 
ATOM     36  O38 NTO d 869      70.460   2.447  12.090  0.00  0.00    -0.572 OA
ATOM     37  O1J NTO d 869      71.466   1.802  19.698  0.00  0.00    -0.296 OA
ATOM     38  C12 NTO d 869      69.890  -3.978  20.184  0.00  0.00     0.089 C 
ATOM     39  S4B NTO d 869      62.333   5.616   6.576  0.00  0.00     0.252 S 
ATOM     40  O4D NTO d 869      63.831   5.616   6.499  0.00  0.00    -0.572 OA
ATOM     41  C1E NTO d 869      69.565  -1.508  19.942  0.00  0.00     0.081 C 
ATOM     42  C13 NTO d 869      68.453  -4.149  19.687  0.00  0.00     0.090 C 
ATOM     43  C29 NTO d 869      66.342   0.611  16.273  0.00  0.00     0.110 C 
ATOM     44  O42 NTO d 869      61.033   3.155  10.376  0.00  0.00    -0.340 OA
ATOM     45  C31 NTO d 869      65.733   1.838  12.059  0.00  0.00     0.091 C 
ATOM     46  C3F NTO d 869      64.923  -0.356  10.396  0.00  0.00     0.083 C 
ATOM     47  S5H NTO d 869      55.663   5.361  13.529  0.00  0.00     0.156 S 
ATOM     48  S1G NTO d 869      70.906   0.587  20.377  0.00  0.00     0.156 S 
ATOM     49  O5J NTO d 869      54.838   4.245  12.961  0.00  0.00    -0.296 OA
ATOM     50  C5F NTO d 869      56.866   5.125  11.301  0.00  0.00     0.081 C 
ATOM     51  S3H NTO d 869      64.077  -1.042   8.046  0.00  0.00     0.156 S 
ATOM     52  O25 NTO d 869      68.772  -3.949  15.926  0.00  0.00    -0.646 OA
ATOM     53  O1C NTO d 869      71.766  -2.453  20.277  0.00  0.00    -0.391 OA
ATOM     54  O3A NTO d 869      64.772  -1.789  12.352  0.00  0.00    -0.247 OA
ATOM     55  C5L NTO d 869      55.847   5.171  10.162  0.00  0.00     0.149 C 
ATOM     56  C30 NTO d 869      65.722   0.430  12.637  0.00  0.00     0.096 C 
ATOM     57  C23 NTO d 869      67.674  -3.407  15.658  0.00  0.00     0.206 C 
ATOM     58  O3E NTO d 869      62.947  -1.435  13.875  0.00  0.00    -0.572 OA
ATOM     59  O14 NTO d 869      67.663  -2.991  20.001  0.00  0.00    -0.349 OA
ATOM     60  O2A NTO d 869      66.435   2.036  16.247  0.00  0.00    -0.388 OA
ATOM     61  C3L NTO d 869      64.847   1.114   9.987  0.00  0.00     0.150 C 
ATOM     62  C4F NTO d 869      60.787   3.710   9.075  0.00  0.00     0.161 C 
ATOM     63  C15 NTO d 869      67.826  -5.348  20.404  0.00  0.00     0.067 C 
ATOM     64  S55 NTO d 869      57.875   1.162   7.046  0.00  0.00     0.251 S 
ATOM     65  O58 NTO d 869      56.772   0.178   7.297  0.00  0.00    -0.572 OA
ATOM     66  C51 NTO d 869      57.540   4.621   8.556  0.00  0.00     0.091 C 
ATOM     67  O56 NTO d 869      59.201   0.505   7.290  0.00  0.00    -0.572 OA
ATOM     68  O3J NTO d 869      63.984  -2.418   7.454  0.00  0.00    -0.296 OA
ATOM     69  O44 NTO d 869      62.401   4.017  13.273  0.00  0.00    -0.646 OA
ATOM     70  O10 NTO d 869      70.673  -5.080  19.717  0.00  0.00    -0.390 OA
ATOM     71  C59 NTO d 869      58.273   5.427  10.781  0.00  0.00     0.083 C 
ATOM     72  O52 NTO d 869      56.234   4.316   9.073  0.00  0.00    -0.349 OA
ATOM     73  O27 NTO d 869      67.151   0.497  18.544  0.00  0.00    -0.390 OA
ATOM     74  O1A NTO d 869      64.500  -6.857  19.819  0.00  0.00    -0.572 OA
ATOM     75  O5A NTO d 869      59.226   5.221  11.828  0.00  0.00    -0.391 OA
ATOM     76  O37 NTO d 869      69.111   3.984  13.445  0.00  0.00    -0.572 OA
ATOM     77  O24 NTO d 869      66.630  -4.040  15.370  0.00  0.00    -0.646 OA
ATOM     78  O1H NTO d 869      72.020  -0.240  20.948  0.00  0.00    -0.296 OA
ATOM     79  O22 NTO d 869      66.558  -1.378  14.861  0.00  0.00    -0.340 OA
ATOM     80  O3D NTO d 869      63.617  -3.697  13.217  0.00  0.00    -0.572 OA
ATOM     81  C33 NTO d 869      66.869   2.633  12.709  0.00  0.00     0.067 C 
ATOM     82  S35 NTO d 869      69.332   2.548  13.071  0.00  0.00     0.251 S 
ATOM     83  S3B NTO d 869      63.488  -2.276  12.756  0.00  0.00     0.252 S 
ATOM     84  O4C NTO d 869      61.875   6.657   7.554  0.00  0.00    -0.572 OA
ATOM     85  C39 NTO d 869      64.687  -0.431  11.905  0.00  0.00     0.108 C 
ATOM     86  O16 NTO d 869      66.457  -5.506  20.029  0.00  0.00    -0.254 OA
ATOM     87  O5M NTO d 869      55.597   6.517   9.739  0.00  0.00    -0.364 OA
ATOM     88  O3C NTO d 869      62.537  -2.224  11.597  0.00  0.00    -0.572 OA
ATOM     89  C1K NTO d 869      68.187  -1.819  19.357  0.00  0.00     0.150 C 
ATOM     90  O32 NTO d 869      65.914   1.826  10.634  0.00  0.00    -0.349 OA
ATOM     91  O34 NTO d 869      68.140   2.020  12.475  0.00  0.00    -0.254 OA
ATOM     92  H   NTO d 869      63.052   0.712   7.857  0.00  0.00     0.231 HD
ATOM     93  H   NTO d 869      69.258   1.546  21.103  0.00  0.00     0.231 HD
ATOM     94  H   NTO d 869      62.322   4.665  10.867  0.00  0.00     0.104 H 
ATOM     95  H   NTO d 869      70.640  -2.764  18.591  0.00  0.00     0.089 H 
ATOM     96  H   NTO d 869      55.916   6.830  11.922  0.00  0.00     0.140 HD
ATOM     97  H   NTO d 869      69.300   0.249  18.923  0.00  0.00     0.140 HD
ATOM     98  H   NTO d 869      65.490   0.428   8.078  0.00  0.00     0.231 HD
ATOM     99  H   NTO d 869      54.066   7.605   8.910  0.00  0.00     0.066 H 
ATOM    100  H   NTO d 869      53.568   6.329   9.995  0.00  0.00     0.066 H 
ATOM    101  H   NTO d 869      54.156   5.937   8.397  0.00  0.00     0.066 H 
ATOM    102  H   NTO d 869      68.521  -1.476  15.346  0.00  0.00     0.104 H 
ATOM    103  H   NTO d 869      68.382   0.390  16.909  0.00  0.00     0.091 H 
ATOM    104  H   NTO d 869      58.622   3.457   9.962  0.00  0.00     0.091 H 
ATOM    105  H   NTO d 869      62.398   5.085   8.819  0.00  0.00     0.097 H 
ATOM    106  H   NTO d 869      62.870   2.164   8.254  0.00  0.00     0.091 H 
ATOM    107  H   NTO d 869      62.980  -0.771   9.916  0.00  0.00     0.140 HD
ATOM    108  H   NTO d 869      64.335   3.535  10.397  0.00  0.00     0.092 H 
ATOM    109  H   NTO d 869      57.163   5.530  14.899  0.00  0.00     0.231 HD
ATOM    110  H   NTO d 869      66.423  -1.807  17.526  0.00  0.00     0.092 H 
ATOM    111  H   NTO d 869      57.129   3.765   6.642  0.00  0.00     0.080 H 
ATOM    112  H   NTO d 869      58.826   3.772   7.082  0.00  0.00     0.080 H 
ATOM    113  H   NTO d 869      64.664   4.385   8.324  0.00  0.00     0.210 HD
ATOM    114  H   NTO d 869      55.275   7.074  14.567  0.00  0.00     0.231 HD
ATOM    115  H   NTO d 869      67.453   0.409  14.462  0.00  0.00     0.133 H 
ATOM    116  H   NTO d 869      70.740   2.330  19.332  0.00  0.00     0.231 HD
ATOM    117  H   NTO d 869      69.883  -3.941  21.253  0.00  0.00     0.091 H 
ATOM    118  H   NTO d 869      69.500  -1.356  21.000  0.00  0.00     0.076 H 
ATOM    119  H   NTO d 869      68.475  -4.289  18.626  0.00  0.00     0.090 H 
ATOM    120  H   NTO d 869      65.379   0.316  16.633  0.00  0.00     0.094 H 
ATOM    121  H   NTO d 869      64.787   2.294  12.264  0.00  0.00     0.090 H 
ATOM    122  H   NTO d 869      65.880  -0.770  10.156  0.00  0.00     0.076 H 
ATOM    123  H   NTO d 869      55.419   3.602  12.527  0.00  0.00     0.231 HD
ATOM    124  H   NTO d 869      56.865   4.141  11.722  0.00  0.00     0.076 H 
ATOM    125  H   NTO d 869      71.642  -2.377  21.236  0.00  0.00     0.210 HD
ATOM    126  H   NTO d 869      54.921   4.787  10.536  0.00  0.00     0.131 H 
ATOM    127  H   NTO d 869      66.677  -0.033  12.507  0.00  0.00     0.091 H 
ATOM    128  H   NTO d 869      67.310   2.297  15.920  0.00  0.00     0.210 HD
ATOM    129  H   NTO d 869      64.935   1.237   8.927  0.00  0.00     0.131 H 
ATOM    130  H   NTO d 869      60.329   2.926   8.509  0.00  0.00     0.133 H 
ATOM    131  H   NTO d 869      67.884  -5.194  21.461  0.00  0.00     0.080 H 
ATOM    132  H   NTO d 869      68.362  -6.231  20.126  0.00  0.00     0.080 H 
ATOM    133  H   NTO d 869      57.560   5.631   8.203  0.00  0.00     0.090 H 
ATOM    134  H   NTO d 869      64.088  -2.364   6.492  0.00  0.00     0.231 HD
ATOM    135  H   NTO d 869      70.666  -5.093  18.747  0.00  0.00     0.210 HD
ATOM    136  H   NTO d 869      58.310   6.442  10.444  0.00  0.00     0.089 H 
ATOM    137  H   NTO d 869      66.273   0.190  18.821  0.00  0.00     0.210 HD
ATOM    138  H   NTO d 869      59.184   4.299  12.126  0.00  0.00     0.210 HD
ATOM    139  H   NTO d 869      71.650  -1.023  21.385  0.00  0.00     0.231 HD
ATOM    140  H   NTO d 869      66.697   2.685  13.763  0.00  0.00     0.080 H 
ATOM    141  H   NTO d 869      66.884   3.612  12.276  0.00  0.00     0.080 H 
ATOM    142  H   NTO d 869      63.707  -0.059  12.123  0.00  0.00     0.092 H 
ATOM    143  H   NTO d 869      67.493  -1.017  19.501  0.00  0.00     0.131 H 
ENDROOT
TORSDOF 46
ENDMDL
MODEL 9
REMARK VINA RESULT:      -9.3      2.377      3.101
REMARK  0 active torsions:
REMARK  status: ('A' for Active; 'I' for Inactive)
REMARK       I    between atoms: O3I_1  and  S3H_51 
REMARK       I    between atoms: O1I_2  and  S1G_48 
REMARK       I    between atoms: O54_3  and  C53_28 
REMARK       I    between atoms: O54_3  and  S55_64 
REMARK       I    between atoms: C41_5  and  C43_30 
REMARK       I    between atoms: C1B_6  and  O1C_53 
REMARK       I    between atoms: O4G_7  and  C4F_62 
REMARK       I    between atoms: O4G_7  and  C50_15 
REMARK       I    between atoms: N5G_8  and  C5F_50 
REMARK       I    between atoms: N5G_8  and  S5H_47 
REMARK       I    between atoms: N1F_9  and  C1E_41 
REMARK       I    between atoms: N1F_9  and  S1G_48 
REMARK       I    between atoms: O3K_10  and  S3H_51 
REMARK       I    between atoms: C5N_11  and  O5M_87 
REMARK       I    between atoms: C21_12  and  C23_57 
REMARK       I    between atoms: C26_13  and  O27_73 
REMARK       I    between atoms: C49_16  and  O4A_21 
REMARK       I    between atoms: O2D_17  and  C2C_35 
REMARK       I    between atoms: O2D_17  and  C30_56 
REMARK       I    between atoms: O1L_18  and  C1K_89 
REMARK       I    between atoms: O1L_18  and  C20_27 
REMARK       I    between atoms: C46_20  and  O47_33 
REMARK       I    between atoms: O4A_21  and  S4B_39 
REMARK       I    between atoms: N3G_22  and  C3F_46 
REMARK       I    between atoms: N3G_22  and  S3H_51 
REMARK       I    between atoms: C40_25  and  O3M_29 
REMARK       I    between atoms: O5I_26  and  S5H_47 
REMARK       I    between atoms: C53_28  and  C51_66 
REMARK       I    between atoms: O3M_29  and  C3L_61 
REMARK       I    between atoms: S17_31  and  O16_86 
REMARK       I    between atoms: O5K_34  and  S5H_47 
REMARK       I    between atoms: O1J_37  and  S1G_48 
REMARK       I    between atoms: C12_38  and  O10_70 
REMARK       I    between atoms: C13_42  and  C15_63 
REMARK       I    between atoms: C29_43  and  O2A_60 
REMARK       I    between atoms: C31_45  and  C33_81 
REMARK       I    between atoms: S5H_47  and  O5J_49 
REMARK       I    between atoms: S1G_48  and  O1H_78 
REMARK       I    between atoms: S3H_51  and  O3J_68 
REMARK       I    between atoms: O3A_54  and  C39_85 
REMARK       I    between atoms: O3A_54  and  S3B_83 
REMARK       I    between atoms: C5L_55  and  O5M_87 
REMARK       I    between atoms: C15_63  and  O16_86 
REMARK       I    between atoms: C59_71  and  O5A_75 
REMARK       I    between atoms: C33_81  and  O34_91 
REMARK       I    between atoms: S35_82  and  O34_91 
ROOT
ATOM      1  O3I NTO d 869      68.773   2.661  12.714  0.00  0.00    -0.296 OA
ATOM      2  O1I NTO d 869      55.127  -2.297   6.762  0.00  0.00    -0.296 OA
ATOM      3  O54 NTO d 869      69.641  -0.186  17.740  0.00  0.00    -0.254 OA
ATOM      4  O18 NTO d 869      53.173   3.626  12.378  0.00  0.00    -0.572 OA
ATOM      5  C41 NTO d 869      66.715  -2.036  13.304  0.00  0.00     0.152 C 
ATOM      6  C1B NTO d 869      55.691   1.806   6.467  0.00  0.00     0.083 C 
ATOM      7  O4G NTO d 869      69.048  -2.821  15.412  0.00  0.00    -0.348 OA
ATOM      8  N5G NTO d 869      66.738  -5.259  18.909  0.00  0.00    -0.210 NA
ATOM      9  N1F NTO d 869      56.796  -0.371   6.620  0.00  0.00    -0.210 NA
ATOM     10  O3K NTO d 869      68.218   3.034  10.355  0.00  0.00    -0.296 OA
ATOM     11  C5N NTO d 869      70.070  -4.933  20.831  0.00  0.00     0.007 C 
ATOM     12  C21 NTO d 869      59.969   2.067   8.956  0.00  0.00     0.152 C 
ATOM     13  C26 NTO d 869      59.150  -0.249   9.067  0.00  0.00     0.092 C 
ATOM     14  O4E NTO d 869      72.869  -2.513  13.157  0.00  0.00    -0.572 OA
ATOM     15  C50 NTO d 869      68.590  -2.732  16.769  0.00  0.00     0.095 C 
ATOM     16  C49 NTO d 869      69.297  -1.795  13.250  0.00  0.00     0.134 C 
ATOM     17  O2D NTO d 869      62.502   0.148  10.740  0.00  0.00    -0.348 OA
ATOM     18  O1L NTO d 869      57.697   1.602   8.363  0.00  0.00    -0.348 OA
ATOM     19  O19 NTO d 869      53.212   5.740  11.136  0.00  0.00    -0.572 OA
ATOM     20  C46 NTO d 869      68.641  -0.805  12.287  0.00  0.00     0.094 C 
ATOM     21  O4A NTO d 869      70.702  -1.543  13.335  0.00  0.00    -0.244 OA
ATOM     22  N3G NTO d 869      66.312   2.952  12.078  0.00  0.00    -0.210 NA
ATOM     23  O36 NTO d 869      62.184  -0.815   6.423  0.00  0.00    -0.572 OA
ATOM     24  O57 NTO d 869      71.617   1.143  17.526  0.00  0.00    -0.572 OA
ATOM     25  C40 NTO d 869      67.158  -1.143  12.154  0.00  0.00     0.103 C 
ATOM     26  O5I NTO d 869      64.254  -4.703  19.077  0.00  0.00    -0.296 OA
ATOM     27  C20 NTO d 869      58.748   1.212   9.258  0.00  0.00     0.103 C 
ATOM     28  C53 NTO d 869      70.494  -1.295  17.452  0.00  0.00     0.067 C 
ATOM     29  O3M NTO d 869      66.425   0.088  12.180  0.00  0.00    -0.348 OA
ATOM     30  C43 NTO d 869      65.194  -2.041  13.343  0.00  0.00     0.206 C 
ATOM     31  S17 NTO d 869      54.055   4.679  11.777  0.00  0.00     0.251 S 
ATOM     32  O45 NTO d 869      64.603  -0.938  13.375  0.00  0.00    -0.646 OA
ATOM     33  O47 NTO d 869      69.268  -0.906  11.004  0.00  0.00    -0.390 OA
ATOM     34  O5K NTO d 869      65.233  -6.192  20.762  0.00  0.00    -0.296 OA
ATOM     35  C2C NTO d 869      61.477   0.407   9.765  0.00  0.00     0.160 C 
ATOM     36  O38 NTO d 869      64.404  -0.722   5.404  0.00  0.00    -0.572 OA
ATOM     37  O1J NTO d 869      56.894  -2.390   5.066  0.00  0.00    -0.296 OA
ATOM     38  C12 NTO d 869      54.858   2.828   7.245  0.00  0.00     0.089 C 
ATOM     39  S4B NTO d 869      71.439  -2.602  12.718  0.00  0.00     0.252 S 
ATOM     40  O4D NTO d 869      71.354  -2.472  11.226  0.00  0.00    -0.572 OA
ATOM     41  C1E NTO d 869      55.865   0.537   7.302  0.00  0.00     0.081 C 
ATOM     42  C13 NTO d 869      55.429   3.041   8.649  0.00  0.00     0.090 C 
ATOM     43  C29 NTO d 869      60.320  -0.568  10.000  0.00  0.00     0.110 C 
ATOM     44  O42 NTO d 869      67.233  -1.536  14.550  0.00  0.00    -0.340 OA
ATOM     45  C31 NTO d 869      64.747  -0.473  10.152  0.00  0.00     0.091 C 
ATOM     46  C3F NTO d 869      65.748   2.065  11.045  0.00  0.00     0.083 C 
ATOM     47  S5H NTO d 869      65.473  -4.986  19.903  0.00  0.00     0.156 S 
ATOM     48  S1G NTO d 869      55.943  -1.488   5.796  0.00  0.00     0.156 S 
ATOM     49  O5J NTO d 869      65.762  -3.811  20.788  0.00  0.00    -0.296 OA
ATOM     50  C5F NTO d 869      67.386  -3.987  18.558  0.00  0.00     0.081 C 
ATOM     51  S3H NTO d 869      67.857   3.382  11.768  0.00  0.00     0.156 S 
ATOM     52  O25 NTO d 869      59.020   4.037   8.019  0.00  0.00    -0.646 OA
ATOM     53  O1C NTO d 869      55.032   1.487   5.240  0.00  0.00    -0.391 OA
ATOM     54  O3A NTO d 869      63.478   2.808  11.491  0.00  0.00    -0.247 OA
ATOM     55  C5L NTO d 869      68.588  -3.751  19.476  0.00  0.00     0.149 C 
ATOM     56  C30 NTO d 869      63.776   0.684  10.349  0.00  0.00     0.096 C 
ATOM     57  C23 NTO d 869      59.553   3.528   9.033  0.00  0.00     0.206 C 
ATOM     58  O3E NTO d 869      62.333   1.872  13.385  0.00  0.00    -0.572 OA
ATOM     59  O14 NTO d 869      55.563   1.789   9.341  0.00  0.00    -0.349 OA
ATOM     60  O2A NTO d 869      60.764  -1.904   9.763  0.00  0.00    -0.388 OA
ATOM     61  C3L NTO d 869      66.586   0.792  10.941  0.00  0.00     0.150 C 
ATOM     62  C4F NTO d 869      68.659  -1.678  14.637  0.00  0.00     0.161 C 
ATOM     63  C15 NTO d 869      54.454   3.912   9.447  0.00  0.00     0.067 C 
ATOM     64  S55 NTO d 869      70.121   1.159  17.622  0.00  0.00     0.251 S 
ATOM     65  O58 NTO d 869      69.702   1.935  18.833  0.00  0.00    -0.572 OA
ATOM     66  C51 NTO d 869      69.766  -2.613  17.726  0.00  0.00     0.091 C 
ATOM     67  O56 NTO d 869      69.553   1.800  16.391  0.00  0.00    -0.572 OA
ATOM     68  O3J NTO d 869      68.014   4.862  11.952  0.00  0.00    -0.296 OA
ATOM     69  O44 NTO d 869      64.603  -3.152  13.334  0.00  0.00    -0.646 OA
ATOM     70  O10 NTO d 869      54.887   4.073   6.543  0.00  0.00    -0.390 OA
ATOM     71  C59 NTO d 869      67.823  -4.013  17.093  0.00  0.00     0.083 C 
ATOM     72  O52 NTO d 869      69.321  -2.577  19.092  0.00  0.00    -0.349 OA
ATOM     73  O27 NTO d 869      58.048  -1.104   9.387  0.00  0.00    -0.390 OA
ATOM     74  O1A NTO d 869      54.904   5.286  12.852  0.00  0.00    -0.572 OA
ATOM     75  O5A NTO d 869      66.668  -4.073  16.249  0.00  0.00    -0.391 OA
ATOM     76  O37 NTO d 869      63.725  -2.695   6.695  0.00  0.00    -0.572 OA
ATOM     77  O24 NTO d 869      59.745   4.142  10.109  0.00  0.00    -0.646 OA
ATOM     78  O1H NTO d 869      55.036  -0.802   4.819  0.00  0.00    -0.296 OA
ATOM     79  O22 NTO d 869      61.037   1.770   9.874  0.00  0.00    -0.340 OA
ATOM     80  O3D NTO d 869      62.206   4.268  12.895  0.00  0.00    -0.572 OA
ATOM     81  C33 NTO d 869      64.251  -1.347   8.996  0.00  0.00     0.067 C 
ATOM     82  S35 NTO d 869      63.623  -1.203   6.590  0.00  0.00     0.251 S 
ATOM     83  S3B NTO d 869      63.084   3.053  12.845  0.00  0.00     0.252 S 
ATOM     84  O4C NTO d 869      70.873  -3.925  13.144  0.00  0.00    -0.572 OA
ATOM     85  C39 NTO d 869      64.319   1.652  11.404  0.00  0.00     0.108 C 
ATOM     86  O16 NTO d 869      54.906   4.081  10.792  0.00  0.00    -0.254 OA
ATOM     87  O5M NTO d 869      69.420  -4.915  19.556  0.00  0.00    -0.364 OA
ATOM     88  O3C NTO d 869      64.298   3.295  13.692  0.00  0.00    -0.572 OA
ATOM     89  C1K NTO d 869      56.471   0.915   8.654  0.00  0.00     0.150 C 
ATOM     90  O32 NTO d 869      66.075  -0.007   9.862  0.00  0.00    -0.349 OA
ATOM     91  O34 NTO d 869      64.155  -0.602   7.778  0.00  0.00    -0.254 OA
ATOM     92  H   NTO d 869      68.672   1.704  12.595  0.00  0.00     0.231 HD
ATOM     93  H   NTO d 869      55.717  -2.740   7.391  0.00  0.00     0.231 HD
ATOM     94  H   NTO d 869      67.086  -3.028  13.159  0.00  0.00     0.104 H 
ATOM     95  H   NTO d 869      56.654   2.222   6.256  0.00  0.00     0.089 H 
ATOM     96  H   NTO d 869      67.411  -5.864  19.379  0.00  0.00     0.140 HD
ATOM     97  H   NTO d 869      57.388  -0.833   7.309  0.00  0.00     0.140 HD
ATOM     98  H   NTO d 869      68.121   2.078  10.222  0.00  0.00     0.231 HD
ATOM     99  H   NTO d 869      70.694  -5.800  20.901  0.00  0.00     0.066 H 
ATOM    100  H   NTO d 869      69.334  -4.960  21.607  0.00  0.00     0.066 H 
ATOM    101  H   NTO d 869      70.669  -4.052  20.938  0.00  0.00     0.066 H 
ATOM    102  H   NTO d 869      60.341   1.853   7.975  0.00  0.00     0.104 H 
ATOM    103  H   NTO d 869      59.435  -0.410   8.048  0.00  0.00     0.091 H 
ATOM    104  H   NTO d 869      67.970  -1.867  16.879  0.00  0.00     0.091 H 
ATOM    105  H   NTO d 869      69.146  -2.788  12.881  0.00  0.00     0.097 H 
ATOM    106  H   NTO d 869      68.752   0.191  12.661  0.00  0.00     0.091 H 
ATOM    107  H   NTO d 869      66.282   2.468  12.976  0.00  0.00     0.140 HD
ATOM    108  H   NTO d 869      66.979  -1.667  11.239  0.00  0.00     0.092 H 
ATOM    109  H   NTO d 869      64.067  -5.463  18.505  0.00  0.00     0.231 HD
ATOM    110  H   NTO d 869      58.395   1.344  10.260  0.00  0.00     0.092 H 
ATOM    111  H   NTO d 869      71.366  -1.239  18.070  0.00  0.00     0.080 H 
ATOM    112  H   NTO d 869      70.773  -1.260  16.420  0.00  0.00     0.080 H 
ATOM    113  H   NTO d 869      69.166  -1.809  10.665  0.00  0.00     0.210 HD
ATOM    114  H   NTO d 869      65.045  -6.959  20.197  0.00  0.00     0.231 HD
ATOM    115  H   NTO d 869      61.859   0.262   8.777  0.00  0.00     0.133 H 
ATOM    116  H   NTO d 869      57.476  -2.831   5.705  0.00  0.00     0.231 HD
ATOM    117  H   NTO d 869      53.857   2.462   7.333  0.00  0.00     0.091 H 
ATOM    118  H   NTO d 869      54.915   0.062   7.434  0.00  0.00     0.076 H 
ATOM    119  H   NTO d 869      56.390   3.504   8.559  0.00  0.00     0.090 H 
ATOM    120  H   NTO d 869      59.990  -0.468  11.013  0.00  0.00     0.094 H 
ATOM    121  H   NTO d 869      64.789  -1.036  11.060  0.00  0.00     0.090 H 
ATOM    122  H   NTO d 869      65.750   2.600  10.118  0.00  0.00     0.076 H 
ATOM    123  H   NTO d 869      65.918  -3.025  20.242  0.00  0.00     0.231 HD
ATOM    124  H   NTO d 869      66.692  -3.185  18.691  0.00  0.00     0.076 H 
ATOM    125  H   NTO d 869      54.159   1.109   5.430  0.00  0.00     0.210 HD
ATOM    126  H   NTO d 869      68.215  -3.569  20.462  0.00  0.00     0.131 H 
ATOM    127  H   NTO d 869      63.660   1.231   9.437  0.00  0.00     0.091 H 
ATOM    128  H   NTO d 869      61.060  -1.989   8.844  0.00  0.00     0.210 HD
ATOM    129  H   NTO d 869      67.618   1.008  10.758  0.00  0.00     0.131 H 
ATOM    130  H   NTO d 869      69.007  -0.792  15.126  0.00  0.00     0.133 H 
ATOM    131  H   NTO d 869      53.493   3.443   9.457  0.00  0.00     0.080 H 
ATOM    132  H   NTO d 869      54.395   4.874   8.982  0.00  0.00     0.080 H 
ATOM    133  H   NTO d 869      70.403  -3.460  17.578  0.00  0.00     0.090 H 
ATOM    134  H   NTO d 869      68.931   5.116  11.768  0.00  0.00     0.231 HD
ATOM    135  H   NTO d 869      55.803   4.384   6.475  0.00  0.00     0.210 HD
ATOM    136  H   NTO d 869      68.444  -4.868  16.927  0.00  0.00     0.089 H 
ATOM    137  H   NTO d 869      57.785  -0.962  10.310  0.00  0.00     0.210 HD
ATOM    138  H   NTO d 869      66.113  -3.294  16.406  0.00  0.00     0.210 HD
ATOM    139  H   NTO d 869      54.425  -0.220   5.298  0.00  0.00     0.231 HD
ATOM    140  H   NTO d 869      63.285  -1.734   9.244  0.00  0.00     0.080 H 
ATOM    141  H   NTO d 869      64.954  -2.140   8.850  0.00  0.00     0.080 H 
ATOM    142  H   NTO d 869      64.328   1.162  12.356  0.00  0.00     0.092 H 
ATOM    143  H   NTO d 869      56.649   0.060   9.273  0.00  0.00     0.131 H 
ENDROOT
TORSDOF 46
ENDMDL
MODEL 10
REMARK VINA RESULT:      -9.0      3.021     14.045
REMARK  0 active torsions:
REMARK  status: ('A' for Active; 'I' for Inactive)
REMARK       I    between atoms: O3I_1  and  S3H_51 
REMARK       I    between atoms: O1I_2  and  S1G_48 
REMARK       I    between atoms: O54_3  and  C53_28 
REMARK       I    between atoms: O54_3  and  S55_64 
REMARK       I    between atoms: C41_5  and  C43_30 
REMARK       I    between atoms: C1B_6  and  O1C_53 
REMARK       I    between atoms: O4G_7  and  C4F_62 
REMARK       I    between atoms: O4G_7  and  C50_15 
REMARK       I    between atoms: N5G_8  and  C5F_50 
REMARK       I    between atoms: N5G_8  and  S5H_47 
REMARK       I    between atoms: N1F_9  and  C1E_41 
REMARK       I    between atoms: N1F_9  and  S1G_48 
REMARK       I    between atoms: O3K_10  and  S3H_51 
REMARK       I    between atoms: C5N_11  and  O5M_87 
REMARK       I    between atoms: C21_12  and  C23_57 
REMARK       I    between atoms: C26_13  and  O27_73 
REMARK       I    between atoms: C49_16  and  O4A_21 
REMARK       I    between atoms: O2D_17  and  C2C_35 
REMARK       I    between atoms: O2D_17  and  C30_56 
REMARK       I    between atoms: O1L_18  and  C1K_89 
REMARK       I    between atoms: O1L_18  and  C20_27 
REMARK       I    between atoms: C46_20  and  O47_33 
REMARK       I    between atoms: O4A_21  and  S4B_39 
REMARK       I    between atoms: N3G_22  and  C3F_46 
REMARK       I    between atoms: N3G_22  and  S3H_51 
REMARK       I    between atoms: C40_25  and  O3M_29 
REMARK       I    between atoms: O5I_26  and  S5H_47 
REMARK       I    between atoms: C53_28  and  C51_66 
REMARK       I    between atoms: O3M_29  and  C3L_61 
REMARK       I    between atoms: S17_31  and  O16_86 
REMARK       I    between atoms: O5K_34  and  S5H_47 
REMARK       I    between atoms: O1J_37  and  S1G_48 
REMARK       I    between atoms: C12_38  and  O10_70 
REMARK       I    between atoms: C13_42  and  C15_63 
REMARK       I    between atoms: C29_43  and  O2A_60 
REMARK       I    between atoms: C31_45  and  C33_81 
REMARK       I    between atoms: S5H_47  and  O5J_49 
REMARK       I    between atoms: S1G_48  and  O1H_78 
REMARK       I    between atoms: S3H_51  and  O3J_68 
REMARK       I    between atoms: O3A_54  and  C39_85 
REMARK       I    between atoms: O3A_54  and  S3B_83 
REMARK       I    between atoms: C5L_55  and  O5M_87 
REMARK       I    between atoms: C15_63  and  O16_86 
REMARK       I    between atoms: C59_71  and  O5A_75 
REMARK       I    between atoms: C33_81  and  O34_91 
REMARK       I    between atoms: S35_82  and  O34_91 
ROOT
ATOM      1  O3I NTO d 869      62.870   0.762   7.197  0.00  0.00    -0.296 OA
ATOM      2  O1I NTO d 869      68.706   7.612  20.052  0.00  0.00    -0.296 OA
ATOM      3  O54 NTO d 869      57.056   1.277   7.411  0.00  0.00    -0.254 OA
ATOM      4  O18 NTO d 869      66.445  -0.125  22.390  0.00  0.00    -0.572 OA
ATOM      5  C41 NTO d 869      60.816   4.771   9.716  0.00  0.00     0.152 C 
ATOM      6  C1B NTO d 869      70.531   4.006  19.099  0.00  0.00     0.083 C 
ATOM      7  O4G NTO d 869      58.180   4.635   7.835  0.00  0.00    -0.348 OA
ATOM      8  N5G NTO d 869      54.486   5.381  10.888  0.00  0.00    -0.210 NA
ATOM      9  N1F NTO d 869      69.307   5.934  18.224  0.00  0.00    -0.210 NA
ATOM     10  O3K NTO d 869      65.236   1.396   7.323  0.00  0.00    -0.296 OA
ATOM     11  C5N NTO d 869      52.283   4.319   7.901  0.00  0.00     0.007 C 
ATOM     12  C21 NTO d 869      67.619   2.778  15.282  0.00  0.00     0.152 C 
ATOM     13  C26 NTO d 869      66.731   4.831  16.303  0.00  0.00     0.092 C 
ATOM     14  O4E NTO d 869      59.618   5.325   3.685  0.00  0.00    -0.572 OA
ATOM     15  C50 NTO d 869      57.086   3.986   8.501  0.00  0.00     0.095 C 
ATOM     16  C49 NTO d 869      60.485   4.599   7.149  0.00  0.00     0.134 C 
ATOM     17  O2D NTO d 869      64.776   3.807  13.249  0.00  0.00    -0.348 OA
ATOM     18  O1L NTO d 869      68.381   3.425  17.457  0.00  0.00    -0.348 OA
ATOM     19  O19 NTO d 869      68.408  -1.534  21.968  0.00  0.00    -0.572 OA
ATOM     20  C46 NTO d 869      61.871   4.092   7.551  0.00  0.00     0.094 C 
ATOM     21  O4A NTO d 869      60.252   4.348   5.761  0.00  0.00    -0.244 OA
ATOM     22  N3G NTO d 869      64.012   0.737   9.486  0.00  0.00    -0.210 NA
ATOM     23  O36 NTO d 869      68.307   6.471  12.934  0.00  0.00    -0.572 OA
ATOM     24  O57 NTO d 869      57.422   0.175   5.321  0.00  0.00    -0.572 OA
ATOM     25  C40 NTO d 869      62.126   4.440   9.015  0.00  0.00     0.103 C 
ATOM     26  O5I NTO d 869      55.021   4.781  13.309  0.00  0.00    -0.296 OA
ATOM     27  C20 NTO d 869      67.228   3.418  16.605  0.00  0.00     0.103 C 
ATOM     28  C53 NTO d 869      56.706   2.413   6.620  0.00  0.00     0.067 C 
ATOM     29  O3M NTO d 869      62.737   3.303   9.635  0.00  0.00    -0.348 OA
ATOM     30  C43 NTO d 869      61.060   4.745  11.217  0.00  0.00     0.206 C 
ATOM     31  S17 NTO d 869      67.247  -0.825  21.334  0.00  0.00     0.251 S 
ATOM     32  O45 NTO d 869      61.588   3.723  11.710  0.00  0.00    -0.646 OA
ATOM     33  O47 NTO d 869      62.862   4.721   6.733  0.00  0.00    -0.390 OA
ATOM     34  O5K NTO d 869      52.728   5.447  12.750  0.00  0.00    -0.296 OA
ATOM     35  C2C NTO d 869      65.942   3.966  14.074  0.00  0.00     0.160 C 
ATOM     36  O38 NTO d 869      68.847   6.830  10.577  0.00  0.00    -0.572 OA
ATOM     37  O1J NTO d 869      69.859   8.417  18.045  0.00  0.00    -0.296 OA
ATOM     38  C12 NTO d 869      70.403   2.745  19.959  0.00  0.00     0.089 C 
ATOM     39  S4B NTO d 869      60.238   5.575   5.025  0.00  0.00     0.252 S 
ATOM     40  O4D NTO d 869      61.642   6.075   4.853  0.00  0.00    -0.572 OA
ATOM     41  C1E NTO d 869      69.236   4.816  19.174  0.00  0.00     0.081 C 
ATOM     42  C13 NTO d 869      69.128   1.975  19.610  0.00  0.00     0.090 C 
ATOM     43  C29 NTO d 869      65.550   4.745  15.333  0.00  0.00     0.110 C 
ATOM     44  O42 NTO d 869      59.808   3.805   9.369  0.00  0.00    -0.340 OA
ATOM     45  C31 NTO d 869      64.635   4.638  10.999  0.00  0.00     0.091 C 
ATOM     46  C3F NTO d 869      64.681   1.968   9.946  0.00  0.00     0.083 C 
ATOM     47  S5H NTO d 869      53.942   4.708  12.271  0.00  0.00     0.156 S 
ATOM     48  S1G NTO d 869      69.748   7.284  19.022  0.00  0.00     0.156 S 
ATOM     49  O5J NTO d 869      53.573   3.274  12.032  0.00  0.00    -0.296 OA
ATOM     50  C5F NTO d 869      55.197   4.375  10.085  0.00  0.00     0.081 C 
ATOM     51  S3H NTO d 869      64.179   0.490   7.880  0.00  0.00     0.156 S 
ATOM     52  O25 NTO d 869      69.433   1.365  15.893  0.00  0.00    -0.646 OA
ATOM     53  O1C NTO d 869      71.622   4.799  19.573  0.00  0.00    -0.391 OA
ATOM     54  O3A NTO d 869      65.003   1.085  12.186  0.00  0.00    -0.247 OA
ATOM     55  C5L NTO d 869      54.250   3.791   9.035  0.00  0.00     0.149 C 
ATOM     56  C30 NTO d 869      65.108   3.494  11.887  0.00  0.00     0.096 C 
ATOM     57  C23 NTO d 869      68.221   1.412  15.580  0.00  0.00     0.206 C 
ATOM     58  O3E NTO d 869      63.139   1.141  13.703  0.00  0.00    -0.572 OA
ATOM     59  O14 NTO d 869      67.975   2.828  19.699  0.00  0.00    -0.349 OA
ATOM     60  O2A NTO d 869      65.138   6.064  14.972  0.00  0.00    -0.388 OA
ATOM     61  C3L NTO d 869      64.102   3.177   9.214  0.00  0.00     0.150 C 
ATOM     62  C4F NTO d 869      59.409   3.912   7.994  0.00  0.00     0.161 C 
ATOM     63  C15 NTO d 869      68.947   0.843  20.625  0.00  0.00     0.067 C 
ATOM     64  S55 NTO d 869      57.619   0.107   6.806  0.00  0.00     0.251 S 
ATOM     65  O58 NTO d 869      56.927  -1.106   7.350  0.00  0.00    -0.572 OA
ATOM     66  C51 NTO d 869      56.060   3.492   7.492  0.00  0.00     0.091 C 
ATOM     67  O56 NTO d 869      59.086   0.028   7.108  0.00  0.00    -0.572 OA
ATOM     68  O3J NTO d 869      64.586  -0.932   7.630  0.00  0.00    -0.296 OA
ATOM     69  O44 NTO d 869      60.727   5.754  11.891  0.00  0.00    -0.646 OA
ATOM     70  O10 NTO d 869      71.532   1.905  19.710  0.00  0.00    -0.390 OA
ATOM     71  C59 NTO d 869      56.418   5.010   9.417  0.00  0.00     0.083 C 
ATOM     72  O52 NTO d 869      54.935   2.888   8.151  0.00  0.00    -0.349 OA
ATOM     73  O27 NTO d 869      66.301   5.465  17.511  0.00  0.00    -0.390 OA
ATOM     74  O1A NTO d 869      66.375  -1.816  20.625  0.00  0.00    -0.572 OA
ATOM     75  O5A NTO d 869      57.362   5.403  10.419  0.00  0.00    -0.391 OA
ATOM     76  O37 NTO d 869      67.016   8.084  11.625  0.00  0.00    -0.572 OA
ATOM     77  O24 NTO d 869      67.471   0.409  15.515  0.00  0.00    -0.646 OA
ATOM     78  O1H NTO d 869      71.069   7.056  19.695  0.00  0.00    -0.296 OA
ATOM     79  O22 NTO d 869      66.480   2.676  14.409  0.00  0.00    -0.340 OA
ATOM     80  O3D NTO d 869      64.575  -0.838  13.543  0.00  0.00    -0.572 OA
ATOM     81  C33 NTO d 869      65.406   5.907  11.371  0.00  0.00     0.067 C 
ATOM     82  S35 NTO d 869      67.735   6.768  11.581  0.00  0.00     0.251 S 
ATOM     83  S3B NTO d 869      63.964   0.297  12.776  0.00  0.00     0.252 S 
ATOM     84  O4C NTO d 869      59.424   6.596   5.764  0.00  0.00    -0.572 OA
ATOM     85  C39 NTO d 869      64.456   2.181  11.444  0.00  0.00     0.108 C 
ATOM     86  O16 NTO d 869      67.729   0.135  20.388  0.00  0.00    -0.254 OA
ATOM     87  O5M NTO d 869      53.552   4.825   8.330  0.00  0.00    -0.364 OA
ATOM     88  O3C NTO d 869      63.079  -0.263  11.701  0.00  0.00    -0.572 OA
ATOM     89  C1K NTO d 869      68.068   3.917  18.768  0.00  0.00     0.150 C 
ATOM     90  O32 NTO d 869      64.839   4.347   9.607  0.00  0.00    -0.349 OA
ATOM     91  O34 NTO d 869      66.817   5.734  11.202  0.00  0.00    -0.254 OA
ATOM     92  H   NTO d 869      62.607   1.681   7.358  0.00  0.00     0.231 HD
ATOM     93  H   NTO d 869      67.854   7.759  19.613  0.00  0.00     0.231 HD
ATOM     94  H   NTO d 869      60.475   5.738   9.411  0.00  0.00     0.104 H 
ATOM     95  H   NTO d 869      70.711   3.724  18.083  0.00  0.00     0.089 H 
ATOM     96  H   NTO d 869      53.696   5.742  10.355  0.00  0.00     0.140 HD
ATOM     97  H   NTO d 869      68.393   6.074  17.795  0.00  0.00     0.140 HD
ATOM     98  H   NTO d 869      64.985   2.320   7.478  0.00  0.00     0.231 HD
ATOM     99  H   NTO d 869      51.753   5.084   7.373  0.00  0.00     0.066 H 
ATOM    100  H   NTO d 869      51.714   4.014   8.754  0.00  0.00     0.066 H 
ATOM    101  H   NTO d 869      52.434   3.478   7.255  0.00  0.00     0.066 H 
ATOM    102  H   NTO d 869      68.342   3.382  14.774  0.00  0.00     0.104 H 
ATOM    103  H   NTO d 869      67.525   5.402  15.868  0.00  0.00     0.091 H 
ATOM    104  H   NTO d 869      57.454   3.147   9.055  0.00  0.00     0.091 H 
ATOM    105  H   NTO d 869      60.440   5.654   7.321  0.00  0.00     0.097 H 
ATOM    106  H   NTO d 869      61.919   3.031   7.418  0.00  0.00     0.091 H 
ATOM    107  H   NTO d 869      63.018   0.805   9.704  0.00  0.00     0.140 HD
ATOM    108  H   NTO d 869      62.765   5.295   9.085  0.00  0.00     0.092 H 
ATOM    109  H   NTO d 869      55.259   5.708  13.463  0.00  0.00     0.231 HD
ATOM    110  H   NTO d 869      66.449   2.880  17.104  0.00  0.00     0.092 H 
ATOM    111  H   NTO d 869      56.015   2.114   5.860  0.00  0.00     0.080 H 
ATOM    112  H   NTO d 869      57.593   2.812   6.174  0.00  0.00     0.080 H 
ATOM    113  H   NTO d 869      62.817   5.683   6.854  0.00  0.00     0.210 HD
ATOM    114  H   NTO d 869      52.956   6.377  12.908  0.00  0.00     0.231 HD
ATOM    115  H   NTO d 869      66.698   4.512  13.549  0.00  0.00     0.133 H 
ATOM    116  H   NTO d 869      69.001   8.558  17.615  0.00  0.00     0.231 HD
ATOM    117  H   NTO d 869      70.361   3.032  20.989  0.00  0.00     0.091 H 
ATOM    118  H   NTO d 869      69.101   5.185  20.169  0.00  0.00     0.076 H 
ATOM    119  H   NTO d 869      69.219   1.600  18.612  0.00  0.00     0.090 H 
ATOM    120  H   NTO d 869      64.745   4.231  15.815  0.00  0.00     0.094 H 
ATOM    121  H   NTO d 869      63.586   4.774  11.155  0.00  0.00     0.090 H 
ATOM    122  H   NTO d 869      65.728   1.865   9.746  0.00  0.00     0.076 H 
ATOM    123  H   NTO d 869      54.352   2.787  11.722  0.00  0.00     0.231 HD
ATOM    124  H   NTO d 869      55.533   3.583  10.721  0.00  0.00     0.076 H 
ATOM    125  H   NTO d 869      71.459   5.056  20.494  0.00  0.00     0.210 HD
ATOM    126  H   NTO d 869      53.510   3.213   9.547  0.00  0.00     0.131 H 
ATOM    127  H   NTO d 869      66.168   3.373  11.805  0.00  0.00     0.091 H 
ATOM    128  H   NTO d 869      65.872   6.525  14.536  0.00  0.00     0.210 HD
ATOM    129  H   NTO d 869      64.164   3.066   8.151  0.00  0.00     0.131 H 
ATOM    130  H   NTO d 869      59.267   2.906   7.656  0.00  0.00     0.133 H 
ATOM    131  H   NTO d 869      68.926   1.256  21.612  0.00  0.00     0.080 H 
ATOM    132  H   NTO d 869      69.765   0.159  20.525  0.00  0.00     0.080 H 
ATOM    133  H   NTO d 869      55.732   4.330   6.915  0.00  0.00     0.090 H 
ATOM    134  H   NTO d 869      64.685  -1.078   6.676  0.00  0.00     0.231 HD
ATOM    135  H   NTO d 869      71.550   1.658  18.772  0.00  0.00     0.210 HD
ATOM    136  H   NTO d 869      56.104   5.863   8.852  0.00  0.00     0.089 H 
ATOM    137  H   NTO d 869      65.581   4.951  17.908  0.00  0.00     0.210 HD
ATOM    138  H   NTO d 869      57.640   4.624  10.924  0.00  0.00     0.210 HD
ATOM    139  H   NTO d 869      70.989   6.322  20.325  0.00  0.00     0.231 HD
ATOM    140  H   NTO d 869      65.206   6.148  12.394  0.00  0.00     0.080 H 
ATOM    141  H   NTO d 869      65.086   6.697  10.723  0.00  0.00     0.080 H 
ATOM    142  H   NTO d 869      63.404   2.232  11.633  0.00  0.00     0.092 H 
ATOM    143  H   NTO d 869      67.134   4.440  18.768  0.00  0.00     0.131 H 
ENDROOT
TORSDOF 46
ENDMDL
MODEL 11
REMARK VINA RESULT:      -9.0      3.141     13.893
REMARK  0 active torsions:
REMARK  status: ('A' for Active; 'I' for Inactive)
REMARK       I    between atoms: O3I_1  and  S3H_51 
REMARK       I    between atoms: O1I_2  and  S1G_48 
REMARK       I    between atoms: O54_3  and  C53_28 
REMARK       I    between atoms: O54_3  and  S55_64 
REMARK       I    between atoms: C41_5  and  C43_30 
REMARK       I    between atoms: C1B_6  and  O1C_53 
REMARK       I    between atoms: O4G_7  and  C4F_62 
REMARK       I    between atoms: O4G_7  and  C50_15 
REMARK       I    between atoms: N5G_8  and  C5F_50 
REMARK       I    between atoms: N5G_8  and  S5H_47 
REMARK       I    between atoms: N1F_9  and  C1E_41 
REMARK       I    between atoms: N1F_9  and  S1G_48 
REMARK       I    between atoms: O3K_10  and  S3H_51 
REMARK       I    between atoms: C5N_11  and  O5M_87 
REMARK       I    between atoms: C21_12  and  C23_57 
REMARK       I    between atoms: C26_13  and  O27_73 
REMARK       I    between atoms: C49_16  and  O4A_21 
REMARK       I    between atoms: O2D_17  and  C2C_35 
REMARK       I    between atoms: O2D_17  and  C30_56 
REMARK       I    between atoms: O1L_18  and  C1K_89 
REMARK       I    between atoms: O1L_18  and  C20_27 
REMARK       I    between atoms: C46_20  and  O47_33 
REMARK       I    between atoms: O4A_21  and  S4B_39 
REMARK       I    between atoms: N3G_22  and  C3F_46 
REMARK       I    between atoms: N3G_22  and  S3H_51 
REMARK       I    between atoms: C40_25  and  O3M_29 
REMARK       I    between atoms: O5I_26  and  S5H_47 
REMARK       I    between atoms: C53_28  and  C51_66 
REMARK       I    between atoms: O3M_29  and  C3L_61 
REMARK       I    between atoms: S17_31  and  O16_86 
REMARK       I    between atoms: O5K_34  and  S5H_47 
REMARK       I    between atoms: O1J_37  and  S1G_48 
REMARK       I    between atoms: C12_38  and  O10_70 
REMARK       I    between atoms: C13_42  and  C15_63 
REMARK       I    between atoms: C29_43  and  O2A_60 
REMARK       I    between atoms: C31_45  and  C33_81 
REMARK       I    between atoms: S5H_47  and  O5J_49 
REMARK       I    between atoms: S1G_48  and  O1H_78 
REMARK       I    between atoms: S3H_51  and  O3J_68 
REMARK       I    between atoms: O3A_54  and  C39_85 
REMARK       I    between atoms: O3A_54  and  S3B_83 
REMARK       I    between atoms: C5L_55  and  O5M_87 
REMARK       I    between atoms: C15_63  and  O16_86 
REMARK       I    between atoms: C59_71  and  O5A_75 
REMARK       I    between atoms: C33_81  and  O34_91 
REMARK       I    between atoms: S35_82  and  O34_91 
ROOT
ATOM      1  O3I NTO d 869      63.380   1.055   7.106  0.00  0.00    -0.296 OA
ATOM      2  O1I NTO d 869      69.982   2.714  21.244  0.00  0.00    -0.296 OA
ATOM      3  O54 NTO d 869      57.789   2.684   7.570  0.00  0.00    -0.254 OA
ATOM      4  O18 NTO d 869      66.096  -4.724  21.375  0.00  0.00    -0.572 OA
ATOM      5  C41 NTO d 869      62.091   4.545  10.684  0.00  0.00     0.152 C 
ATOM      6  C1B NTO d 869      71.067  -0.784  19.288  0.00  0.00     0.083 C 
ATOM      7  O4G NTO d 869      59.559   5.484   8.892  0.00  0.00    -0.348 OA
ATOM      8  N5G NTO d 869      55.978   6.104  12.103  0.00  0.00    -0.210 NA
ATOM      9  N1F NTO d 869      70.298   1.520  19.010  0.00  0.00    -0.210 NA
ATOM     10  O3K NTO d 869      65.819   1.124   7.358  0.00  0.00    -0.296 OA
ATOM     11  C5N NTO d 869      53.724   6.391   8.983  0.00  0.00     0.007 C 
ATOM     12  C21 NTO d 869      68.118  -0.276  15.337  0.00  0.00     0.152 C 
ATOM     13  C26 NTO d 869      67.629   1.551  16.908  0.00  0.00     0.092 C 
ATOM     14  O4E NTO d 869      61.270   6.983   5.071  0.00  0.00    -0.572 OA
ATOM     15  C50 NTO d 869      58.330   4.918   9.371  0.00  0.00     0.095 C 
ATOM     16  C49 NTO d 869      61.833   5.163   8.177  0.00  0.00     0.134 C 
ATOM     17  O2D NTO d 869      65.628   1.842  13.729  0.00  0.00    -0.348 OA
ATOM     18  O1L NTO d 869      68.910  -0.429  17.592  0.00  0.00    -0.348 OA
ATOM     19  O19 NTO d 869      67.745  -6.336  20.539  0.00  0.00    -0.572 OA
ATOM     20  C46 NTO d 869      63.069   4.288   8.394  0.00  0.00     0.094 C 
ATOM     21  O4A NTO d 869      61.609   5.360   6.779  0.00  0.00    -0.244 OA
ATOM     22  N3G NTO d 869      64.402   0.161   9.275  0.00  0.00    -0.210 NA
ATOM     23  O36 NTO d 869      69.639   3.696  14.100  0.00  0.00    -0.572 OA
ATOM     24  O57 NTO d 869      58.005   2.152   5.248  0.00  0.00    -0.572 OA
ATOM     25  C40 NTO d 869      63.332   4.157   9.893  0.00  0.00     0.103 C 
ATOM     26  O5I NTO d 869      56.283   4.760  14.250  0.00  0.00    -0.296 OA
ATOM     27  C20 NTO d 869      67.814   0.039  16.794  0.00  0.00     0.103 C 
ATOM     28  C53 NTO d 869      57.711   4.042   7.134  0.00  0.00     0.067 C 
ATOM     29  O3M NTO d 869      63.673   2.791  10.159  0.00  0.00    -0.348 OA
ATOM     30  C43 NTO d 869      62.265   4.055  12.113  0.00  0.00     0.206 C 
ATOM     31  S17 NTO d 869      66.779  -5.256  20.151  0.00  0.00     0.251 S 
ATOM     32  O45 NTO d 869      62.554   2.849  12.290  0.00  0.00    -0.646 OA
ATOM     33  O47 NTO d 869      64.199   4.900   7.766  0.00  0.00    -0.390 OA
ATOM     34  O5K NTO d 869      54.198   6.016  13.944  0.00  0.00    -0.296 OA
ATOM     35  C2C NTO d 869      66.769   1.521  14.542  0.00  0.00     0.160 C 
ATOM     36  O38 NTO d 869      70.333   4.574  11.927  0.00  0.00    -0.572 OA
ATOM     37  O1J NTO d 869      71.353   3.785  19.520  0.00  0.00    -0.296 OA
ATOM     38  C12 NTO d 869      70.651  -2.179  19.764  0.00  0.00     0.089 C 
ATOM     39  S4B NTO d 869      61.875   6.718   6.416  0.00  0.00     0.252 S 
ATOM     40  O4D NTO d 869      63.357   6.943   6.362  0.00  0.00    -0.572 OA
ATOM     41  C1E NTO d 869      69.963   0.223  19.611  0.00  0.00     0.081 C 
ATOM     42  C13 NTO d 869      69.259  -2.541  19.240  0.00  0.00     0.090 C 
ATOM     43  C29 NTO d 869      66.495   1.984  15.976  0.00  0.00     0.110 C 
ATOM     44  O42 NTO d 869      60.921   3.944  10.101  0.00  0.00    -0.340 OA
ATOM     45  C31 NTO d 869      65.749   3.273  11.803  0.00  0.00     0.091 C 
ATOM     46  C3F NTO d 869      65.289   1.050  10.047  0.00  0.00     0.083 C 
ATOM     47  S5H NTO d 869      55.254   5.203  13.254  0.00  0.00     0.156 S 
ATOM     48  S1G NTO d 869      70.974   2.475  20.144  0.00  0.00     0.156 S 
ATOM     49  O5J NTO d 869      54.609   4.000  12.632  0.00  0.00    -0.296 OA
ATOM     50  C5F NTO d 869      56.499   5.236  11.037  0.00  0.00     0.081 C 
ATOM     51  S3H NTO d 869      64.577   0.339   7.660  0.00  0.00     0.156 S 
ATOM     52  O25 NTO d 869      69.580  -2.148  15.494  0.00  0.00    -0.646 OA
ATOM     53  O1C NTO d 869      72.278  -0.397  19.942  0.00  0.00    -0.391 OA
ATOM     54  O3A NTO d 869      65.335  -0.466  11.945  0.00  0.00    -0.247 OA
ATOM     55  C5L NTO d 869      55.495   5.175   9.885  0.00  0.00     0.149 C 
ATOM     56  C30 NTO d 869      65.942   1.856  12.328  0.00  0.00     0.096 C 
ATOM     57  C23 NTO d 869      68.416  -1.765  15.231  0.00  0.00     0.206 C 
ATOM     58  O3E NTO d 869      63.464  -0.446  13.453  0.00  0.00    -0.572 OA
ATOM     59  O14 NTO d 869      68.303  -1.526  19.586  0.00  0.00    -0.349 OA
ATOM     60  O2A NTO d 869      66.375   3.407  16.005  0.00  0.00    -0.388 OA
ATOM     61  C3L NTO d 869      64.999   2.507   9.692  0.00  0.00     0.150 C 
ATOM     62  C4F NTO d 869      60.607   4.507   8.818  0.00  0.00     0.161 C 
ATOM     63  C15 NTO d 869      68.811  -3.847  19.902  0.00  0.00     0.067 C 
ATOM     64  S55 NTO d 869      58.125   1.637   6.651  0.00  0.00     0.251 S 
ATOM     65  O58 NTO d 869      57.179   0.491   6.849  0.00  0.00    -0.572 OA
ATOM     66  C51 NTO d 869      57.265   4.946   8.285  0.00  0.00     0.091 C 
ATOM     67  O56 NTO d 869      59.532   1.175   6.890  0.00  0.00    -0.572 OA
ATOM     68  O3J NTO d 869      64.695  -1.011   7.016  0.00  0.00    -0.296 OA
ATOM     69  O44 NTO d 869      62.119   4.884  13.048  0.00  0.00    -0.646 OA
ATOM     70  O10 NTO d 869      71.593  -3.133  19.268  0.00  0.00    -0.390 OA
ATOM     71  C59 NTO d 869      57.850   5.763  10.550  0.00  0.00     0.083 C 
ATOM     72  O52 NTO d 869      56.015   4.431   8.771  0.00  0.00    -0.349 OA
ATOM     73  O27 NTO d 869      67.291   1.901  18.253  0.00  0.00    -0.390 OA
ATOM     74  O1A NTO d 869      65.752  -5.808  19.211  0.00  0.00    -0.572 OA
ATOM     75  O5A NTO d 869      58.814   5.660  11.602  0.00  0.00    -0.391 OA
ATOM     76  O37 NTO d 869      68.757   5.840  13.319  0.00  0.00    -0.572 OA
ATOM     77  O24 NTO d 869      67.480  -2.533  14.903  0.00  0.00    -0.646 OA
ATOM     78  O1H NTO d 869      72.193   1.801  20.700  0.00  0.00    -0.296 OA
ATOM     79  O22 NTO d 869      67.017   0.106  14.494  0.00  0.00    -0.340 OA
ATOM     80  O3D NTO d 869      64.470  -2.556  12.720  0.00  0.00    -0.572 OA
ATOM     81  C33 NTO d 869      66.748   4.201  12.499  0.00  0.00     0.067 C 
ATOM     82  S35 NTO d 869      69.193   4.468  12.895  0.00  0.00     0.251 S 
ATOM     83  S3B NTO d 869      64.134  -1.153  12.311  0.00  0.00     0.252 S 
ATOM     84  O4C NTO d 869      61.259   7.640   7.426  0.00  0.00    -0.572 OA
ATOM     85  C39 NTO d 869      65.053   0.882  11.549  0.00  0.00     0.108 C 
ATOM     86  O16 NTO d 869      67.484  -4.192  19.500  0.00  0.00    -0.254 OA
ATOM     87  O5M NTO d 869      55.051   6.485   9.510  0.00  0.00    -0.364 OA
ATOM     88  O3C NTO d 869      63.197  -1.197  11.141  0.00  0.00    -0.572 OA
ATOM     89  C1K NTO d 869      68.653  -0.265  18.993  0.00  0.00     0.150 C 
ATOM     90  O32 NTO d 869      65.943   3.343  10.381  0.00  0.00    -0.349 OA
ATOM     91  O34 NTO d 869      68.098   3.793  12.261  0.00  0.00    -0.254 OA
ATOM     92  H   NTO d 869      63.304   1.928   7.522  0.00  0.00     0.231 HD
ATOM     93  H   NTO d 869      69.195   3.150  20.881  0.00  0.00     0.231 HD
ATOM     94  H   NTO d 869      61.967   5.608  10.667  0.00  0.00     0.104 H 
ATOM     95  H   NTO d 869      71.225  -0.805  18.230  0.00  0.00     0.089 H 
ATOM     96  H   NTO d 869      55.301   6.755  11.708  0.00  0.00     0.140 HD
ATOM     97  H   NTO d 869      69.450   1.961  18.654  0.00  0.00     0.140 HD
ATOM     98  H   NTO d 869      65.755   2.001   7.769  0.00  0.00     0.231 HD
ATOM     99  H   NTO d 869      53.383   7.365   8.700  0.00  0.00     0.066 H 
ATOM    100  H   NTO d 869      53.071   5.988   9.728  0.00  0.00     0.066 H 
ATOM    101  H   NTO d 869      53.725   5.751   8.125  0.00  0.00     0.066 H 
ATOM    102  H   NTO d 869      68.968   0.281  15.004  0.00  0.00     0.104 H 
ATOM    103  H   NTO d 869      68.539   2.043  16.634  0.00  0.00     0.091 H 
ATOM    104  H   NTO d 869      58.496   3.901   9.662  0.00  0.00     0.091 H 
ATOM    105  H   NTO d 869      61.998   6.115   8.638  0.00  0.00     0.097 H 
ATOM    106  H   NTO d 869      62.904   3.320   7.971  0.00  0.00     0.091 H 
ATOM    107  H   NTO d 869      63.434   0.371   9.523  0.00  0.00     0.140 HD
ATOM    108  H   NTO d 869      64.129   4.807  10.186  0.00  0.00     0.092 H 
ATOM    109  H   NTO d 869      56.699   5.538  14.652  0.00  0.00     0.231 HD
ATOM    110  H   NTO d 869      66.923  -0.443  17.139  0.00  0.00     0.092 H 
ATOM    111  H   NTO d 869      57.004   4.115   6.334  0.00  0.00     0.080 H 
ATOM    112  H   NTO d 869      58.677   4.356   6.799  0.00  0.00     0.080 H 
ATOM    113  H   NTO d 869      64.347   5.778   8.151  0.00  0.00     0.210 HD
ATOM    114  H   NTO d 869      54.606   6.797  14.350  0.00  0.00     0.231 HD
ATOM    115  H   NTO d 869      67.640   2.021  14.176  0.00  0.00     0.133 H 
ATOM    116  H   NTO d 869      70.560   4.215  19.163  0.00  0.00     0.231 HD
ATOM    117  H   NTO d 869      70.627  -2.186  20.834  0.00  0.00     0.091 H 
ATOM    118  H   NTO d 869      69.867   0.322  20.672  0.00  0.00     0.076 H 
ATOM    119  H   NTO d 869      69.311  -2.635  18.175  0.00  0.00     0.090 H 
ATOM    120  H   NTO d 869      65.583   1.535  16.311  0.00  0.00     0.094 H 
ATOM    121  H   NTO d 869      64.744   3.575  12.011  0.00  0.00     0.090 H 
ATOM    122  H   NTO d 869      66.300   0.792   9.805  0.00  0.00     0.076 H 
ATOM    123  H   NTO d 869      55.283   3.468  12.183  0.00  0.00     0.231 HD
ATOM    124  H   NTO d 869      56.641   4.247  11.420  0.00  0.00     0.076 H 
ATOM    125  H   NTO d 869      72.134  -0.378  20.902  0.00  0.00     0.210 HD
ATOM    126  H   NTO d 869      54.633   4.644  10.230  0.00  0.00     0.131 H 
ATOM    127  H   NTO d 869      66.957   1.546  12.194  0.00  0.00     0.091 H 
ATOM    128  H   NTO d 869      67.204   3.808  15.701  0.00  0.00     0.210 HD
ATOM    129  H   NTO d 869      65.078   2.684   8.639  0.00  0.00     0.131 H 
ATOM    130  H   NTO d 869      60.276   3.686   8.216  0.00  0.00     0.133 H 
ATOM    131  H   NTO d 869      68.836  -3.728  20.965  0.00  0.00     0.080 H 
ATOM    132  H   NTO d 869      69.475  -4.630  19.599  0.00  0.00     0.080 H 
ATOM    133  H   NTO d 869      57.138   5.961   7.971  0.00  0.00     0.090 H 
ATOM    134  H   NTO d 869      64.799  -0.904   6.058  0.00  0.00     0.231 HD
ATOM    135  H   NTO d 869      71.597  -3.108  18.299  0.00  0.00     0.210 HD
ATOM    136  H   NTO d 869      57.739   6.785  10.251  0.00  0.00     0.089 H 
ATOM    137  H   NTO d 869      66.466   1.458  18.506  0.00  0.00     0.210 HD
ATOM    138  H   NTO d 869      58.907   4.731  11.865  0.00  0.00     0.210 HD
ATOM    139  H   NTO d 869      71.940   0.955  21.102  0.00  0.00     0.231 HD
ATOM    140  H   NTO d 869      66.561   4.186  13.552  0.00  0.00     0.080 H 
ATOM    141  H   NTO d 869      66.621   5.188  12.104  0.00  0.00     0.080 H 
ATOM    142  H   NTO d 869      64.027   1.095  11.765  0.00  0.00     0.092 H 
ATOM    143  H   NTO d 869      67.846   0.418  19.158  0.00  0.00     0.131 H 
ENDROOT
TORSDOF 46
ENDMDL
MODEL 12
REMARK VINA RESULT:      -9.0      2.911     13.852
REMARK  0 active torsions:
REMARK  status: ('A' for Active; 'I' for Inactive)
REMARK       I    between atoms: O3I_1  and  S3H_51 
REMARK       I    between atoms: O1I_2  and  S1G_48 
REMARK       I    between atoms: O54_3  and  C53_28 
REMARK       I    between atoms: O54_3  and  S55_64 
REMARK       I    between atoms: C41_5  and  C43_30 
REMARK       I    between atoms: C1B_6  and  O1C_53 
REMARK       I    between atoms: O4G_7  and  C4F_62 
REMARK       I    between atoms: O4G_7  and  C50_15 
REMARK       I    between atoms: N5G_8  and  C5F_50 
REMARK       I    between atoms: N5G_8  and  S5H_47 
REMARK       I    between atoms: N1F_9  and  C1E_41 
REMARK       I    between atoms: N1F_9  and  S1G_48 
REMARK       I    between atoms: O3K_10  and  S3H_51 
REMARK       I    between atoms: C5N_11  and  O5M_87 
REMARK       I    between atoms: C21_12  and  C23_57 
REMARK       I    between atoms: C26_13  and  O27_73 
REMARK       I    between atoms: C49_16  and  O4A_21 
REMARK       I    between atoms: O2D_17  and  C2C_35 
REMARK       I    between atoms: O2D_17  and  C30_56 
REMARK       I    between atoms: O1L_18  and  C1K_89 
REMARK       I    between atoms: O1L_18  and  C20_27 
REMARK       I    between atoms: C46_20  and  O47_33 
REMARK       I    between atoms: O4A_21  and  S4B_39 
REMARK       I    between atoms: N3G_22  and  C3F_46 
REMARK       I    between atoms: N3G_22  and  S3H_51 
REMARK       I    between atoms: C40_25  and  O3M_29 
REMARK       I    between atoms: O5I_26  and  S5H_47 
REMARK       I    between atoms: C53_28  and  C51_66 
REMARK       I    between atoms: O3M_29  and  C3L_61 
REMARK       I    between atoms: S17_31  and  O16_86 
REMARK       I    between atoms: O5K_34  and  S5H_47 
REMARK       I    between atoms: O1J_37  and  S1G_48 
REMARK       I    between atoms: C12_38  and  O10_70 
REMARK       I    between atoms: C13_42  and  C15_63 
REMARK       I    between atoms: C29_43  and  O2A_60 
REMARK       I    between atoms: C31_45  and  C33_81 
REMARK       I    between atoms: S5H_47  and  O5J_49 
REMARK       I    between atoms: S1G_48  and  O1H_78 
REMARK       I    between atoms: S3H_51  and  O3J_68 
REMARK       I    between atoms: O3A_54  and  C39_85 
REMARK       I    between atoms: O3A_54  and  S3B_83 
REMARK       I    between atoms: C5L_55  and  O5M_87 
REMARK       I    between atoms: C15_63  and  O16_86 
REMARK       I    between atoms: C59_71  and  O5A_75 
REMARK       I    between atoms: C33_81  and  O34_91 
REMARK       I    between atoms: S35_82  and  O34_91 
ROOT
ATOM      1  O3I NTO d 869      60.506  -0.125   6.061  0.00  0.00    -0.296 OA
ATOM      2  O1I NTO d 869      69.798   4.681  17.757  0.00  0.00    -0.296 OA
ATOM      3  O54 NTO d 869      55.126   1.873   7.150  0.00  0.00    -0.254 OA
ATOM      4  O18 NTO d 869      65.988  -2.258  20.545  0.00  0.00    -0.572 OA
ATOM      5  C41 NTO d 869      59.969   4.220   8.794  0.00  0.00     0.152 C 
ATOM      6  C1B NTO d 869      70.459   0.748  16.599  0.00  0.00     0.083 C 
ATOM      7  O4G NTO d 869      57.134   4.815   7.340  0.00  0.00    -0.348 OA
ATOM      8  N5G NTO d 869      54.268   6.421  10.906  0.00  0.00    -0.210 NA
ATOM      9  N1F NTO d 869      69.659   2.947  15.888  0.00  0.00    -0.210 NA
ATOM     10  O3K NTO d 869      62.946  -0.129   5.814  0.00  0.00    -0.296 OA
ATOM     11  C5N NTO d 869      51.438   6.035   8.309  0.00  0.00     0.007 C 
ATOM     12  C21 NTO d 869      66.784   0.404  13.292  0.00  0.00     0.152 C 
ATOM     13  C26 NTO d 869      66.624   2.593  14.401  0.00  0.00     0.092 C 
ATOM     14  O4E NTO d 869      58.056   5.205   3.007  0.00  0.00    -0.572 OA
ATOM     15  C50 NTO d 869      56.024   4.456   8.176  0.00  0.00     0.095 C 
ATOM     16  C49 NTO d 869      59.220   4.199   6.311  0.00  0.00     0.134 C 
ATOM     17  O2D NTO d 869      64.031   2.182  11.699  0.00  0.00    -0.348 OA
ATOM     18  O1L NTO d 869      68.008   0.782  15.314  0.00  0.00    -0.348 OA
ATOM     19  O19 NTO d 869      67.431  -4.117  19.853  0.00  0.00    -0.572 OA
ATOM     20  C46 NTO d 869      60.470   3.341   6.506  0.00  0.00     0.094 C 
ATOM     21  O4A NTO d 869      58.722   4.049   4.979  0.00  0.00    -0.244 OA
ATOM     22  N3G NTO d 869      61.936  -0.498   8.149  0.00  0.00    -0.210 NA
ATOM     23  O36 NTO d 869      68.043   3.847  10.804  0.00  0.00    -0.572 OA
ATOM     24  O57 NTO d 869      54.873   0.762   5.047  0.00  0.00    -0.572 OA
ATOM     25  C40 NTO d 869      61.027   3.577   7.908  0.00  0.00     0.103 C 
ATOM     26  O5I NTO d 869      54.989   5.648  13.228  0.00  0.00    -0.296 OA
ATOM     27  C20 NTO d 869      66.777   1.093  14.648  0.00  0.00     0.103 C 
ATOM     28  C53 NTO d 869      54.968   3.080   6.401  0.00  0.00     0.067 C 
ATOM     29  O3M NTO d 869      61.408   2.306   8.447  0.00  0.00    -0.348 OA
ATOM     30  C43 NTO d 869      60.423   4.097  10.241  0.00  0.00     0.206 C 
ATOM     31  S17 NTO d 869      66.412  -3.118  19.392  0.00  0.00     0.251 S 
ATOM     32  O45 NTO d 869      60.736   2.962  10.665  0.00  0.00    -0.646 OA
ATOM     33  O47 NTO d 869      61.455   3.711   5.536  0.00  0.00    -0.390 OA
ATOM     34  O5K NTO d 869      52.890   6.898  13.013  0.00  0.00    -0.296 OA
ATOM     35  C2C NTO d 869      65.310   2.015  12.333  0.00  0.00     0.160 C 
ATOM     36  O38 NTO d 869      68.293   4.108   8.386  0.00  0.00    -0.572 OA
ATOM     37  O1J NTO d 869      70.803   5.205  15.584  0.00  0.00    -0.296 OA
ATOM     38  C12 NTO d 869      70.140  -0.456  17.490  0.00  0.00     0.089 C 
ATOM     39  S4B NTO d 869      58.916   5.255   4.233  0.00  0.00     0.252 S 
ATOM     40  O4D NTO d 869      60.358   5.377   3.840  0.00  0.00    -0.572 OA
ATOM     41  C1E NTO d 869      69.445   1.864  16.856  0.00  0.00     0.081 C 
ATOM     42  C13 NTO d 869      68.671  -0.862  17.353  0.00  0.00     0.090 C 
ATOM     43  C29 NTO d 869      65.329   2.838  13.624  0.00  0.00     0.110 C 
ATOM     44  O42 NTO d 869      58.705   3.557   8.622  0.00  0.00    -0.340 OA
ATOM     45  C31 NTO d 869      63.772   3.072   9.482  0.00  0.00     0.091 C 
ATOM     46  C3F NTO d 869      62.963   0.507   8.481  0.00  0.00     0.083 C 
ATOM     47  S5H NTO d 869      53.783   5.881  12.367  0.00  0.00     0.156 S 
ATOM     48  S1G NTO d 869      70.551   4.118  16.586  0.00  0.00     0.156 S 
ATOM     49  O5J NTO d 869      53.023   4.597  12.213  0.00  0.00    -0.296 OA
ATOM     50  C5F NTO d 869      54.563   5.285  10.021  0.00  0.00     0.081 C 
ATOM     51  S3H NTO d 869      61.787  -0.743   6.541  0.00  0.00     0.156 S 
ATOM     52  O25 NTO d 869      68.240  -1.444  13.644  0.00  0.00    -0.646 OA
ATOM     53  O1C NTO d 869      71.777   1.220  16.887  0.00  0.00    -0.391 OA
ATOM     54  O3A NTO d 869      63.380  -0.481  10.661  0.00  0.00    -0.247 OA
ATOM     55  C5L NTO d 869      53.349   4.990   9.138  0.00  0.00     0.149 C 
ATOM     56  C30 NTO d 869      64.060   1.825  10.308  0.00  0.00     0.096 C 
ATOM     57  C23 NTO d 869      67.048  -1.077  13.518  0.00  0.00     0.206 C 
ATOM     58  O3E NTO d 869      61.847   0.021  12.442  0.00  0.00    -0.572 OA
ATOM     59  O14 NTO d 869      67.806   0.258  17.602  0.00  0.00    -0.349 OA
ATOM     60  O2A NTO d 869      65.223   4.227  13.307  0.00  0.00    -0.388 OA
ATOM     61  C3L NTO d 869      62.614   1.841   7.825  0.00  0.00     0.150 C 
ATOM     62  C4F NTO d 869      58.143   3.794   7.322  0.00  0.00     0.161 C 
ATOM     63  C15 NTO d 869      68.359  -1.932  18.403  0.00  0.00     0.067 C 
ATOM     64  S55 NTO d 869      55.268   0.612   6.486  0.00  0.00     0.251 S 
ATOM     65  O58 NTO d 869      54.376  -0.393   7.150  0.00  0.00    -0.572 OA
ATOM     66  C51 NTO d 869      54.764   4.268   7.343  0.00  0.00     0.091 C 
ATOM     67  O56 NTO d 869      56.693   0.149   6.562  0.00  0.00    -0.572 OA
ATOM     68  O3J NTO d 869      61.769  -2.216   6.257  0.00  0.00    -0.296 OA
ATOM     69  O44 NTO d 869      60.469   5.143  10.940  0.00  0.00    -0.646 OA
ATOM     70  O10 NTO d 869      70.961  -1.555  17.086  0.00  0.00    -0.390 OA
ATOM     71  C59 NTO d 869      55.791   5.597   9.165  0.00  0.00     0.083 C 
ATOM     72  O52 NTO d 869      53.634   3.962   8.176  0.00  0.00    -0.349 OA
ATOM     73  O27 NTO d 869      66.562   3.289  15.649  0.00  0.00    -0.390 OA
ATOM     74  O1A NTO d 869      65.215  -3.832  18.841  0.00  0.00    -0.572 OA
ATOM     75  O5A NTO d 869      56.945   5.709  10.004  0.00  0.00    -0.391 OA
ATOM     76  O37 NTO d 869      67.031   5.769   9.679  0.00  0.00    -0.572 OA
ATOM     77  O24 NTO d 869      66.063  -1.850  13.585  0.00  0.00    -0.646 OA
ATOM     78  O1H NTO d 869      71.853   3.540  17.053  0.00  0.00    -0.296 OA
ATOM     79  O22 NTO d 869      65.538   0.622  12.605  0.00  0.00    -0.340 OA
ATOM     80  O3D NTO d 869      62.678  -2.258  12.100  0.00  0.00    -0.572 OA
ATOM     81  C33 NTO d 869      64.893   4.090   9.711  0.00  0.00     0.067 C 
ATOM     82  S35 NTO d 869      67.369   4.313   9.548  0.00  0.00     0.251 S 
ATOM     83  S3B NTO d 869      62.274  -0.987  11.415  0.00  0.00     0.252 S 
ATOM     84  O4C NTO d 869      58.516   6.434   5.069  0.00  0.00    -0.572 OA
ATOM     85  C39 NTO d 869      63.030   0.736   9.992  0.00  0.00     0.108 C 
ATOM     86  O16 NTO d 869      66.977  -2.293  18.366  0.00  0.00    -0.254 OA
ATOM     87  O5M NTO d 869      52.844   6.186   8.530  0.00  0.00    -0.364 OA
ATOM     88  O3C NTO d 869      61.122  -1.272  10.498  0.00  0.00    -0.572 OA
ATOM     89  C1K NTO d 869      68.036   1.308  16.649  0.00  0.00     0.150 C 
ATOM     90  O32 NTO d 869      63.679   2.771   8.080  0.00  0.00    -0.349 OA
ATOM     91  O34 NTO d 869      66.167   3.561   9.332  0.00  0.00    -0.254 OA
ATOM     92  H   NTO d 869      60.518   0.827   6.244  0.00  0.00     0.231 HD
ATOM     93  H   NTO d 869      68.957   5.054  17.450  0.00  0.00     0.231 HD
ATOM     94  H   NTO d 869      59.848   5.250   8.528  0.00  0.00     0.104 H 
ATOM     95  H   NTO d 869      70.403   0.452  15.573  0.00  0.00     0.089 H 
ATOM     96  H   NTO d 869      53.527   6.988  10.493  0.00  0.00     0.140 HD
ATOM     97  H   NTO d 869      68.758   3.329  15.600  0.00  0.00     0.140 HD
ATOM     98  H   NTO d 869      62.970   0.825   5.990  0.00  0.00     0.231 HD
ATOM     99  H   NTO d 869      51.051   6.924   7.855  0.00  0.00     0.066 H 
ATOM    100  H   NTO d 869      50.945   5.870   9.244  0.00  0.00     0.066 H 
ATOM    101  H   NTO d 869      51.266   5.200   7.662  0.00  0.00     0.066 H 
ATOM    102  H   NTO d 869      67.553   0.812  12.670  0.00  0.00     0.104 H 
ATOM    103  H   NTO d 869      67.464   2.949  13.841  0.00  0.00     0.091 H 
ATOM    104  H   NTO d 869      56.240   3.539   8.682  0.00  0.00     0.091 H 
ATOM    105  H   NTO d 869      59.477   5.226   6.470  0.00  0.00     0.097 H 
ATOM    106  H   NTO d 869      60.221   2.308   6.386  0.00  0.00     0.091 H 
ATOM    107  H   NTO d 869      61.038  -0.179   8.515  0.00  0.00     0.140 HD
ATOM    108  H   NTO d 869      61.869   4.236   7.865  0.00  0.00     0.092 H 
ATOM    109  H   NTO d 869      55.480   6.478  13.328  0.00  0.00     0.231 HD
ATOM    110  H   NTO d 869      65.971   0.764  15.269  0.00  0.00     0.092 H 
ATOM    111  H   NTO d 869      54.116   2.987   5.761  0.00  0.00     0.080 H 
ATOM    112  H   NTO d 869      55.849   3.246   5.818  0.00  0.00     0.080 H 
ATOM    113  H   NTO d 869      61.680   4.648   5.646  0.00  0.00     0.210 HD
ATOM    114  H   NTO d 869      53.373   7.733  13.118  0.00  0.00     0.231 HD
ATOM    115  H   NTO d 869      66.093   2.357  11.690  0.00  0.00     0.133 H 
ATOM    116  H   NTO d 869      69.956   5.574  15.288  0.00  0.00     0.231 HD
ATOM    117  H   NTO d 869      70.331  -0.192  18.509  0.00  0.00     0.091 H 
ATOM    118  H   NTO d 869      69.563   2.232  17.854  0.00  0.00     0.076 H 
ATOM    119  H   NTO d 869      68.510  -1.224  16.359  0.00  0.00     0.090 H 
ATOM    120  H   NTO d 869      64.501   2.540  14.231  0.00  0.00     0.094 H 
ATOM    121  H   NTO d 869      62.830   3.472   9.794  0.00  0.00     0.090 H 
ATOM    122  H   NTO d 869      63.904   0.141   8.125  0.00  0.00     0.076 H 
ATOM    123  H   NTO d 869      53.593   3.932  11.796  0.00  0.00     0.231 HD
ATOM    124  H   NTO d 869      54.774   4.418  10.612  0.00  0.00     0.076 H 
ATOM    125  H   NTO d 869      71.828   1.489  17.819  0.00  0.00     0.210 HD
ATOM    126  H   NTO d 869      52.571   4.612   9.768  0.00  0.00     0.131 H 
ATOM    127  H   NTO d 869      65.027   1.436  10.067  0.00  0.00     0.091 H 
ATOM    128  H   NTO d 869      65.977   4.492  12.757  0.00  0.00     0.210 HD
ATOM    129  H   NTO d 869      62.482   1.742   6.767  0.00  0.00     0.131 H 
ATOM    130  H   NTO d 869      57.696   2.868   7.027  0.00  0.00     0.133 H 
ATOM    131  H   NTO d 869      68.595  -1.550  19.374  0.00  0.00     0.080 H 
ATOM    132  H   NTO d 869      68.946  -2.801  18.191  0.00  0.00     0.080 H 
ATOM    133  H   NTO d 869      54.581   5.176   6.808  0.00  0.00     0.090 H 
ATOM    134  H   NTO d 869      61.680  -2.360   5.302  0.00  0.00     0.231 HD
ATOM    135  H   NTO d 869      70.772  -1.776  16.161  0.00  0.00     0.210 HD
ATOM    136  H   NTO d 869      55.627   6.515   8.640  0.00  0.00     0.089 H 
ATOM    137  H   NTO d 869      65.802   2.970  16.161  0.00  0.00     0.210 HD
ATOM    138  H   NTO d 869      57.085   4.873  10.475  0.00  0.00     0.210 HD
ATOM    139  H   NTO d 869      71.682   2.838  17.701  0.00  0.00     0.231 HD
ATOM    140  H   NTO d 869      64.920   4.351  10.748  0.00  0.00     0.080 H 
ATOM    141  H   NTO d 869      64.694   4.950   9.106  0.00  0.00     0.080 H 
ATOM    142  H   NTO d 869      62.069   1.054  10.338  0.00  0.00     0.092 H 
ATOM    143  H   NTO d 869      67.281   2.054  16.782  0.00  0.00     0.131 H 
ENDROOT
TORSDOF 46
ENDMDL
MODEL 13
REMARK VINA RESULT:      -8.6      3.561     14.053
REMARK  0 active torsions:
REMARK  status: ('A' for Active; 'I' for Inactive)
REMARK       I    between atoms: O3I_1  and  S3H_51 
REMARK       I    between atoms: O1I_2  and  S1G_48 
REMARK       I    between atoms: O54_3  and  C53_28 
REMARK       I    between atoms: O54_3  and  S55_64 
REMARK       I    between atoms: C41_5  and  C43_30 
REMARK       I    between atoms: C1B_6  and  O1C_53 
REMARK       I    between atoms: O4G_7  and  C4F_62 
REMARK       I    between atoms: O4G_7  and  C50_15 
REMARK       I    between atoms: N5G_8  and  C5F_50 
REMARK       I    between atoms: N5G_8  and  S5H_47 
REMARK       I    between atoms: N1F_9  and  C1E_41 
REMARK       I    between atoms: N1F_9  and  S1G_48 
REMARK       I    between atoms: O3K_10  and  S3H_51 
REMARK       I    between atoms: C5N_11  and  O5M_87 
REMARK       I    between atoms: C21_12  and  C23_57 
REMARK       I    between atoms: C26_13  and  O27_73 
REMARK       I    between atoms: C49_16  and  O4A_21 
REMARK       I    between atoms: O2D_17  and  C2C_35 
REMARK       I    between atoms: O2D_17  and  C30_56 
REMARK       I    between atoms: O1L_18  and  C1K_89 
REMARK       I    between atoms: O1L_18  and  C20_27 
REMARK       I    between atoms: C46_20  and  O47_33 
REMARK       I    between atoms: O4A_21  and  S4B_39 
REMARK       I    between atoms: N3G_22  and  C3F_46 
REMARK       I    between atoms: N3G_22  and  S3H_51 
REMARK       I    between atoms: C40_25  and  O3M_29 
REMARK       I    between atoms: O5I_26  and  S5H_47 
REMARK       I    between atoms: C53_28  and  C51_66 
REMARK       I    between atoms: O3M_29  and  C3L_61 
REMARK       I    between atoms: S17_31  and  O16_86 
REMARK       I    between atoms: O5K_34  and  S5H_47 
REMARK       I    between atoms: O1J_37  and  S1G_48 
REMARK       I    between atoms: C12_38  and  O10_70 
REMARK       I    between atoms: C13_42  and  C15_63 
REMARK       I    between atoms: C29_43  and  O2A_60 
REMARK       I    between atoms: C31_45  and  C33_81 
REMARK       I    between atoms: S5H_47  and  O5J_49 
REMARK       I    between atoms: S1G_48  and  O1H_78 
REMARK       I    between atoms: S3H_51  and  O3J_68 
REMARK       I    between atoms: O3A_54  and  C39_85 
REMARK       I    between atoms: O3A_54  and  S3B_83 
REMARK       I    between atoms: C5L_55  and  O5M_87 
REMARK       I    between atoms: C15_63  and  O16_86 
REMARK       I    between atoms: C59_71  and  O5A_75 
REMARK       I    between atoms: C33_81  and  O34_91 
REMARK       I    between atoms: S35_82  and  O34_91 
ROOT
ATOM      1  O3I NTO d 869      57.531   2.852   3.599  0.00  0.00    -0.296 OA
ATOM      2  O1I NTO d 869      66.136   1.015  16.592  0.00  0.00    -0.296 OA
ATOM      3  O54 NTO d 869      51.999   3.722   5.258  0.00  0.00    -0.254 OA
ATOM      4  O18 NTO d 869      62.732  -6.491  15.003  0.00  0.00    -0.572 OA
ATOM      5  C41 NTO d 869      56.621   5.022   8.192  0.00  0.00     0.152 C 
ATOM      6  C1B NTO d 869      67.097  -1.649  13.555  0.00  0.00     0.083 C 
ATOM      7  O4G NTO d 869      53.794   6.183   7.112  0.00  0.00    -0.348 OA
ATOM      8  N5G NTO d 869      50.724   5.500  10.803  0.00  0.00    -0.210 NA
ATOM      9  N1F NTO d 869      66.169   0.551  14.081  0.00  0.00    -0.210 NA
ATOM     10  O3K NTO d 869      59.972   3.084   3.537  0.00  0.00    -0.296 OA
ATOM     11  C5N NTO d 869      48.003   6.450   8.235  0.00  0.00     0.007 C 
ATOM     12  C21 NTO d 869      63.549  -0.319  10.359  0.00  0.00     0.152 C 
ATOM     13  C26 NTO d 869      63.209   0.923  12.454  0.00  0.00     0.092 C 
ATOM     14  O4E NTO d 869      54.810   8.878   3.723  0.00  0.00    -0.572 OA
ATOM     15  C50 NTO d 869      52.687   5.385   7.557  0.00  0.00     0.095 C 
ATOM     16  C49 NTO d 869      55.945   6.306   6.042  0.00  0.00     0.134 C 
ATOM     17  O2D NTO d 869      60.728   1.917   9.799  0.00  0.00    -0.348 OA
ATOM     18  O1L NTO d 869      64.687  -1.035  12.341  0.00  0.00    -0.348 OA
ATOM     19  O19 NTO d 869      64.317  -7.624  13.514  0.00  0.00    -0.572 OA
ATOM     20  C46 NTO d 869      57.246   5.531   5.823  0.00  0.00     0.094 C 
ATOM     21  O4A NTO d 869      55.497   6.874   4.809  0.00  0.00    -0.244 OA
ATOM     22  N3G NTO d 869      58.923   1.477   5.247  0.00  0.00    -0.210 NA
ATOM     23  O36 NTO d 869      64.641   3.971  10.177  0.00  0.00    -0.572 OA
ATOM     24  O57 NTO d 869      51.882   3.904   2.876  0.00  0.00    -0.572 OA
ATOM     25  C40 NTO d 869      57.744   5.001   7.166  0.00  0.00     0.103 C 
ATOM     26  O5I NTO d 869      51.430   3.632  12.390  0.00  0.00    -0.296 OA
ATOM     27  C20 NTO d 869      63.457  -0.467  11.870  0.00  0.00     0.103 C 
ATOM     28  C53 NTO d 869      51.779   5.133   5.261  0.00  0.00     0.067 C 
ATOM     29  O3M NTO d 869      58.197   3.657   6.964  0.00  0.00    -0.348 OA
ATOM     30  C43 NTO d 869      57.040   4.161   9.374  0.00  0.00     0.206 C 
ATOM     31  S17 NTO d 869      63.246  -6.578  13.598  0.00  0.00     0.251 S 
ATOM     32  O45 NTO d 869      57.418   2.990   9.143  0.00  0.00    -0.646 OA
ATOM     33  O47 NTO d 869      58.230   6.406   5.263  0.00  0.00    -0.390 OA
ATOM     34  O5K NTO d 869      49.257   4.712  12.750  0.00  0.00    -0.296 OA
ATOM     35  C2C NTO d 869      61.997   1.490  10.322  0.00  0.00     0.160 C 
ATOM     36  O38 NTO d 869      64.941   5.500   8.294  0.00  0.00    -0.572 OA
ATOM     37  O1J NTO d 869      67.163   2.666  15.101  0.00  0.00    -0.296 OA
ATOM     38  C12 NTO d 869      66.836  -3.156  13.643  0.00  0.00     0.089 C 
ATOM     39  S4B NTO d 869      55.629   8.298   4.835  0.00  0.00     0.252 S 
ATOM     40  O4D NTO d 869      57.070   8.673   4.657  0.00  0.00    -0.572 OA
ATOM     41  C1E NTO d 869      66.002  -0.890  14.306  0.00  0.00     0.081 C 
ATOM     42  C13 NTO d 869      65.402  -3.486  13.222  0.00  0.00     0.090 C 
ATOM     43  C29 NTO d 869      61.923   1.492  11.851  0.00  0.00     0.110 C 
ATOM     44  O42 NTO d 869      55.410   4.502   7.615  0.00  0.00    -0.340 OA
ATOM     45  C31 NTO d 869      60.471   3.847   8.390  0.00  0.00     0.091 C 
ATOM     46  C3F NTO d 869      59.869   2.189   6.126  0.00  0.00     0.083 C 
ATOM     47  S5H NTO d 869      50.236   4.239  11.716  0.00  0.00     0.156 S 
ATOM     48  S1G NTO d 869      66.958   1.201  15.350  0.00  0.00     0.156 S 
ATOM     49  O5J NTO d 869      49.571   3.209  10.854  0.00  0.00    -0.296 OA
ATOM     50  C5F NTO d 869      51.121   5.030   9.467  0.00  0.00     0.081 C 
ATOM     51  S3H NTO d 869      58.837   2.128   3.751  0.00  0.00     0.156 S 
ATOM     52  O25 NTO d 869      65.118  -2.003   9.757  0.00  0.00    -0.646 OA
ATOM     53  O1C NTO d 869      68.371  -1.350  14.130  0.00  0.00    -0.391 OA
ATOM     54  O3A NTO d 869      60.291   0.203   7.461  0.00  0.00    -0.247 OA
ATOM     55  C5L NTO d 869      49.956   5.205   8.492  0.00  0.00     0.149 C 
ATOM     56  C30 NTO d 869      60.821   2.365   8.437  0.00  0.00     0.096 C 
ATOM     57  C23 NTO d 869      63.908  -1.677   9.775  0.00  0.00     0.206 C 
ATOM     58  O3E NTO d 869      58.677  -0.395   9.138  0.00  0.00    -0.572 OA
ATOM     59  O14 NTO d 869      64.457  -2.713  13.977  0.00  0.00    -0.349 OA
ATOM     60  O2A NTO d 869      61.731   2.828  12.320  0.00  0.00    -0.388 OA
ATOM     61  C3L NTO d 869      59.448   3.651   6.265  0.00  0.00     0.150 C 
ATOM     62  C4F NTO d 869      54.870   5.376   6.612  0.00  0.00     0.161 C 
ATOM     63  C15 NTO d 869      65.134  -4.965  13.516  0.00  0.00     0.067 C 
ATOM     64  S55 NTO d 869      52.245   3.022   4.033  0.00  0.00     0.251 S 
ATOM     65  O58 NTO d 869      51.406   1.781   4.001  0.00  0.00    -0.572 OA
ATOM     66  C51 NTO d 869      51.468   5.620   6.679  0.00  0.00     0.091 C 
ATOM     67  O56 NTO d 869      53.695   2.651   3.936  0.00  0.00    -0.572 OA
ATOM     68  O3J NTO d 869      58.928   1.039   2.723  0.00  0.00    -0.296 OA
ATOM     69  O44 NTO d 869      56.995   4.668  10.525  0.00  0.00    -0.646 OA
ATOM     70  O10 NTO d 869      67.741  -3.829  12.765  0.00  0.00    -0.390 OA
ATOM     71  C59 NTO d 869      52.349   5.805   8.987  0.00  0.00     0.083 C 
ATOM     72  O52 NTO d 869      50.338   4.867   7.148  0.00  0.00    -0.349 OA
ATOM     73  O27 NTO d 869      63.064   0.837  13.875  0.00  0.00    -0.390 OA
ATOM     74  O1A NTO d 869      62.117  -6.935  12.679  0.00  0.00    -0.572 OA
ATOM     75  O5A NTO d 869      53.468   5.498   9.824  0.00  0.00    -0.391 OA
ATOM     76  O37 NTO d 869      63.532   6.152  10.194  0.00  0.00    -0.572 OA
ATOM     77  O24 NTO d 869      62.977  -2.406   9.358  0.00  0.00    -0.646 OA
ATOM     78  O1H NTO d 869      68.283   0.518  15.514  0.00  0.00    -0.296 OA
ATOM     79  O22 NTO d 869      62.312   0.181   9.821  0.00  0.00    -0.340 OA
ATOM     80  O3D NTO d 869      59.671  -2.096   7.683  0.00  0.00    -0.572 OA
ATOM     81  C33 NTO d 869      61.514   4.629   9.194  0.00  0.00     0.067 C 
ATOM     82  S35 NTO d 869      63.972   5.009   9.327  0.00  0.00     0.251 S 
ATOM     83  S3B NTO d 869      59.200  -0.674   7.760  0.00  0.00     0.252 S 
ATOM     84  O4C NTO d 869      55.126   8.826   6.147  0.00  0.00    -0.572 OA
ATOM     85  C39 NTO d 869      59.877   1.573   7.526  0.00  0.00     0.108 C 
ATOM     86  O16 NTO d 869      63.782  -5.308  13.208  0.00  0.00    -0.254 OA
ATOM     87  O5M NTO d 869      49.388   6.517   8.587  0.00  0.00    -0.364 OA
ATOM     88  O3C NTO d 869      58.098  -0.472   6.764  0.00  0.00    -0.572 OA
ATOM     89  C1K NTO d 869      64.641  -1.307  13.748  0.00  0.00     0.150 C 
ATOM     90  O32 NTO d 869      60.440   4.342   7.041  0.00  0.00    -0.349 OA
ATOM     91  O34 NTO d 869      62.832   4.441   8.670  0.00  0.00    -0.254 OA
ATOM     92  H   NTO d 869      57.472   3.556   4.263  0.00  0.00     0.231 HD
ATOM     93  H   NTO d 869      65.280   1.458  16.482  0.00  0.00     0.231 HD
ATOM     94  H   NTO d 869      56.437   6.027   8.511  0.00  0.00     0.104 H 
ATOM     95  H   NTO d 869      67.091  -1.349  12.528  0.00  0.00     0.089 H 
ATOM     96  H   NTO d 869      49.959   6.167  10.712  0.00  0.00     0.140 HD
ATOM     97  H   NTO d 869      65.253   0.990  13.988  0.00  0.00     0.140 HD
ATOM     98  H   NTO d 869      59.925   3.795   4.196  0.00  0.00     0.231 HD
ATOM     99  H   NTO d 869      47.569   7.425   8.303  0.00  0.00     0.066 H 
ATOM    100  H   NTO d 869      47.496   5.787   8.904  0.00  0.00     0.066 H 
ATOM    101  H   NTO d 869      47.907   6.086   7.233  0.00  0.00     0.066 H 
ATOM    102  H   NTO d 869      64.306   0.392  10.099  0.00  0.00     0.104 H 
ATOM    103  H   NTO d 869      64.038   1.560  12.223  0.00  0.00     0.091 H 
ATOM    104  H   NTO d 869      52.952   4.350   7.507  0.00  0.00     0.091 H 
ATOM    105  H   NTO d 869      56.127   7.096   6.740  0.00  0.00     0.097 H 
ATOM    106  H   NTO d 869      57.071   4.715   5.155  0.00  0.00     0.091 H 
ATOM    107  H   NTO d 869      57.996   1.511   5.671  0.00  0.00     0.140 HD
ATOM    108  H   NTO d 869      58.540   5.615   7.532  0.00  0.00     0.092 H 
ATOM    109  H   NTO d 869      51.860   4.299  12.948  0.00  0.00     0.231 HD
ATOM    110  H   NTO d 869      62.658  -1.112  12.169  0.00  0.00     0.092 H 
ATOM    111  H   NTO d 869      50.954   5.364   4.620  0.00  0.00     0.080 H 
ATOM    112  H   NTO d 869      52.664   5.624   4.912  0.00  0.00     0.080 H 
ATOM    113  H   NTO d 869      58.387   7.146   5.871  0.00  0.00     0.210 HD
ATOM    114  H   NTO d 869      49.679   5.380  13.314  0.00  0.00     0.231 HD
ATOM    115  H   NTO d 869      62.772   2.157  10.010  0.00  0.00     0.133 H 
ATOM    116  H   NTO d 869      66.302   3.100  14.997  0.00  0.00     0.231 HD
ATOM    117  H   NTO d 869      66.979  -3.472  14.655  0.00  0.00     0.091 H 
ATOM    118  H   NTO d 869      66.066  -1.111  15.351  0.00  0.00     0.076 H 
ATOM    119  H   NTO d 869      65.295  -3.265  12.180  0.00  0.00     0.090 H 
ATOM    120  H   NTO d 869      61.100   0.879  12.154  0.00  0.00     0.094 H 
ATOM    121  H   NTO d 869      59.496   3.976   8.809  0.00  0.00     0.090 H 
ATOM    122  H   NTO d 869      60.843   2.112   5.688  0.00  0.00     0.076 H 
ATOM    123  H   NTO d 869      50.196   2.897  10.182  0.00  0.00     0.231 HD
ATOM    124  H   NTO d 869      51.374   3.992   9.516  0.00  0.00     0.076 H 
ATOM    125  H   NTO d 869      68.376  -1.622  15.062  0.00  0.00     0.210 HD
ATOM    126  H   NTO d 869      49.188   4.515   8.773  0.00  0.00     0.131 H 
ATOM    127  H   NTO d 869      61.819   2.207   8.085  0.00  0.00     0.091 H 
ATOM    128  H   NTO d 869      62.480   3.378  12.043  0.00  0.00     0.210 HD
ATOM    129  H   NTO d 869      59.354   4.130   5.312  0.00  0.00     0.131 H 
ATOM    130  H   NTO d 869      54.496   4.735   5.842  0.00  0.00     0.133 H 
ATOM    131  H   NTO d 869      65.316  -5.155  14.553  0.00  0.00     0.080 H 
ATOM    132  H   NTO d 869      65.785  -5.558  12.909  0.00  0.00     0.080 H 
ATOM    133  H   NTO d 869      51.238   6.665   6.701  0.00  0.00     0.090 H 
ATOM    134  H   NTO d 869      58.877   1.426   1.836  0.00  0.00     0.231 HD
ATOM    135  H   NTO d 869      67.594  -3.527  11.856  0.00  0.00     0.210 HD
ATOM    136  H   NTO d 869      52.138   6.853   9.024  0.00  0.00     0.089 H 
ATOM    137  H   NTO d 869      62.313   0.261  14.089  0.00  0.00     0.210 HD
ATOM    138  H   NTO d 869      53.652   4.547   9.783  0.00  0.00     0.210 HD
ATOM    139  H   NTO d 869      68.142  -0.428  15.674  0.00  0.00     0.231 HD
ATOM    140  H   NTO d 869      61.493   4.293  10.210  0.00  0.00     0.080 H 
ATOM    141  H   NTO d 869      61.273   5.670   9.132  0.00  0.00     0.080 H 
ATOM    142  H   NTO d 869      58.887   1.614   7.930  0.00  0.00     0.092 H 
ATOM    143  H   NTO d 869      63.833  -0.782  14.214  0.00  0.00     0.131 H 
ENDROOT
TORSDOF 46
ENDMDL
MODEL 14
REMARK VINA RESULT:      -8.4      5.271     10.092
REMARK  0 active torsions:
REMARK  status: ('A' for Active; 'I' for Inactive)
REMARK       I    between atoms: O3I_1  and  S3H_51 
REMARK       I    between atoms: O1I_2  and  S1G_48 
REMARK       I    between atoms: O54_3  and  C53_28 
REMARK       I    between atoms: O54_3  and  S55_64 
REMARK       I    between atoms: C41_5  and  C43_30 
REMARK       I    between atoms: C1B_6  and  O1C_53 
REMARK       I    between atoms: O4G_7  and  C4F_62 
REMARK       I    between atoms: O4G_7  and  C50_15 
REMARK       I    between atoms: N5G_8  and  C5F_50 
REMARK       I    between atoms: N5G_8  and  S5H_47 
REMARK       I    between atoms: N1F_9  and  C1E_41 
REMARK       I    between atoms: N1F_9  and  S1G_48 
REMARK       I    between atoms: O3K_10  and  S3H_51 
REMARK       I    between atoms: C5N_11  and  O5M_87 
REMARK       I    between atoms: C21_12  and  C23_57 
REMARK       I    between atoms: C26_13  and  O27_73 
REMARK       I    between atoms: C49_16  and  O4A_21 
REMARK       I    between atoms: O2D_17  and  C2C_35 
REMARK       I    between atoms: O2D_17  and  C30_56 
REMARK       I    between atoms: O1L_18  and  C1K_89 
REMARK       I    between atoms: O1L_18  and  C20_27 
REMARK       I    between atoms: C46_20  and  O47_33 
REMARK       I    between atoms: O4A_21  and  S4B_39 
REMARK       I    between atoms: N3G_22  and  C3F_46 
REMARK       I    between atoms: N3G_22  and  S3H_51 
REMARK       I    between atoms: C40_25  and  O3M_29 
REMARK       I    between atoms: O5I_26  and  S5H_47 
REMARK       I    between atoms: C53_28  and  C51_66 
REMARK       I    between atoms: O3M_29  and  C3L_61 
REMARK       I    between atoms: S17_31  and  O16_86 
REMARK       I    between atoms: O5K_34  and  S5H_47 
REMARK       I    between atoms: O1J_37  and  S1G_48 
REMARK       I    between atoms: C12_38  and  O10_70 
REMARK       I    between atoms: C13_42  and  C15_63 
REMARK       I    between atoms: C29_43  and  O2A_60 
REMARK       I    between atoms: C31_45  and  C33_81 
REMARK       I    between atoms: S5H_47  and  O5J_49 
REMARK       I    between atoms: S1G_48  and  O1H_78 
REMARK       I    between atoms: S3H_51  and  O3J_68 
REMARK       I    between atoms: O3A_54  and  C39_85 
REMARK       I    between atoms: O3A_54  and  S3B_83 
REMARK       I    between atoms: C5L_55  and  O5M_87 
REMARK       I    between atoms: C15_63  and  O16_86 
REMARK       I    between atoms: C59_71  and  O5A_75 
REMARK       I    between atoms: C33_81  and  O34_91 
REMARK       I    between atoms: S35_82  and  O34_91 
ROOT
ATOM      1  O3I NTO d 869      65.047  -1.567   6.686  0.00  0.00    -0.296 OA
ATOM      2  O1I NTO d 869      54.161   8.289  12.216  0.00  0.00    -0.296 OA
ATOM      3  O54 NTO d 869      68.798   1.565   3.487  0.00  0.00    -0.254 OA
ATOM      4  O18 NTO d 869      51.740   6.319   4.425  0.00  0.00    -0.572 OA
ATOM      5  C41 NTO d 869      65.746   3.415   7.838  0.00  0.00     0.152 C 
ATOM      6  C1B NTO d 869      52.617   4.688  10.841  0.00  0.00     0.083 C 
ATOM      7  O4G NTO d 869      68.739   3.308   6.598  0.00  0.00    -0.348 OA
ATOM      8  N5G NTO d 869      69.180   7.476   4.160  0.00  0.00    -0.210 NA
ATOM      9  N1F NTO d 869      54.582   5.811  11.768  0.00  0.00    -0.210 NA
ATOM     10  O3K NTO d 869      63.612  -2.203   8.571  0.00  0.00    -0.296 OA
ATOM     11  C5N NTO d 869      72.410   5.890   2.760  0.00  0.00     0.007 C 
ATOM     12  C21 NTO d 869      56.844   2.781   9.090  0.00  0.00     0.152 C 
ATOM     13  C26 NTO d 869      57.286   5.078   9.846  0.00  0.00     0.092 C 
ATOM     14  O4E NTO d 869      70.945   0.301   9.022  0.00  0.00    -0.572 OA
ATOM     15  C50 NTO d 869      68.788   3.871   5.279  0.00  0.00     0.095 C 
ATOM     16  C49 NTO d 869      67.726   1.767   8.143  0.00  0.00     0.134 C 
ATOM     17  O2D NTO d 869      60.413   3.356   8.642  0.00  0.00    -0.348 OA
ATOM     18  O1L NTO d 869      55.000   4.251   9.502  0.00  0.00    -0.348 OA
ATOM     19  O19 NTO d 869      50.365   4.302   4.660  0.00  0.00    -0.572 OA
ATOM     20  C46 NTO d 869      66.401   1.093   8.503  0.00  0.00     0.094 C 
ATOM     21  O4A NTO d 869      68.786   0.807   8.156  0.00  0.00    -0.244 OA
ATOM     22  N3G NTO d 869      62.683  -0.594   6.794  0.00  0.00    -0.210 NA
ATOM     23  O36 NTO d 869      59.123   3.087  12.876  0.00  0.00    -0.572 OA
ATOM     24  O57 NTO d 869      69.722  -0.638   3.396  0.00  0.00    -0.572 OA
ATOM     25  C40 NTO d 869      65.301   2.150   8.558  0.00  0.00     0.103 C 
ATOM     26  O5I NTO d 869      66.951   8.479   3.432  0.00  0.00    -0.296 OA
ATOM     27  C20 NTO d 869      56.345   4.216   9.007  0.00  0.00     0.103 C 
ATOM     28  C53 NTO d 869      69.911   1.873   4.328  0.00  0.00     0.067 C 
ATOM     29  O3M NTO d 869      64.140   1.608   7.918  0.00  0.00    -0.348 OA
ATOM     30  C43 NTO d 869      64.520   4.281   7.595  0.00  0.00     0.206 C 
ATOM     31  S17 NTO d 869      51.766   4.836   4.646  0.00  0.00     0.251 S 
ATOM     32  O45 NTO d 869      63.536   3.760   7.022  0.00  0.00    -0.646 OA
ATOM     33  O47 NTO d 869      66.521   0.465   9.783  0.00  0.00    -0.390 OA
ATOM     34  O5K NTO d 869      69.019   9.561   2.680  0.00  0.00    -0.296 OA
ATOM     35  C2C NTO d 869      59.123   3.457   9.267  0.00  0.00     0.160 C 
ATOM     36  O38 NTO d 869      60.545   1.488  14.059  0.00  0.00    -0.572 OA
ATOM     37  O1J NTO d 869      55.067   6.902  14.021  0.00  0.00    -0.296 OA
ATOM     38  C12 NTO d 869      51.729   4.573   9.599  0.00  0.00     0.089 C 
ATOM     39  S4B NTO d 869      69.668   1.050   9.256  0.00  0.00     0.252 S 
ATOM     40  O4D NTO d 869      69.027   0.581  10.528  0.00  0.00    -0.572 OA
ATOM     41  C1E NTO d 869      53.634   5.813  10.646  0.00  0.00     0.081 C 
ATOM     42  C13 NTO d 869      52.577   4.477   8.329  0.00  0.00     0.090 C 
ATOM     43  C29 NTO d 869      58.710   4.931   9.304  0.00  0.00     0.110 C 
ATOM     44  O42 NTO d 869      66.365   3.082   6.583  0.00  0.00    -0.340 OA
ATOM     45  C31 NTO d 869      62.335   2.420   9.741  0.00  0.00     0.091 C 
ATOM     46  C3F NTO d 869      62.280   0.128   8.015  0.00  0.00     0.083 C 
ATOM     47  S5H NTO d 869      68.361   8.246   2.979  0.00  0.00     0.156 S 
ATOM     48  S1G NTO d 869      54.122   6.932  12.857  0.00  0.00     0.156 S 
ATOM     49  O5J NTO d 869      68.355   7.413   1.732  0.00  0.00    -0.296 OA
ATOM     50  C5F NTO d 869      69.000   6.022   4.032  0.00  0.00     0.081 C 
ATOM     51  S3H NTO d 869      63.640  -1.880   7.107  0.00  0.00     0.156 S 
ATOM     52  O25 NTO d 869      54.833   1.514   8.975  0.00  0.00    -0.646 OA
ATOM     53  O1C NTO d 869      51.806   4.965  11.985  0.00  0.00    -0.391 OA
ATOM     54  O3A NTO d 869      60.234   0.942   6.990  0.00  0.00    -0.247 OA
ATOM     55  C5L NTO d 869      70.186   5.420   3.276  0.00  0.00     0.149 C 
ATOM     56  C30 NTO d 869      61.072   2.116   8.945  0.00  0.00     0.096 C 
ATOM     57  C23 NTO d 869      55.851   1.895   8.351  0.00  0.00     0.206 C 
ATOM     58  O3E NTO d 869      60.382   2.840   5.523  0.00  0.00    -0.572 OA
ATOM     59  O14 NTO d 869      53.504   5.571   8.250  0.00  0.00    -0.349 OA
ATOM     60  O2A NTO d 869      59.611   5.661  10.137  0.00  0.00    -0.388 OA
ATOM     61  C3L NTO d 869      63.520   0.624   8.757  0.00  0.00     0.150 C 
ATOM     62  C4F NTO d 869      67.625   2.418   6.761  0.00  0.00     0.161 C 
ATOM     63  C15 NTO d 869      51.650   4.564   7.113  0.00  0.00     0.067 C 
ATOM     64  S55 NTO d 869      68.526   0.214   3.097  0.00  0.00     0.251 S 
ATOM     65  O58 NTO d 869      68.238   0.179   1.626  0.00  0.00    -0.572 OA
ATOM     66  C51 NTO d 869      70.021   3.386   4.533  0.00  0.00     0.091 C 
ATOM     67  O56 NTO d 869      67.342  -0.310   3.854  0.00  0.00    -0.572 OA
ATOM     68  O3J NTO d 869      63.144  -3.073   6.343  0.00  0.00    -0.296 OA
ATOM     69  O44 NTO d 869      64.549   5.477   7.987  0.00  0.00    -0.646 OA
ATOM     70  O10 NTO d 869      50.934   3.390   9.712  0.00  0.00    -0.390 OA
ATOM     71  C59 NTO d 869      68.867   5.391   5.419  0.00  0.00     0.083 C 
ATOM     72  O52 NTO d 869      70.109   3.986   3.230  0.00  0.00    -0.349 OA
ATOM     73  O27 NTO d 869      56.892   6.451   9.764  0.00  0.00    -0.390 OA
ATOM     74  O1A NTO d 869      52.545   4.185   3.544  0.00  0.00    -0.572 OA
ATOM     75  O5A NTO d 869      67.662   5.850   6.041  0.00  0.00    -0.391 OA
ATOM     76  O37 NTO d 869      61.347   3.768  13.633  0.00  0.00    -0.572 OA
ATOM     77  O24 NTO d 869      56.092   1.606   7.155  0.00  0.00    -0.646 OA
ATOM     78  O1H NTO d 869      52.727   6.632  13.321  0.00  0.00    -0.296 OA
ATOM     79  O22 NTO d 869      58.168   2.670   8.537  0.00  0.00    -0.340 OA
ATOM     80  O3D NTO d 869      58.998   0.904   4.942  0.00  0.00    -0.572 OA
ATOM     81  C33 NTO d 869      61.939   3.060  11.075  0.00  0.00     0.067 C 
ATOM     82  S35 NTO d 869      60.535   2.630  13.088  0.00  0.00     0.251 S 
ATOM     83  S3B NTO d 869      60.262   1.348   5.617  0.00  0.00     0.252 S 
ATOM     84  O4C NTO d 869      69.965   2.517   9.348  0.00  0.00    -0.572 OA
ATOM     85  C39 NTO d 869      61.428   1.350   7.668  0.00  0.00     0.108 C 
ATOM     86  O16 NTO d 869      52.401   4.553   5.898  0.00  0.00    -0.254 OA
ATOM     87  O5M NTO d 869      71.433   5.886   3.806  0.00  0.00    -0.364 OA
ATOM     88  O3C NTO d 869      61.432   0.715   4.924  0.00  0.00    -0.572 OA
ATOM     89  C1K NTO d 869      54.417   5.554   9.359  0.00  0.00     0.150 C 
ATOM     90  O32 NTO d 869      63.104   1.233   9.990  0.00  0.00    -0.349 OA
ATOM     91  O34 NTO d 869      61.098   2.194  11.843  0.00  0.00    -0.254 OA
ATOM     92  H   NTO d 869      65.368  -0.797   7.179  0.00  0.00     0.231 HD
ATOM     93  H   NTO d 869      55.064   8.479  11.918  0.00  0.00     0.231 HD
ATOM     94  H   NTO d 869      66.461   3.941   8.436  0.00  0.00     0.104 H 
ATOM     95  H   NTO d 869      53.139   3.765  10.989  0.00  0.00     0.089 H 
ATOM     96  H   NTO d 869      70.172   7.701   4.085  0.00  0.00     0.140 HD
ATOM     97  H   NTO d 869      55.516   6.032  11.425  0.00  0.00     0.140 HD
ATOM     98  H   NTO d 869      63.931  -1.439   9.077  0.00  0.00     0.231 HD
ATOM     99  H   NTO d 869      73.345   6.236   3.146  0.00  0.00     0.066 H 
ATOM    100  H   NTO d 869      72.087   6.539   1.973  0.00  0.00     0.066 H 
ATOM    101  H   NTO d 869      72.527   4.897   2.378  0.00  0.00     0.066 H 
ATOM    102  H   NTO d 869      56.910   2.467  10.111  0.00  0.00     0.104 H 
ATOM    103  H   NTO d 869      57.245   4.761  10.867  0.00  0.00     0.091 H 
ATOM    104  H   NTO d 869      67.917   3.574   4.733  0.00  0.00     0.091 H 
ATOM    105  H   NTO d 869      67.937   2.524   8.869  0.00  0.00     0.097 H 
ATOM    106  H   NTO d 869      66.158   0.358   7.765  0.00  0.00     0.091 H 
ATOM    107  H   NTO d 869      63.191   0.051   6.187  0.00  0.00     0.140 HD
ATOM    108  H   NTO d 869      65.085   2.406   9.574  0.00  0.00     0.092 H 
ATOM    109  H   NTO d 869      66.955   9.017   4.238  0.00  0.00     0.231 HD
ATOM    110  H   NTO d 869      56.339   4.589   8.004  0.00  0.00     0.092 H 
ATOM    111  H   NTO d 869      70.809   1.513   3.871  0.00  0.00     0.080 H 
ATOM    112  H   NTO d 869      69.769   1.404   5.279  0.00  0.00     0.080 H 
ATOM    113  H   NTO d 869      66.741   1.133  10.451  0.00  0.00     0.210 HD
ATOM    114  H   NTO d 869      69.027  10.108   3.482  0.00  0.00     0.231 HD
ATOM    115  H   NTO d 869      59.163   3.082  10.267  0.00  0.00     0.133 H 
ATOM    116  H   NTO d 869      55.966   7.097  13.713  0.00  0.00     0.231 HD
ATOM    117  H   NTO d 869      51.110   5.443   9.535  0.00  0.00     0.091 H 
ATOM    118  H   NTO d 869      53.124   6.753  10.596  0.00  0.00     0.076 H 
ATOM    119  H   NTO d 869      53.116   3.553   8.349  0.00  0.00     0.090 H 
ATOM    120  H   NTO d 869      58.741   5.319   8.307  0.00  0.00     0.094 H 
ATOM    121  H   NTO d 869      62.941   3.089   9.167  0.00  0.00     0.090 H 
ATOM    122  H   NTO d 869      61.717  -0.549   8.624  0.00  0.00     0.076 H 
ATOM    123  H   NTO d 869      67.931   6.561   1.915  0.00  0.00     0.231 HD
ATOM    124  H   NTO d 869      68.105   5.821   3.481  0.00  0.00     0.076 H 
ATOM    125  H   NTO d 869      51.334   5.802  11.851  0.00  0.00     0.210 HD
ATOM    126  H   NTO d 869      70.135   5.761   2.263  0.00  0.00     0.131 H 
ATOM    127  H   NTO d 869      60.411   1.501   9.518  0.00  0.00     0.091 H 
ATOM    128  H   NTO d 869      59.578   5.305  11.039  0.00  0.00     0.210 HD
ATOM    129  H   NTO d 869      64.200  -0.174   8.974  0.00  0.00     0.131 H 
ATOM    130  H   NTO d 869      67.666   1.667   6.000  0.00  0.00     0.133 H 
ATOM    131  H   NTO d 869      51.085   5.472   7.168  0.00  0.00     0.080 H 
ATOM    132  H   NTO d 869      50.996   3.717   7.120  0.00  0.00     0.080 H 
ATOM    133  H   NTO d 869      70.884   3.649   5.109  0.00  0.00     0.090 H 
ATOM    134  H   NTO d 869      63.713  -3.836   6.529  0.00  0.00     0.231 HD
ATOM    135  H   NTO d 869      51.515   2.615   9.769  0.00  0.00     0.210 HD
ATOM    136  H   NTO d 869      69.714   5.665   6.011  0.00  0.00     0.089 H 
ATOM    137  H   NTO d 869      56.928   6.744   8.840  0.00  0.00     0.210 HD
ATOM    138  H   NTO d 869      66.901   5.596   5.497  0.00  0.00     0.210 HD
ATOM    139  H   NTO d 869      52.122   6.654  12.563  0.00  0.00     0.231 HD
ATOM    140  H   NTO d 869      61.415   3.972  10.882  0.00  0.00     0.080 H 
ATOM    141  H   NTO d 869      62.832   3.244  11.636  0.00  0.00     0.080 H 
ATOM    142  H   NTO d 869      61.988   1.991   7.020  0.00  0.00     0.092 H 
ATOM    143  H   NTO d 869      55.170   6.294   9.185  0.00  0.00     0.131 H 
ENDROOT
TORSDOF 46
ENDMDL
MODEL 15
REMARK VINA RESULT:      -8.4      2.536      3.349
REMARK  0 active torsions:
REMARK  status: ('A' for Active; 'I' for Inactive)
REMARK       I    between atoms: O3I_1  and  S3H_51 
REMARK       I    between atoms: O1I_2  and  S1G_48 
REMARK       I    between atoms: O54_3  and  C53_28 
REMARK       I    between atoms: O54_3  and  S55_64 
REMARK       I    between atoms: C41_5  and  C43_30 
REMARK       I    between atoms: C1B_6  and  O1C_53 
REMARK       I    between atoms: O4G_7  and  C4F_62 
REMARK       I    between atoms: O4G_7  and  C50_15 
REMARK       I    between atoms: N5G_8  and  C5F_50 
REMARK       I    between atoms: N5G_8  and  S5H_47 
REMARK       I    between atoms: N1F_9  and  C1E_41 
REMARK       I    between atoms: N1F_9  and  S1G_48 
REMARK       I    between atoms: O3K_10  and  S3H_51 
REMARK       I    between atoms: C5N_11  and  O5M_87 
REMARK       I    between atoms: C21_12  and  C23_57 
REMARK       I    between atoms: C26_13  and  O27_73 
REMARK       I    between atoms: C49_16  and  O4A_21 
REMARK       I    between atoms: O2D_17  and  C2C_35 
REMARK       I    between atoms: O2D_17  and  C30_56 
REMARK       I    between atoms: O1L_18  and  C1K_89 
REMARK       I    between atoms: O1L_18  and  C20_27 
REMARK       I    between atoms: C46_20  and  O47_33 
REMARK       I    between atoms: O4A_21  and  S4B_39 
REMARK       I    between atoms: N3G_22  and  C3F_46 
REMARK       I    between atoms: N3G_22  and  S3H_51 
REMARK       I    between atoms: C40_25  and  O3M_29 
REMARK       I    between atoms: O5I_26  and  S5H_47 
REMARK       I    between atoms: C53_28  and  C51_66 
REMARK       I    between atoms: O3M_29  and  C3L_61 
REMARK       I    between atoms: S17_31  and  O16_86 
REMARK       I    between atoms: O5K_34  and  S5H_47 
REMARK       I    between atoms: O1J_37  and  S1G_48 
REMARK       I    between atoms: C12_38  and  O10_70 
REMARK       I    between atoms: C13_42  and  C15_63 
REMARK       I    between atoms: C29_43  and  O2A_60 
REMARK       I    between atoms: C31_45  and  C33_81 
REMARK       I    between atoms: S5H_47  and  O5J_49 
REMARK       I    between atoms: S1G_48  and  O1H_78 
REMARK       I    between atoms: S3H_51  and  O3J_68 
REMARK       I    between atoms: O3A_54  and  C39_85 
REMARK       I    between atoms: O3A_54  and  S3B_83 
REMARK       I    between atoms: C5L_55  and  O5M_87 
REMARK       I    between atoms: C15_63  and  O16_86 
REMARK       I    between atoms: C59_71  and  O5A_75 
REMARK       I    between atoms: C33_81  and  O34_91 
REMARK       I    between atoms: S35_82  and  O34_91 
ROOT
ATOM      1  O3I NTO d 869      68.022   5.257  15.437  0.00  0.00    -0.296 OA
ATOM      2  O1I NTO d 869      59.288  -0.920   3.957  0.00  0.00    -0.296 OA
ATOM      3  O54 NTO d 869      68.010   1.476  19.889  0.00  0.00    -0.254 OA
ATOM      4  O18 NTO d 869      53.893   2.754   9.233  0.00  0.00    -0.572 OA
ATOM      5  C41 NTO d 869      67.415   0.230  14.434  0.00  0.00     0.152 C 
ATOM      6  C1B NTO d 869      58.642   3.138   4.555  0.00  0.00     0.083 C 
ATOM      7  O4G NTO d 869      69.047  -0.530  17.129  0.00  0.00    -0.348 OA
ATOM      8  N5G NTO d 869      66.571  -4.244  19.025  0.00  0.00    -0.210 NA
ATOM      9  N1F NTO d 869      60.241   1.301   4.779  0.00  0.00    -0.210 NA
ATOM     10  O3K NTO d 869      68.189   6.094  13.138  0.00  0.00    -0.296 OA
ATOM     11  C5N NTO d 869      68.819  -3.688  22.114  0.00  0.00     0.007 C 
ATOM     12  C21 NTO d 869      61.569   3.698   8.516  0.00  0.00     0.152 C 
ATOM     13  C26 NTO d 869      61.503   1.310   7.934  0.00  0.00     0.092 C 
ATOM     14  O4E NTO d 869      73.111   1.200  16.612  0.00  0.00    -0.572 OA
ATOM     15  C50 NTO d 869      68.163  -0.900  18.198  0.00  0.00     0.095 C 
ATOM     16  C49 NTO d 869      69.668   1.049  15.424  0.00  0.00     0.134 C 
ATOM     17  O2D NTO d 869      63.829   2.002  10.816  0.00  0.00    -0.348 OA
ATOM     18  O1L NTO d 869      59.873   2.905   7.022  0.00  0.00    -0.348 OA
ATOM     19  O19 NTO d 869      53.693   5.070   8.453  0.00  0.00    -0.572 OA
ATOM     20  C46 NTO d 869      69.098   2.082  14.451  0.00  0.00     0.094 C 
ATOM     21  O4A NTO d 869      70.820   1.579  16.086  0.00  0.00    -0.244 OA
ATOM     22  N3G NTO d 869      65.942   5.144  13.951  0.00  0.00    -0.210 NA
ATOM     23  O36 NTO d 869      65.259   2.143   6.620  0.00  0.00    -0.572 OA
ATOM     24  O57 NTO d 869      69.443   3.223  20.671  0.00  0.00    -0.572 OA
ATOM     25  C40 NTO d 869      67.919   1.466  13.702  0.00  0.00     0.103 C 
ATOM     26  O5I NTO d 869      64.126  -4.321  18.302  0.00  0.00    -0.296 OA
ATOM     27  C20 NTO d 869      60.637   2.543   8.182  0.00  0.00     0.103 C 
ATOM     28  C53 NTO d 869      69.204   0.700  19.784  0.00  0.00     0.067 C 
ATOM     29  O3M NTO d 869      66.881   2.451  13.636  0.00  0.00    -0.348 OA
ATOM     30  C43 NTO d 869      66.045  -0.125  13.879  0.00  0.00     0.206 C 
ATOM     31  S17 NTO d 869      54.559   4.096   9.195  0.00  0.00     0.251 S 
ATOM     32  O45 NTO d 869      65.170   0.770  13.852  0.00  0.00    -0.646 OA
ATOM     33  O47 NTO d 869      70.111   2.459  13.514  0.00  0.00    -0.390 OA
ATOM     34  O5K NTO d 869      64.901  -5.938  19.977  0.00  0.00    -0.296 OA
ATOM     35  C2C NTO d 869      63.155   2.267   9.574  0.00  0.00     0.160 C 
ATOM     36  O38 NTO d 869      67.550   2.992   6.571  0.00  0.00    -0.572 OA
ATOM     37  O1J NTO d 869      61.454  -0.172   3.088  0.00  0.00    -0.296 OA
ATOM     38  C12 NTO d 869      57.330   3.710   5.100  0.00  0.00     0.089 C 
ATOM     39  S4B NTO d 869      72.004   0.909  15.644  0.00  0.00     0.252 S 
ATOM     40  O4D NTO d 869      72.380   1.398  14.277  0.00  0.00    -0.572 OA
ATOM     41  C1E NTO d 869      58.909   1.769   5.181  0.00  0.00     0.081 C 
ATOM     42  C13 NTO d 869      57.314   3.675   6.629  0.00  0.00     0.090 C 
ATOM     43  C29 NTO d 869      62.339   1.031   9.185  0.00  0.00     0.110 C 
ATOM     44  O42 NTO d 869      67.317   0.493  15.845  0.00  0.00    -0.340 OA
ATOM     45  C31 NTO d 869      66.219   2.074  11.055  0.00  0.00     0.091 C 
ATOM     46  C3F NTO d 869      66.048   4.451  12.654  0.00  0.00     0.083 C 
ATOM     47  S5H NTO d 869      65.031  -4.528  19.480  0.00  0.00     0.156 S 
ATOM     48  S1G NTO d 869      60.089   0.273   3.524  0.00  0.00     0.156 S 
ATOM     49  O5J NTO d 869      64.640  -3.588  20.581  0.00  0.00    -0.296 OA
ATOM     50  C5F NTO d 869      66.880  -2.813  19.158  0.00  0.00     0.081 C 
ATOM     51  S3H NTO d 869      67.295   5.974  14.336  0.00  0.00     0.156 S 
ATOM     52  O25 NTO d 869      60.430   5.579   7.607  0.00  0.00    -0.646 OA
ATOM     53  O1C NTO d 869      58.554   3.008   3.134  0.00  0.00    -0.391 OA
ATOM     54  O3A NTO d 869      63.646   4.525  12.296  0.00  0.00    -0.247 OA
ATOM     55  C5L NTO d 869      67.580  -2.559  20.495  0.00  0.00     0.149 C 
ATOM     56  C30 NTO d 869      64.934   2.891  11.039  0.00  0.00     0.096 C 
ATOM     57  C23 NTO d 869      60.727   4.957   8.654  0.00  0.00     0.206 C 
ATOM     58  O3E NTO d 869      62.284   2.898  13.424  0.00  0.00    -0.572 OA
ATOM     59  O14 NTO d 869      57.586   2.350   7.113  0.00  0.00    -0.349 OA
ATOM     60  O2A NTO d 869      63.220  -0.064   8.931  0.00  0.00    -0.388 OA
ATOM     61  C3L NTO d 869      67.218   3.469  12.684  0.00  0.00     0.150 C 
ATOM     62  C4F NTO d 869      68.606   0.657  16.455  0.00  0.00     0.161 C 
ATOM     63  C15 NTO d 869      55.916   4.068   7.113  0.00  0.00     0.067 C 
ATOM     64  S55 NTO d 869      68.069   2.877  20.180  0.00  0.00     0.251 S 
ATOM     65  O58 NTO d 869      67.060   3.200  21.240  0.00  0.00    -0.572 OA
ATOM     66  C51 NTO d 869      68.864  -0.772  19.542  0.00  0.00     0.091 C 
ATOM     67  O56 NTO d 869      67.771   3.671  18.943  0.00  0.00    -0.572 OA
ATOM     68  O3J NTO d 869      66.925   7.353  14.798  0.00  0.00    -0.296 OA
ATOM     69  O44 NTO d 869      65.857  -1.299  13.466  0.00  0.00    -0.646 OA
ATOM     70  O10 NTO d 869      57.209   5.068   4.669  0.00  0.00    -0.390 OA
ATOM     71  C59 NTO d 869      67.760  -2.359  17.992  0.00  0.00     0.083 C 
ATOM     72  O52 NTO d 869      68.006  -1.192  20.616  0.00  0.00    -0.349 OA
ATOM     73  O27 NTO d 869      60.673   0.177   7.662  0.00  0.00    -0.390 OA
ATOM     74  O1A NTO d 869      54.780   4.579  10.596  0.00  0.00    -0.572 OA
ATOM     75  O5A NTO d 869      67.024  -2.457  16.769  0.00  0.00    -0.391 OA
ATOM     76  O37 NTO d 869      67.118   0.651   7.168  0.00  0.00    -0.572 OA
ATOM     77  O24 NTO d 869      60.358   5.299   9.803  0.00  0.00    -0.646 OA
ATOM     78  O1H NTO d 869      59.391   0.968   2.393  0.00  0.00    -0.296 OA
ATOM     79  O22 NTO d 869      62.311   3.421   9.717  0.00  0.00    -0.340 OA
ATOM     80  O3D NTO d 869      61.603   5.248  13.307  0.00  0.00    -0.572 OA
ATOM     81  C33 NTO d 869      66.421   1.440   9.675  0.00  0.00     0.067 C 
ATOM     82  S35 NTO d 869      66.608   2.058   7.269  0.00  0.00     0.251 S 
ATOM     83  S3B NTO d 869      62.773   4.317  13.411  0.00  0.00     0.252 S 
ATOM     84  O4C NTO d 869      71.760  -0.571  15.603  0.00  0.00    -0.572 OA
ATOM     85  C39 NTO d 869      64.778   3.650  12.361  0.00  0.00     0.108 C 
ATOM     86  O16 NTO d 869      55.826   3.980   8.537  0.00  0.00    -0.254 OA
ATOM     87  O5M NTO d 869      68.652  -3.487  20.707  0.00  0.00    -0.364 OA
ATOM     88  O3C NTO d 869      63.507   4.596  14.689  0.00  0.00    -0.572 OA
ATOM     89  C1K NTO d 869      58.891   1.910   6.703  0.00  0.00     0.150 C 
ATOM     90  O32 NTO d 869      67.360   2.884  11.380  0.00  0.00    -0.349 OA
ATOM     91  O34 NTO d 869      66.510   2.434   8.649  0.00  0.00    -0.254 OA
ATOM     92  H   NTO d 869      68.262   4.366  15.139  0.00  0.00     0.231 HD
ATOM     93  H   NTO d 869      59.743  -1.366   4.688  0.00  0.00     0.231 HD
ATOM     94  H   NTO d 869      68.097  -0.581  14.290  0.00  0.00     0.104 H 
ATOM     95  H   NTO d 869      59.446   3.800   4.803  0.00  0.00     0.089 H 
ATOM     96  H   NTO d 869      67.203  -4.783  19.617  0.00  0.00     0.140 HD
ATOM     97  H   NTO d 869      60.685   0.821   5.562  0.00  0.00     0.140 HD
ATOM     98  H   NTO d 869      68.436   5.208  12.829  0.00  0.00     0.231 HD
ATOM     99  H   NTO d 869      69.617  -4.380  22.283  0.00  0.00     0.066 H 
ATOM    100  H   NTO d 869      67.914  -4.079  22.529  0.00  0.00     0.066 H 
ATOM    101  H   NTO d 869      69.051  -2.754  22.582  0.00  0.00     0.066 H 
ATOM    102  H   NTO d 869      62.288   3.834   7.735  0.00  0.00     0.104 H 
ATOM    103  H   NTO d 869      62.143   1.487   7.094  0.00  0.00     0.091 H 
ATOM    104  H   NTO d 869      67.310  -0.255  18.193  0.00  0.00     0.091 H 
ATOM    105  H   NTO d 869      69.957   0.178  14.874  0.00  0.00     0.097 H 
ATOM    106  H   NTO d 869      68.772   2.945  14.992  0.00  0.00     0.091 H 
ATOM    107  H   NTO d 869      65.767   4.449  14.678  0.00  0.00     0.140 HD
ATOM    108  H   NTO d 869      68.220   1.170  12.719  0.00  0.00     0.092 H 
ATOM    109  H   NTO d 869      64.379  -4.929  17.590  0.00  0.00     0.231 HD
ATOM    110  H   NTO d 869      59.952   2.328   8.975  0.00  0.00     0.092 H 
ATOM    111  H   NTO d 869      69.763   0.788  20.692  0.00  0.00     0.080 H 
ATOM    112  H   NTO d 869      69.782   1.062  18.960  0.00  0.00     0.080 H 
ATOM    113  H   NTO d 869      70.407   1.676  13.024  0.00  0.00     0.210 HD
ATOM    114  H   NTO d 869      65.151  -6.554  19.270  0.00  0.00     0.231 HD
ATOM    115  H   NTO d 869      63.865   2.473   8.801  0.00  0.00     0.133 H 
ATOM    116  H   NTO d 869      61.898  -0.621   3.824  0.00  0.00     0.231 HD
ATOM    117  H   NTO d 869      56.518   3.119   4.733  0.00  0.00     0.091 H 
ATOM    118  H   NTO d 869      58.161   1.075   4.857  0.00  0.00     0.076 H 
ATOM    119  H   NTO d 869      58.062   4.348   6.993  0.00  0.00     0.090 H 
ATOM    120  H   NTO d 869      61.681   0.789   9.992  0.00  0.00     0.094 H 
ATOM    121  H   NTO d 869      66.129   1.319  11.807  0.00  0.00     0.090 H 
ATOM    122  H   NTO d 869      66.193   5.194  11.897  0.00  0.00     0.076 H 
ATOM    123  H   NTO d 869      64.721  -2.674  20.270  0.00  0.00     0.231 HD
ATOM    124  H   NTO d 869      65.972  -2.249  19.136  0.00  0.00     0.076 H 
ATOM    125  H   NTO d 869      57.825   2.408   2.909  0.00  0.00     0.210 HD
ATOM    126  H   NTO d 869      66.867  -2.727  21.274  0.00  0.00     0.131 H 
ATOM    127  H   NTO d 869      64.964   3.616  10.252  0.00  0.00     0.091 H 
ATOM    128  H   NTO d 869      63.814   0.161   8.198  0.00  0.00     0.210 HD
ATOM    129  H   NTO d 869      68.135   3.952  12.952  0.00  0.00     0.131 H 
ATOM    130  H   NTO d 869      68.487   1.441  17.173  0.00  0.00     0.133 H 
ATOM    131  H   NTO d 869      55.195   3.409   6.675  0.00  0.00     0.080 H 
ATOM    132  H   NTO d 869      55.723   5.079   6.820  0.00  0.00     0.080 H 
ATOM    133  H   NTO d 869      69.739  -1.387  19.521  0.00  0.00     0.090 H 
ATOM    134  H   NTO d 869      67.729   7.845  15.026  0.00  0.00     0.231 HD
ATOM    135  H   NTO d 869      57.955   5.583   5.012  0.00  0.00     0.210 HD
ATOM    136  H   NTO d 869      68.630  -2.981  17.949  0.00  0.00     0.089 H 
ATOM    137  H   NTO d 869      60.091   0.012   8.421  0.00  0.00     0.210 HD
ATOM    138  H   NTO d 869      66.239  -1.890  16.819  0.00  0.00     0.210 HD
ATOM    139  H   NTO d 869      58.510   1.253   2.683  0.00  0.00     0.231 HD
ATOM    140  H   NTO d 869      65.594   0.796   9.464  0.00  0.00     0.080 H 
ATOM    141  H   NTO d 869      67.339   0.891   9.690  0.00  0.00     0.080 H 
ATOM    142  H   NTO d 869      64.622   2.945  13.151  0.00  0.00     0.092 H 
ATOM    143  H   NTO d 869      59.105   0.986   7.200  0.00  0.00     0.131 H 
ENDROOT
TORSDOF 46
ENDMDL
MODEL 16
REMARK VINA RESULT:      -8.3      3.285     13.845
REMARK  0 active torsions:
REMARK  status: ('A' for Active; 'I' for Inactive)
REMARK       I    between atoms: O3I_1  and  S3H_51 
REMARK       I    between atoms: O1I_2  and  S1G_48 
REMARK       I    between atoms: O54_3  and  C53_28 
REMARK       I    between atoms: O54_3  and  S55_64 
REMARK       I    between atoms: C41_5  and  C43_30 
REMARK       I    between atoms: C1B_6  and  O1C_53 
REMARK       I    between atoms: O4G_7  and  C4F_62 
REMARK       I    between atoms: O4G_7  and  C50_15 
REMARK       I    between atoms: N5G_8  and  C5F_50 
REMARK       I    between atoms: N5G_8  and  S5H_47 
REMARK       I    between atoms: N1F_9  and  C1E_41 
REMARK       I    between atoms: N1F_9  and  S1G_48 
REMARK       I    between atoms: O3K_10  and  S3H_51 
REMARK       I    between atoms: C5N_11  and  O5M_87 
REMARK       I    between atoms: C21_12  and  C23_57 
REMARK       I    between atoms: C26_13  and  O27_73 
REMARK       I    between atoms: C49_16  and  O4A_21 
REMARK       I    between atoms: O2D_17  and  C2C_35 
REMARK       I    between atoms: O2D_17  and  C30_56 
REMARK       I    between atoms: O1L_18  and  C1K_89 
REMARK       I    between atoms: O1L_18  and  C20_27 
REMARK       I    between atoms: C46_20  and  O47_33 
REMARK       I    between atoms: O4A_21  and  S4B_39 
REMARK       I    between atoms: N3G_22  and  C3F_46 
REMARK       I    between atoms: N3G_22  and  S3H_51 
REMARK       I    between atoms: C40_25  and  O3M_29 
REMARK       I    between atoms: O5I_26  and  S5H_47 
REMARK       I    between atoms: C53_28  and  C51_66 
REMARK       I    between atoms: O3M_29  and  C3L_61 
REMARK       I    between atoms: S17_31  and  O16_86 
REMARK       I    between atoms: O5K_34  and  S5H_47 
REMARK       I    between atoms: O1J_37  and  S1G_48 
REMARK       I    between atoms: C12_38  and  O10_70 
REMARK       I    between atoms: C13_42  and  C15_63 
REMARK       I    between atoms: C29_43  and  O2A_60 
REMARK       I    between atoms: C31_45  and  C33_81 
REMARK       I    between atoms: S5H_47  and  O5J_49 
REMARK       I    between atoms: S1G_48  and  O1H_78 
REMARK       I    between atoms: S3H_51  and  O3J_68 
REMARK       I    between atoms: O3A_54  and  C39_85 
REMARK       I    between atoms: O3A_54  and  S3B_83 
REMARK       I    between atoms: C5L_55  and  O5M_87 
REMARK       I    between atoms: C15_63  and  O16_86 
REMARK       I    between atoms: C59_71  and  O5A_75 
REMARK       I    between atoms: C33_81  and  O34_91 
REMARK       I    between atoms: S35_82  and  O34_91 
ROOT
ATOM      1  O3I NTO d 869      61.874   3.177   5.062  0.00  0.00    -0.296 OA
ATOM      2  O1I NTO d 869      69.104   2.885  18.986  0.00  0.00    -0.296 OA
ATOM      3  O54 NTO d 869      56.133   3.564   6.065  0.00  0.00    -0.254 OA
ATOM      4  O18 NTO d 869      66.631  -4.998  17.509  0.00  0.00    -0.572 OA
ATOM      5  C41 NTO d 869      60.252   5.474   9.390  0.00  0.00     0.152 C 
ATOM      6  C1B NTO d 869      70.649   0.182  16.239  0.00  0.00     0.083 C 
ATOM      7  O4G NTO d 869      57.466   6.286   7.945  0.00  0.00    -0.348 OA
ATOM      8  N5G NTO d 869      54.081   5.483  11.323  0.00  0.00    -0.210 NA
ATOM      9  N1F NTO d 869      69.462   2.301  16.527  0.00  0.00    -0.210 NA
ATOM     10  O3K NTO d 869      64.273   3.653   5.246  0.00  0.00    -0.296 OA
ATOM     11  C5N NTO d 869      51.586   6.020   8.426  0.00  0.00     0.007 C 
ATOM     12  C21 NTO d 869      67.371   0.982  12.608  0.00  0.00     0.152 C 
ATOM     13  C26 NTO d 869      66.681   2.287  14.574  0.00  0.00     0.092 C 
ATOM     14  O4E NTO d 869      58.593   8.895   4.525  0.00  0.00    -0.572 OA
ATOM     15  C50 NTO d 869      56.398   5.404   8.319  0.00  0.00     0.095 C 
ATOM     16  C49 NTO d 869      59.702   6.572   7.105  0.00  0.00     0.134 C 
ATOM     17  O2D NTO d 869      64.430   2.889  11.613  0.00  0.00    -0.348 OA
ATOM     18  O1L NTO d 869      68.343   0.486  14.739  0.00  0.00    -0.348 OA
ATOM     19  O19 NTO d 869      68.474  -6.039  16.270  0.00  0.00    -0.572 OA
ATOM     20  C46 NTO d 869      61.087   5.924   7.075  0.00  0.00     0.094 C 
ATOM     21  O4A NTO d 869      59.343   7.028   5.799  0.00  0.00    -0.244 OA
ATOM     22  N3G NTO d 869      63.197   2.036   6.931  0.00  0.00    -0.210 NA
ATOM     23  O36 NTO d 869      68.062   5.345  12.279  0.00  0.00    -0.572 OA
ATOM     24  O57 NTO d 869      56.267   3.613   3.678  0.00  0.00    -0.572 OA
ATOM     25  C40 NTO d 869      61.480   5.516   8.492  0.00  0.00     0.103 C 
ATOM     26  O5I NTO d 869      54.779   3.779  13.089  0.00  0.00    -0.296 OA
ATOM     27  C20 NTO d 869      67.125   0.902  14.106  0.00  0.00     0.103 C 
ATOM     28  C53 NTO d 869      55.780   4.945   5.959  0.00  0.00     0.067 C 
ATOM     29  O3M NTO d 869      62.078   4.216   8.424  0.00  0.00    -0.348 OA
ATOM     30  C43 NTO d 869      60.616   4.721  10.660  0.00  0.00     0.206 C 
ATOM     31  S17 NTO d 869      67.305  -5.104  16.174  0.00  0.00     0.251 S 
ATOM     32  O45 NTO d 869      61.127   3.584  10.544  0.00  0.00    -0.646 OA
ATOM     33  O47 NTO d 869      62.040   6.864   6.570  0.00  0.00    -0.390 OA
ATOM     34  O5K NTO d 869      52.487   4.650  13.148  0.00  0.00    -0.296 OA
ATOM     35  C2C NTO d 869      65.667   2.619  12.294  0.00  0.00     0.160 C 
ATOM     36  O38 NTO d 869      68.424   6.799  10.348  0.00  0.00    -0.572 OA
ATOM     37  O1J NTO d 869      70.130   4.555  17.515  0.00  0.00    -0.296 OA
ATOM     38  C12 NTO d 869      70.525  -1.337  16.391  0.00  0.00     0.089 C 
ATOM     39  S4B NTO d 869      59.335   8.458   5.752  0.00  0.00     0.252 S 
ATOM     40  O4D NTO d 869      60.744   8.968   5.705  0.00  0.00    -0.572 OA
ATOM     41  C1E NTO d 869      69.410   0.863  16.821  0.00  0.00     0.081 C 
ATOM     42  C13 NTO d 869      69.185  -1.832  15.841  0.00  0.00     0.090 C 
ATOM     43  C29 NTO d 869      65.422   2.691  13.804  0.00  0.00     0.110 C 
ATOM     44  O42 NTO d 869      59.168   4.805   8.721  0.00  0.00    -0.340 OA
ATOM     45  C31 NTO d 869      64.150   4.708  10.069  0.00  0.00     0.091 C 
ATOM     46  C3F NTO d 869      63.967   2.884   7.860  0.00  0.00     0.083 C 
ATOM     47  S5H NTO d 869      53.616   4.227  12.255  0.00  0.00     0.156 S 
ATOM     48  S1G NTO d 869      70.039   3.091  17.830  0.00  0.00     0.156 S 
ATOM     49  O5J NTO d 869      53.153   3.092  11.392  0.00  0.00    -0.296 OA
ATOM     50  C5F NTO d 869      54.668   4.989  10.069  0.00  0.00     0.081 C 
ATOM     51  S3H NTO d 869      63.218   2.599   5.397  0.00  0.00     0.156 S 
ATOM     52  O25 NTO d 869      69.151  -0.563  12.281  0.00  0.00    -0.646 OA
ATOM     53  O1C NTO d 869      71.816   0.638  16.927  0.00  0.00    -0.391 OA
ATOM     54  O3A NTO d 869      64.423   1.023   9.353  0.00  0.00    -0.247 OA
ATOM     55  C5L NTO d 869      53.608   4.994   8.966  0.00  0.00     0.149 C 
ATOM     56  C30 NTO d 869      64.632   3.274  10.244  0.00  0.00     0.096 C 
ATOM     57  C23 NTO d 869      67.921  -0.361  12.149  0.00  0.00     0.206 C 
ATOM     58  O3E NTO d 869      62.696   0.349  10.881  0.00  0.00    -0.572 OA
ATOM     59  O14 NTO d 869      68.091  -1.121  16.442  0.00  0.00    -0.349 OA
ATOM     60  O2A NTO d 869      65.053   4.022  14.166  0.00  0.00    -0.388 OA
ATOM     61  C3L NTO d 869      63.395   4.301   7.863  0.00  0.00     0.150 C 
ATOM     62  C4F NTO d 869      58.664   5.568   7.614  0.00  0.00     0.161 C 
ATOM     63  C15 NTO d 869      69.028  -3.313  16.195  0.00  0.00     0.067 C 
ATOM     64  S55 NTO d 869      56.581   2.831   4.919  0.00  0.00     0.251 S 
ATOM     65  O58 NTO d 869      55.872   1.512   4.875  0.00  0.00    -0.572 OA
ATOM     66  C51 NTO d 869      55.267   5.469   7.302  0.00  0.00     0.091 C 
ATOM     67  O56 NTO d 869      58.061   2.606   5.000  0.00  0.00    -0.572 OA
ATOM     68  O3J NTO d 869      63.527   1.474   4.454  0.00  0.00    -0.296 OA
ATOM     69  O44 NTO d 869      60.394   5.279  11.767  0.00  0.00    -0.646 OA
ATOM     70  O10 NTO d 869      71.582  -1.959  15.658  0.00  0.00    -0.390 OA
ATOM     71  C59 NTO d 869      55.863   5.859   9.675  0.00  0.00     0.083 C 
ATOM     72  O52 NTO d 869      54.169   4.629   7.694  0.00  0.00    -0.349 OA
ATOM     73  O27 NTO d 869      66.387   2.259  15.973  0.00  0.00    -0.390 OA
ATOM     74  O1A NTO d 869      66.326  -5.619  15.164  0.00  0.00    -0.572 OA
ATOM     75  O5A NTO d 869      56.905   5.710  10.645  0.00  0.00    -0.391 OA
ATOM     76  O37 NTO d 869      66.756   7.400  12.044  0.00  0.00    -0.572 OA
ATOM     77  O24 NTO d 869      67.116  -1.201  11.682  0.00  0.00    -0.646 OA
ATOM     78  O1H NTO d 869      71.396   2.555  18.176  0.00  0.00    -0.296 OA
ATOM     79  O22 NTO d 869      66.160   1.325  11.911  0.00  0.00    -0.340 OA
ATOM     80  O3D NTO d 869      64.005  -1.314   9.648  0.00  0.00    -0.572 OA
ATOM     81  C33 NTO d 869      65.016   5.632  10.930  0.00  0.00     0.067 C 
ATOM     82  S35 NTO d 869      67.397   6.266  11.300  0.00  0.00     0.251 S 
ATOM     83  S3B NTO d 869      63.395   0.055   9.587  0.00  0.00     0.252 S 
ATOM     84  O4C NTO d 869      58.640   8.998   6.967  0.00  0.00    -0.572 OA
ATOM     85  C39 NTO d 869      63.876   2.345   9.289  0.00  0.00     0.108 C 
ATOM     86  O16 NTO d 869      67.758  -3.808  15.766  0.00  0.00    -0.254 OA
ATOM     87  O5M NTO d 869      52.911   6.245   8.919  0.00  0.00    -0.364 OA
ATOM     88  O3C NTO d 869      62.397   0.094   8.468  0.00  0.00    -0.572 OA
ATOM     89  C1K NTO d 869      68.165   0.283  16.148  0.00  0.00     0.150 C 
ATOM     90  O32 NTO d 869      64.223   5.128   8.697  0.00  0.00    -0.349 OA
ATOM     91  O34 NTO d 869      66.397   5.552  10.562  0.00  0.00    -0.254 OA
ATOM     92  H   NTO d 869      61.674   3.905   5.671  0.00  0.00     0.231 HD
ATOM     93  H   NTO d 869      68.227   3.233  18.758  0.00  0.00     0.231 HD
ATOM     94  H   NTO d 869      59.938   6.470   9.625  0.00  0.00     0.104 H 
ATOM     95  H   NTO d 869      70.729   0.427  15.200  0.00  0.00     0.089 H 
ATOM     96  H   NTO d 869      53.270   6.064  11.111  0.00  0.00     0.140 HD
ATOM     97  H   NTO d 869      68.524   2.639  16.310  0.00  0.00     0.140 HD
ATOM     98  H   NTO d 869      64.085   4.388   5.852  0.00  0.00     0.231 HD
ATOM     99  H   NTO d 869      51.057   6.949   8.388  0.00  0.00     0.066 H 
ATOM    100  H   NTO d 869      51.073   5.344   9.078  0.00  0.00     0.066 H 
ATOM    101  H   NTO d 869      51.639   5.598   7.444  0.00  0.00     0.066 H 
ATOM    102  H   NTO d 869      68.081   1.751  12.387  0.00  0.00     0.104 H 
ATOM    103  H   NTO d 869      67.467   2.992  14.394  0.00  0.00     0.091 H 
ATOM    104  H   NTO d 869      56.764   4.399   8.360  0.00  0.00     0.091 H 
ATOM    105  H   NTO d 869      59.728   7.411   7.769  0.00  0.00     0.097 H 
ATOM    106  H   NTO d 869      61.067   5.061   6.443  0.00  0.00     0.091 H 
ATOM    107  H   NTO d 869      62.229   1.997   7.251  0.00  0.00     0.140 HD
ATOM    108  H   NTO d 869      62.167   6.225   8.903  0.00  0.00     0.092 H 
ATOM    109  H   NTO d 869      55.079   4.513  13.647  0.00  0.00     0.231 HD
ATOM    110  H   NTO d 869      66.363   0.195  14.358  0.00  0.00     0.092 H 
ATOM    111  H   NTO d 869      55.014   5.057   5.221  0.00  0.00     0.080 H 
ATOM    112  H   NTO d 869      56.648   5.504   5.677  0.00  0.00     0.080 H 
ATOM    113  H   NTO d 869      62.057   7.646   7.144  0.00  0.00     0.210 HD
ATOM    114  H   NTO d 869      52.778   5.385  13.712  0.00  0.00     0.231 HD
ATOM    115  H   NTO d 869      66.406   3.345  12.026  0.00  0.00     0.133 H 
ATOM    116  H   NTO d 869      69.248   4.893  17.293  0.00  0.00     0.231 HD
ATOM    117  H   NTO d 869      70.582  -1.585  17.430  0.00  0.00     0.091 H 
ATOM    118  H   NTO d 869      69.376   0.704  17.878  0.00  0.00     0.076 H 
ATOM    119  H   NTO d 869      69.174  -1.675  14.782  0.00  0.00     0.090 H 
ATOM    120  H   NTO d 869      64.633   2.014  14.054  0.00  0.00     0.094 H 
ATOM    121  H   NTO d 869      63.126   4.759  10.373  0.00  0.00     0.090 H 
ATOM    122  H   NTO d 869      64.986   2.885   7.534  0.00  0.00     0.076 H 
ATOM    123  H   NTO d 869      53.876   2.811  10.811  0.00  0.00     0.231 HD
ATOM    124  H   NTO d 869      55.012   3.985  10.208  0.00  0.00     0.076 H 
ATOM    125  H   NTO d 869      71.743   0.416  17.869  0.00  0.00     0.210 HD
ATOM    126  H   NTO d 869      52.883   4.245   9.206  0.00  0.00     0.131 H 
ATOM    127  H   NTO d 869      65.674   3.200  10.011  0.00  0.00     0.091 H 
ATOM    128  H   NTO d 869      65.772   4.632  13.937  0.00  0.00     0.210 HD
ATOM    129  H   NTO d 869      63.363   4.719   6.878  0.00  0.00     0.131 H 
ATOM    130  H   NTO d 869      58.441   4.854   6.849  0.00  0.00     0.133 H 
ATOM    131  H   NTO d 869      69.110  -3.431  17.256  0.00  0.00     0.080 H 
ATOM    132  H   NTO d 869      69.797  -3.868  15.699  0.00  0.00     0.080 H 
ATOM    133  H   NTO d 869      54.938   6.484   7.236  0.00  0.00     0.090 H 
ATOM    134  H   NTO d 869      63.539   1.808   3.544  0.00  0.00     0.231 HD
ATOM    135  H   NTO d 869      71.510  -1.719  14.721  0.00  0.00     0.210 HD
ATOM    136  H   NTO d 869      55.549   6.881   9.626  0.00  0.00     0.089 H 
ATOM    137  H   NTO d 869      65.675   1.621  16.142  0.00  0.00     0.210 HD
ATOM    138  H   NTO d 869      57.182   4.782  10.682  0.00  0.00     0.210 HD
ATOM    139  H   NTO d 869      71.329   1.609  18.378  0.00  0.00     0.231 HD
ATOM    140  H   NTO d 869      64.914   5.347  11.956  0.00  0.00     0.080 H 
ATOM    141  H   NTO d 869      64.686   6.639  10.778  0.00  0.00     0.080 H 
ATOM    142  H   NTO d 869      62.848   2.305   9.581  0.00  0.00     0.092 H 
ATOM    143  H   NTO d 869      67.264   0.746  16.492  0.00  0.00     0.131 H 
ENDROOT
TORSDOF 46
ENDMDL
MODEL 17
REMARK VINA RESULT:      -8.1      2.721     13.954
REMARK  0 active torsions:
REMARK  status: ('A' for Active; 'I' for Inactive)
REMARK       I    between atoms: O3I_1  and  S3H_51 
REMARK       I    between atoms: O1I_2  and  S1G_48 
REMARK       I    between atoms: O54_3  and  C53_28 
REMARK       I    between atoms: O54_3  and  S55_64 
REMARK       I    between atoms: C41_5  and  C43_30 
REMARK       I    between atoms: C1B_6  and  O1C_53 
REMARK       I    between atoms: O4G_7  and  C4F_62 
REMARK       I    between atoms: O4G_7  and  C50_15 
REMARK       I    between atoms: N5G_8  and  C5F_50 
REMARK       I    between atoms: N5G_8  and  S5H_47 
REMARK       I    between atoms: N1F_9  and  C1E_41 
REMARK       I    between atoms: N1F_9  and  S1G_48 
REMARK       I    between atoms: O3K_10  and  S3H_51 
REMARK       I    between atoms: C5N_11  and  O5M_87 
REMARK       I    between atoms: C21_12  and  C23_57 
REMARK       I    between atoms: C26_13  and  O27_73 
REMARK       I    between atoms: C49_16  and  O4A_21 
REMARK       I    between atoms: O2D_17  and  C2C_35 
REMARK       I    between atoms: O2D_17  and  C30_56 
REMARK       I    between atoms: O1L_18  and  C1K_89 
REMARK       I    between atoms: O1L_18  and  C20_27 
REMARK       I    between atoms: C46_20  and  O47_33 
REMARK       I    between atoms: O4A_21  and  S4B_39 
REMARK       I    between atoms: N3G_22  and  C3F_46 
REMARK       I    between atoms: N3G_22  and  S3H_51 
REMARK       I    between atoms: C40_25  and  O3M_29 
REMARK       I    between atoms: O5I_26  and  S5H_47 
REMARK       I    between atoms: C53_28  and  C51_66 
REMARK       I    between atoms: O3M_29  and  C3L_61 
REMARK       I    between atoms: S17_31  and  O16_86 
REMARK       I    between atoms: O5K_34  and  S5H_47 
REMARK       I    between atoms: O1J_37  and  S1G_48 
REMARK       I    between atoms: C12_38  and  O10_70 
REMARK       I    between atoms: C13_42  and  C15_63 
REMARK       I    between atoms: C29_43  and  O2A_60 
REMARK       I    between atoms: C31_45  and  C33_81 
REMARK       I    between atoms: S5H_47  and  O5J_49 
REMARK       I    between atoms: S1G_48  and  O1H_78 
REMARK       I    between atoms: S3H_51  and  O3J_68 
REMARK       I    between atoms: O3A_54  and  C39_85 
REMARK       I    between atoms: O3A_54  and  S3B_83 
REMARK       I    between atoms: C5L_55  and  O5M_87 
REMARK       I    between atoms: C15_63  and  O16_86 
REMARK       I    between atoms: C59_71  and  O5A_75 
REMARK       I    between atoms: C33_81  and  O34_91 
REMARK       I    between atoms: S35_82  and  O34_91 
ROOT
ATOM      1  O3I NTO d 869      60.836  -1.782   5.392  0.00  0.00    -0.296 OA
ATOM      2  O1I NTO d 869      68.537   5.756  16.799  0.00  0.00    -0.296 OA
ATOM      3  O54 NTO d 869      55.134  -0.762   6.143  0.00  0.00    -0.254 OA
ATOM      4  O18 NTO d 869      65.985  -1.504  20.150  0.00  0.00    -0.572 OA
ATOM      5  C41 NTO d 869      59.372   2.610   7.675  0.00  0.00     0.152 C 
ATOM      6  C1B NTO d 869      69.977   1.934  16.047  0.00  0.00     0.083 C 
ATOM      7  O4G NTO d 869      56.542   2.515   6.098  0.00  0.00    -0.348 OA
ATOM      8  N5G NTO d 869      53.271   3.859   9.417  0.00  0.00    -0.210 NA
ATOM      9  N1F NTO d 869      68.809   3.865  15.105  0.00  0.00    -0.210 NA
ATOM     10  O3K NTO d 869      63.242  -1.340   5.209  0.00  0.00    -0.296 OA
ATOM     11  C5N NTO d 869      50.681   2.704   6.798  0.00  0.00     0.007 C 
ATOM     12  C21 NTO d 869      66.580   0.594  12.695  0.00  0.00     0.152 C 
ATOM     13  C26 NTO d 869      65.963   2.803  13.582  0.00  0.00     0.092 C 
ATOM     14  O4E NTO d 869      57.561   2.681   1.773  0.00  0.00    -0.572 OA
ATOM     15  C50 NTO d 869      55.483   2.027   6.936  0.00  0.00     0.095 C 
ATOM     16  C49 NTO d 869      58.749   2.220   5.187  0.00  0.00     0.134 C 
ATOM     17  O2D NTO d 869      63.614   1.659  10.867  0.00  0.00    -0.348 OA
ATOM     18  O1L NTO d 869      67.622   1.381  14.702  0.00  0.00    -0.348 OA
ATOM     19  O19 NTO d 869      67.781  -3.106  19.679  0.00  0.00    -0.572 OA
ATOM     20  C46 NTO d 869      60.129   1.639   5.497  0.00  0.00     0.094 C 
ATOM     21  O4A NTO d 869      58.347   1.858   3.864  0.00  0.00    -0.244 OA
ATOM     22  N3G NTO d 869      62.218  -1.683   7.543  0.00  0.00    -0.210 NA
ATOM     23  O36 NTO d 869      67.276   3.974   9.917  0.00  0.00    -0.572 OA
ATOM     24  O57 NTO d 869      55.187  -2.086   4.153  0.00  0.00    -0.572 OA
ATOM     25  C40 NTO d 869      60.569   2.104   6.883  0.00  0.00     0.103 C 
ATOM     26  O5I NTO d 869      54.023   3.451  11.820  0.00  0.00    -0.296 OA
ATOM     27  C20 NTO d 869      66.385   1.389  13.977  0.00  0.00     0.103 C 
ATOM     28  C53 NTO d 869      54.784   0.319   5.277  0.00  0.00     0.067 C 
ATOM     29  O3M NTO d 869      61.159   0.983   7.553  0.00  0.00    -0.348 OA
ATOM     30  C43 NTO d 869      59.776   2.707   9.138  0.00  0.00     0.206 C 
ATOM     31  S17 NTO d 869      66.613  -2.367  19.097  0.00  0.00     0.251 S 
ATOM     32  O45 NTO d 869      60.279   1.696   9.678  0.00  0.00    -0.646 OA
ATOM     33  O47 NTO d 869      61.067   2.102   4.521  0.00  0.00    -0.390 OA
ATOM     34  O5K NTO d 869      51.737   4.251  11.431  0.00  0.00    -0.296 OA
ATOM     35  C2C NTO d 869      64.873   1.798  11.547  0.00  0.00     0.160 C 
ATOM     36  O38 NTO d 869      67.577   4.059   7.493  0.00  0.00    -0.572 OA
ATOM     37  O1J NTO d 869      69.518   6.264  14.612  0.00  0.00    -0.296 OA
ATOM     38  C12 NTO d 869      69.852   0.777  17.042  0.00  0.00     0.089 C 
ATOM     39  S4B NTO d 869      58.342   3.005   3.010  0.00  0.00     0.252 S 
ATOM     40  O4D NTO d 869      59.751   3.366   2.644  0.00  0.00    -0.572 OA
ATOM     41  C1E NTO d 869      68.761   2.853  16.168  0.00  0.00     0.081 C 
ATOM     42  C13 NTO d 869      68.493   0.087  16.907  0.00  0.00     0.090 C 
ATOM     43  C29 NTO d 869      64.680   2.724  12.752  0.00  0.00     0.110 C 
ATOM     44  O42 NTO d 869      58.263   1.703   7.536  0.00  0.00    -0.340 OA
ATOM     45  C31 NTO d 869      63.289   2.279   8.568  0.00  0.00     0.091 C 
ATOM     46  C3F NTO d 869      63.022  -0.474   7.801  0.00  0.00     0.083 C 
ATOM     47  S5H NTO d 869      52.834   3.370  10.911  0.00  0.00     0.156 S 
ATOM     48  S1G NTO d 869      69.433   5.244  15.708  0.00  0.00     0.156 S 
ATOM     49  O5J NTO d 869      52.337   1.956  10.862  0.00  0.00    -0.296 OA
ATOM     50  C5F NTO d 869      53.813   2.724   8.655  0.00  0.00     0.081 C 
ATOM     51  S3H NTO d 869      62.189  -2.096   5.962  0.00  0.00     0.156 S 
ATOM     52  O25 NTO d 869      68.342  -0.901  13.263  0.00  0.00    -0.646 OA
ATOM     53  O1C NTO d 869      71.169   2.674  16.321  0.00  0.00    -0.391 OA
ATOM     54  O3A NTO d 869      63.523  -1.162  10.077  0.00  0.00    -0.247 OA
ATOM     55  C5L NTO d 869      52.716   2.124   7.774  0.00  0.00     0.149 C 
ATOM     56  C30 NTO d 869      63.771   1.191   9.519  0.00  0.00     0.096 C 
ATOM     57  C23 NTO d 869      67.109  -0.782  13.071  0.00  0.00     0.206 C 
ATOM     58  O3E NTO d 869      61.846  -0.804  11.761  0.00  0.00    -0.572 OA
ATOM     59  O14 NTO d 869      67.423   1.038  17.024  0.00  0.00    -0.349 OA
ATOM     60  O2A NTO d 869      64.328   4.032  12.299  0.00  0.00    -0.388 OA
ATOM     61  C3L NTO d 869      62.457   0.704   7.010  0.00  0.00     0.150 C 
ATOM     62  C4F NTO d 869      57.724   1.710   6.205  0.00  0.00     0.161 C 
ATOM     63  C15 NTO d 869      68.343  -0.924  18.048  0.00  0.00     0.067 C 
ATOM     64  S55 NTO d 869      55.540  -2.027   5.609  0.00  0.00     0.251 S 
ATOM     65  O58 NTO d 869      54.825  -3.120   6.345  0.00  0.00    -0.572 OA
ATOM     66  C51 NTO d 869      54.319   1.527   6.094  0.00  0.00     0.091 C 
ATOM     67  O56 NTO d 869      57.022  -2.200   5.766  0.00  0.00    -0.572 OA
ATOM     68  O3J NTO d 869      62.461  -3.565   5.822  0.00  0.00    -0.296 OA
ATOM     69  O44 NTO d 869      59.594   3.801   9.733  0.00  0.00    -0.646 OA
ATOM     70  O10 NTO d 869      70.882  -0.176  16.768  0.00  0.00    -0.390 OA
ATOM     71  C59 NTO d 869      54.997   3.187   7.804  0.00  0.00     0.083 C 
ATOM     72  O52 NTO d 869      53.231   1.086   6.923  0.00  0.00    -0.349 OA
ATOM     73  O27 NTO d 869      65.717   3.585  14.754  0.00  0.00    -0.390 OA
ATOM     74  O1A NTO d 869      65.598  -3.344  18.588  0.00  0.00    -0.572 OA
ATOM     75  O5A NTO d 869      56.071   3.594   8.657  0.00  0.00    -0.391 OA
ATOM     76  O37 NTO d 869      65.970   5.557   8.585  0.00  0.00    -0.572 OA
ATOM     77  O24 NTO d 869      66.286  -1.721  13.188  0.00  0.00    -0.646 OA
ATOM     78  O1H NTO d 869      70.799   4.971  16.263  0.00  0.00    -0.296 OA
ATOM     79  O22 NTO d 869      65.348   0.506  11.959  0.00  0.00    -0.340 OA
ATOM     80  O3D NTO d 869      63.106  -2.902  11.664  0.00  0.00    -0.572 OA
ATOM     81  C33 NTO d 869      64.187   3.509   8.726  0.00  0.00     0.067 C 
ATOM     82  S35 NTO d 869      66.581   4.187   8.606  0.00  0.00     0.251 S 
ATOM     83  S3B NTO d 869      62.499  -1.800  10.848  0.00  0.00     0.252 S 
ATOM     84  O4C NTO d 869      57.691   4.157   3.717  0.00  0.00    -0.572 OA
ATOM     85  C39 NTO d 869      62.979  -0.100   9.284  0.00  0.00     0.108 C 
ATOM     86  O16 NTO d 869      67.057  -1.546  18.011  0.00  0.00    -0.254 OA
ATOM     87  O5M NTO d 869      52.022   3.140   7.039  0.00  0.00    -0.364 OA
ATOM     88  O3C NTO d 869      61.464  -2.383   9.934  0.00  0.00    -0.572 OA
ATOM     89  C1K NTO d 869      67.492   2.021  15.979  0.00  0.00     0.150 C 
ATOM     90  O32 NTO d 869      63.316   1.840   7.201  0.00  0.00    -0.349 OA
ATOM     91  O34 NTO d 869      65.554   3.202   8.433  0.00  0.00    -0.254 OA
ATOM     92  H   NTO d 869      60.660  -0.832   5.482  0.00  0.00     0.231 HD
ATOM     93  H   NTO d 869      67.655   5.931  16.436  0.00  0.00     0.231 HD
ATOM     94  H   NTO d 869      59.070   3.568   7.308  0.00  0.00     0.104 H 
ATOM     95  H   NTO d 869      70.023   1.542  15.052  0.00  0.00     0.089 H 
ATOM     96  H   NTO d 869      52.456   4.233   8.932  0.00  0.00     0.140 HD
ATOM     97  H   NTO d 869      67.866   4.040  14.758  0.00  0.00     0.140 HD
ATOM     98  H   NTO d 869      63.077  -0.387   5.292  0.00  0.00     0.231 HD
ATOM     99  H   NTO d 869      50.154   3.457   6.250  0.00  0.00     0.066 H 
ATOM    100  H   NTO d 869      50.188   2.532   7.731  0.00  0.00     0.066 H 
ATOM    101  H   NTO d 869      50.698   1.796   6.231  0.00  0.00     0.066 H 
ATOM    102  H   NTO d 869      67.285   1.084  12.056  0.00  0.00     0.104 H 
ATOM    103  H   NTO d 869      66.744   3.261  13.011  0.00  0.00     0.091 H 
ATOM    104  H   NTO d 869      55.847   1.218   7.534  0.00  0.00     0.091 H 
ATOM    105  H   NTO d 869      58.801   3.287   5.252  0.00  0.00     0.097 H 
ATOM    106  H   NTO d 869      60.084   0.570   5.471  0.00  0.00     0.091 H 
ATOM    107  H   NTO d 869      61.262  -1.510   7.853  0.00  0.00     0.140 HD
ATOM    108  H   NTO d 869      61.273   2.905   6.798  0.00  0.00     0.092 H 
ATOM    109  H   NTO d 869      54.344   4.365  11.852  0.00  0.00     0.231 HD
ATOM    110  H   NTO d 869      65.629   0.969  14.607  0.00  0.00     0.092 H 
ATOM    111  H   NTO d 869      53.993   0.008   4.627  0.00  0.00     0.080 H 
ATOM    112  H   NTO d 869      55.643   0.598   4.704  0.00  0.00     0.080 H 
ATOM    113  H   NTO d 869      61.107   3.071   4.545  0.00  0.00     0.210 HD
ATOM    114  H   NTO d 869      52.050   5.169  11.467  0.00  0.00     0.231 HD
ATOM    115  H   NTO d 869      65.604   2.225  10.894  0.00  0.00     0.133 H 
ATOM    116  H   NTO d 869      68.631   6.435  14.259  0.00  0.00     0.231 HD
ATOM    117  H   NTO d 869      69.945   1.164  18.035  0.00  0.00     0.091 H 
ATOM    118  H   NTO d 869      68.763   3.326  17.128  0.00  0.00     0.076 H 
ATOM    119  H   NTO d 869      68.447  -0.388  15.950  0.00  0.00     0.090 H 
ATOM    120  H   NTO d 869      63.897   2.328  13.364  0.00  0.00     0.094 H 
ATOM    121  H   NTO d 869      62.276   2.517   8.815  0.00  0.00     0.090 H 
ATOM    122  H   NTO d 869      64.030  -0.683   7.507  0.00  0.00     0.076 H 
ATOM    123  H   NTO d 869      53.039   1.377  10.527  0.00  0.00     0.231 HD
ATOM    124  H   NTO d 869      54.158   1.971   9.332  0.00  0.00     0.076 H 
ATOM    125  H   NTO d 869      71.127   3.031  17.223  0.00  0.00     0.210 HD
ATOM    126  H   NTO d 869      51.997   1.662   8.416  0.00  0.00     0.131 H 
ATOM    127  H   NTO d 869      64.803   0.973   9.342  0.00  0.00     0.091 H 
ATOM    128  H   NTO d 869      65.041   4.386  11.745  0.00  0.00     0.210 HD
ATOM    129  H   NTO d 869      62.393   0.486   5.963  0.00  0.00     0.131 H 
ATOM    130  H   NTO d 869      57.473   0.692   5.990  0.00  0.00     0.133 H 
ATOM    131  H   NTO d 869      68.460  -0.417  18.983  0.00  0.00     0.080 H 
ATOM    132  H   NTO d 869      69.092  -1.680  17.937  0.00  0.00     0.080 H 
ATOM    133  H   NTO d 869      53.991   2.331   5.468  0.00  0.00     0.090 H 
ATOM    134  H   NTO d 869      62.443  -3.809   4.884  0.00  0.00     0.231 HD
ATOM    135  H   NTO d 869      70.779  -0.512  15.864  0.00  0.00     0.210 HD
ATOM    136  H   NTO d 869      54.686   4.005   7.188  0.00  0.00     0.089 H 
ATOM    137  H   NTO d 869      65.009   3.173  15.275  0.00  0.00     0.210 HD
ATOM    138  H   NTO d 869      56.345   2.847   9.210  0.00  0.00     0.210 HD
ATOM    139  H   NTO d 869      70.735   4.311  16.971  0.00  0.00     0.231 HD
ATOM    140  H   NTO d 869      64.119   3.863   9.733  0.00  0.00     0.080 H 
ATOM    141  H   NTO d 869      63.856   4.257   8.035  0.00  0.00     0.080 H 
ATOM    142  H   NTO d 869      61.961   0.057   9.573  0.00  0.00     0.092 H 
ATOM    143  H   NTO d 869      66.605   2.618  16.020  0.00  0.00     0.131 H 
ENDROOT
TORSDOF 46
ENDMDL
MODEL 18
REMARK VINA RESULT:      -8.1      4.203      6.190
REMARK  0 active torsions:
REMARK  status: ('A' for Active; 'I' for Inactive)
REMARK       I    between atoms: O3I_1  and  S3H_51 
REMARK       I    between atoms: O1I_2  and  S1G_48 
REMARK       I    between atoms: O54_3  and  C53_28 
REMARK       I    between atoms: O54_3  and  S55_64 
REMARK       I    between atoms: C41_5  and  C43_30 
REMARK       I    between atoms: C1B_6  and  O1C_53 
REMARK       I    between atoms: O4G_7  and  C4F_62 
REMARK       I    between atoms: O4G_7  and  C50_15 
REMARK       I    between atoms: N5G_8  and  C5F_50 
REMARK       I    between atoms: N5G_8  and  S5H_47 
REMARK       I    between atoms: N1F_9  and  C1E_41 
REMARK       I    between atoms: N1F_9  and  S1G_48 
REMARK       I    between atoms: O3K_10  and  S3H_51 
REMARK       I    between atoms: C5N_11  and  O5M_87 
REMARK       I    between atoms: C21_12  and  C23_57 
REMARK       I    between atoms: C26_13  and  O27_73 
REMARK       I    between atoms: C49_16  and  O4A_21 
REMARK       I    between atoms: O2D_17  and  C2C_35 
REMARK       I    between atoms: O2D_17  and  C30_56 
REMARK       I    between atoms: O1L_18  and  C1K_89 
REMARK       I    between atoms: O1L_18  and  C20_27 
REMARK       I    between atoms: C46_20  and  O47_33 
REMARK       I    between atoms: O4A_21  and  S4B_39 
REMARK       I    between atoms: N3G_22  and  C3F_46 
REMARK       I    between atoms: N3G_22  and  S3H_51 
REMARK       I    between atoms: C40_25  and  O3M_29 
REMARK       I    between atoms: O5I_26  and  S5H_47 
REMARK       I    between atoms: C53_28  and  C51_66 
REMARK       I    between atoms: O3M_29  and  C3L_61 
REMARK       I    between atoms: S17_31  and  O16_86 
REMARK       I    between atoms: O5K_34  and  S5H_47 
REMARK       I    between atoms: O1J_37  and  S1G_48 
REMARK       I    between atoms: C12_38  and  O10_70 
REMARK       I    between atoms: C13_42  and  C15_63 
REMARK       I    between atoms: C29_43  and  O2A_60 
REMARK       I    between atoms: C31_45  and  C33_81 
REMARK       I    between atoms: S5H_47  and  O5J_49 
REMARK       I    between atoms: S1G_48  and  O1H_78 
REMARK       I    between atoms: S3H_51  and  O3J_68 
REMARK       I    between atoms: O3A_54  and  C39_85 
REMARK       I    between atoms: O3A_54  and  S3B_83 
REMARK       I    between atoms: C5L_55  and  O5M_87 
REMARK       I    between atoms: C15_63  and  O16_86 
REMARK       I    between atoms: C59_71  and  O5A_75 
REMARK       I    between atoms: C33_81  and  O34_91 
REMARK       I    between atoms: S35_82  and  O34_91 
ROOT
ATOM      1  O3I NTO d 869      68.587   4.288   8.101  0.00  0.00    -0.296 OA
ATOM      2  O1I NTO d 869      56.111  -5.014  10.112  0.00  0.00    -0.296 OA
ATOM      3  O54 NTO d 869      68.973   7.756  12.785  0.00  0.00    -0.254 OA
ATOM      4  O18 NTO d 869      53.127   2.217   7.069  0.00  0.00    -0.572 OA
ATOM      5  C41 NTO d 869      66.743   2.593  12.613  0.00  0.00     0.152 C 
ATOM      6  C1B NTO d 869      56.473  -3.505   6.261  0.00  0.00     0.083 C 
ATOM      7  O4G NTO d 869      68.832   4.489  14.208  0.00  0.00    -0.348 OA
ATOM      8  N5G NTO d 869      66.240   6.309  17.881  0.00  0.00    -0.210 NA
ATOM      9  N1F NTO d 869      57.672  -4.113   8.304  0.00  0.00    -0.210 NA
ATOM     10  O3K NTO d 869      68.315   2.241   6.777  0.00  0.00    -0.296 OA
ATOM     11  C5N NTO d 869      69.278   8.637  18.389  0.00  0.00     0.007 C 
ATOM     12  C21 NTO d 869      60.379  -0.563   7.066  0.00  0.00     0.152 C 
ATOM     13  C26 NTO d 869      59.686  -1.533   9.216  0.00  0.00     0.092 C 
ATOM     14  O4E NTO d 869      72.883   3.118  12.991  0.00  0.00    -0.572 OA
ATOM     15  C50 NTO d 869      68.201   5.684  14.692  0.00  0.00     0.095 C 
ATOM     16  C49 NTO d 869      69.293   3.003  12.374  0.00  0.00     0.134 C 
ATOM     17  O2D NTO d 869      62.771   0.602   9.555  0.00  0.00    -0.348 OA
ATOM     18  O1L NTO d 869      58.230  -1.604   7.239  0.00  0.00    -0.348 OA
ATOM     19  O19 NTO d 869      53.201   1.978   4.630  0.00  0.00    -0.572 OA
ATOM     20  C46 NTO d 869      68.709   2.453  11.072  0.00  0.00     0.094 C 
ATOM     21  O4A NTO d 869      70.659   3.378  12.182  0.00  0.00    -0.244 OA
ATOM     22  N3G NTO d 869      66.214   3.494   7.568  0.00  0.00    -0.210 NA
ATOM     23  O36 NTO d 869      63.058  -3.726   8.630  0.00  0.00    -0.572 OA
ATOM     24  O57 NTO d 869      70.882   8.387  11.489  0.00  0.00    -0.572 OA
ATOM     25  C40 NTO d 869      67.277   1.988  11.322  0.00  0.00     0.103 C 
ATOM     26  O5I NTO d 869      63.727   6.345  17.443  0.00  0.00    -0.296 OA
ATOM     27  C20 NTO d 869      59.180  -0.814   7.967  0.00  0.00     0.103 C 
ATOM     28  C53 NTO d 869      69.918   7.158  13.673  0.00  0.00     0.067 C 
ATOM     29  O3M NTO d 869      66.477   2.418  10.215  0.00  0.00    -0.348 OA
ATOM     30  C43 NTO d 869      65.232   2.415  12.633  0.00  0.00     0.206 C 
ATOM     31  S17 NTO d 869      54.016   2.233   5.863  0.00  0.00     0.251 S 
ATOM     32  O45 NTO d 869      64.580   2.817  11.643  0.00  0.00    -0.646 OA
ATOM     33  O47 NTO d 869      69.498   1.344  10.630  0.00  0.00    -0.390 OA
ATOM     34  O5K NTO d 869      64.569   7.382  19.500  0.00  0.00    -0.296 OA
ATOM     35  C2C NTO d 869      61.865  -0.311   8.913  0.00  0.00     0.160 C 
ATOM     36  O38 NTO d 869      65.380  -4.296   8.123  0.00  0.00    -0.572 OA
ATOM     37  O1J NTO d 869      58.081  -6.332   9.492  0.00  0.00    -0.296 OA
ATOM     38  C12 NTO d 869      55.491  -2.498   5.656  0.00  0.00     0.089 C 
ATOM     39  S4B NTO d 869      71.528   2.487  12.888  0.00  0.00     0.252 S 
ATOM     40  O4D NTO d 869      71.625   1.187  12.147  0.00  0.00    -0.572 OA
ATOM     41  C1E NTO d 869      56.612  -3.253   7.762  0.00  0.00     0.081 C 
ATOM     42  C13 NTO d 869      55.866  -1.067   6.048  0.00  0.00     0.090 C 
ATOM     43  C29 NTO d 869      60.745  -0.663   9.895  0.00  0.00     0.110 C 
ATOM     44  O42 NTO d 869      67.069   3.992  12.680  0.00  0.00    -0.340 OA
ATOM     45  C31 NTO d 869      65.105   0.128   9.876  0.00  0.00     0.091 C 
ATOM     46  C3F NTO d 869      65.837   2.119   7.943  0.00  0.00     0.083 C 
ATOM     47  S5H NTO d 869      64.846   7.141  18.045  0.00  0.00     0.156 S 
ATOM     48  S1G NTO d 869      56.995  -5.435   8.975  0.00  0.00     0.156 S 
ATOM     49  O5J NTO d 869      64.953   8.463  17.347  0.00  0.00    -0.296 OA
ATOM     50  C5F NTO d 869      66.854   6.609  16.579  0.00  0.00     0.081 C 
ATOM     51  S3H NTO d 869      67.759   3.607   7.050  0.00  0.00     0.156 S 
ATOM     52  O25 NTO d 869      59.445  -0.725   4.883  0.00  0.00    -0.646 OA
ATOM     53  O1C NTO d 869      55.994  -4.833   6.038  0.00  0.00    -0.391 OA
ATOM     54  O3A NTO d 869      63.491   2.512   7.452  0.00  0.00    -0.247 OA
ATOM     55  C5L NTO d 869      67.914   7.699  16.748  0.00  0.00     0.149 C 
ATOM     56  C30 NTO d 869      64.052   0.648   8.907  0.00  0.00     0.096 C 
ATOM     57  C23 NTO d 869      59.873   0.052   5.769  0.00  0.00     0.206 C 
ATOM     58  O3E NTO d 869      62.170   3.671   9.092  0.00  0.00    -0.572 OA
ATOM     59  O14 NTO d 869      55.982  -0.943   7.474  0.00  0.00    -0.349 OA
ATOM     60  O2A NTO d 869      61.290  -1.366  11.012  0.00  0.00    -0.388 OA
ATOM     61  C3L NTO d 869      66.753   1.616   9.058  0.00  0.00     0.150 C 
ATOM     62  C4F NTO d 869      68.479   4.211  12.846  0.00  0.00     0.161 C 
ATOM     63  C15 NTO d 869      54.750  -0.125   5.588  0.00  0.00     0.067 C 
ATOM     64  S55 NTO d 869      69.387   8.272  11.514  0.00  0.00     0.251 S 
ATOM     65  O58 NTO d 869      68.774   9.625  11.313  0.00  0.00    -0.572 OA
ATOM     66  C51 NTO d 869      69.238   6.759  14.985  0.00  0.00     0.091 C 
ATOM     67  O56 NTO d 869      68.943   7.350  10.417  0.00  0.00    -0.572 OA
ATOM     68  O3J NTO d 869      67.807   4.406   5.781  0.00  0.00    -0.296 OA
ATOM     69  O44 NTO d 869      64.712   1.865  13.638  0.00  0.00    -0.646 OA
ATOM     70  O10 NTO d 869      55.537  -2.612   4.231  0.00  0.00    -0.390 OA
ATOM     71  C59 NTO d 869      67.473   5.340  15.991  0.00  0.00     0.083 C 
ATOM     72  O52 NTO d 869      68.622   7.941  15.521  0.00  0.00    -0.349 OA
ATOM     73  O27 NTO d 869      58.603  -1.752  10.125  0.00  0.00    -0.390 OA
ATOM     74  O1A NTO d 869      54.686   3.570   5.759  0.00  0.00    -0.572 OA
ATOM     75  O5A NTO d 869      66.440   4.396  15.693  0.00  0.00    -0.391 OA
ATOM     76  O37 NTO d 869      64.657  -4.043  10.454  0.00  0.00    -0.572 OA
ATOM     77  O24 NTO d 869      59.893   1.301   5.660  0.00  0.00    -0.646 OA
ATOM     78  O1H NTO d 869      56.182  -6.157   7.943  0.00  0.00    -0.296 OA
ATOM     79  O22 NTO d 869      61.337   0.290   7.719  0.00  0.00    -0.340 OA
ATOM     80  O3D NTO d 869      61.969   4.202   6.709  0.00  0.00    -0.572 OA
ATOM     81  C33 NTO d 869      64.809  -1.342  10.188  0.00  0.00     0.067 C 
ATOM     82  S35 NTO d 869      64.484  -3.535   9.053  0.00  0.00     0.251 S 
ATOM     83  S3B NTO d 869      62.915   3.778   7.793  0.00  0.00     0.252 S 
ATOM     84  O4C NTO d 869      70.989   2.246  14.267  0.00  0.00    -0.572 OA
ATOM     85  C39 NTO d 869      64.401   2.074   8.467  0.00  0.00     0.108 C 
ATOM     86  O16 NTO d 869      55.018   1.218   5.996  0.00  0.00    -0.254 OA
ATOM     87  O5M NTO d 869      68.794   7.407  17.840  0.00  0.00    -0.364 OA
ATOM     88  O3C NTO d 869      63.996   4.808   7.928  0.00  0.00    -0.572 OA
ATOM     89  C1K NTO d 869      57.019  -1.796   7.983  0.00  0.00     0.150 C 
ATOM     90  O32 NTO d 869      66.430   0.244   9.333  0.00  0.00    -0.349 OA
ATOM     91  O34 NTO d 869      64.826  -2.144   9.004  0.00  0.00    -0.254 OA
ATOM     92  H   NTO d 869      68.557   3.772   8.921  0.00  0.00     0.231 HD
ATOM     93  H   NTO d 869      56.641  -4.547  10.778  0.00  0.00     0.231 HD
ATOM     94  H   NTO d 869      67.186   2.104  13.455  0.00  0.00     0.104 H 
ATOM     95  H   NTO d 869      57.429  -3.389   5.795  0.00  0.00     0.089 H 
ATOM     96  H   NTO d 869      66.882   6.576  18.627  0.00  0.00     0.140 HD
ATOM     97  H   NTO d 869      58.197  -3.602   9.012  0.00  0.00     0.140 HD
ATOM     98  H   NTO d 869      68.291   1.714   7.591  0.00  0.00     0.231 HD
ATOM     99  H   NTO d 869      69.936   8.429  19.206  0.00  0.00     0.066 H 
ATOM    100  H   NTO d 869      68.452   9.222  18.736  0.00  0.00     0.066 H 
ATOM    101  H   NTO d 869      69.807   9.180  17.634  0.00  0.00     0.066 H 
ATOM    102  H   NTO d 869      60.883  -1.482   6.851  0.00  0.00     0.104 H 
ATOM    103  H   NTO d 869      60.107  -2.477   8.937  0.00  0.00     0.091 H 
ATOM    104  H   NTO d 869      67.523   6.054  13.952  0.00  0.00     0.091 H 
ATOM    105  H   NTO d 869      69.247   2.239  13.123  0.00  0.00     0.097 H 
ATOM    106  H   NTO d 869      68.715   3.217  10.323  0.00  0.00     0.091 H 
ATOM    107  H   NTO d 869      66.099   4.098   8.383  0.00  0.00     0.140 HD
ATOM    108  H   NTO d 869      67.246   0.923  11.417  0.00  0.00     0.092 H 
ATOM    109  H   NTO d 869      63.658   5.490  17.895  0.00  0.00     0.231 HD
ATOM    110  H   NTO d 869      58.697   0.093   8.265  0.00  0.00     0.092 H 
ATOM    111  H   NTO d 869      70.700   7.858  13.880  0.00  0.00     0.080 H 
ATOM    112  H   NTO d 869      70.323   6.281  13.211  0.00  0.00     0.080 H 
ATOM    113  H   NTO d 869      69.492   0.652  11.309  0.00  0.00     0.210 HD
ATOM    114  H   NTO d 869      64.498   6.531  19.961  0.00  0.00     0.231 HD
ATOM    115  H   NTO d 869      62.376  -1.207   8.632  0.00  0.00     0.133 H 
ATOM    116  H   NTO d 869      58.601  -5.858  10.159  0.00  0.00     0.231 HD
ATOM    117  H   NTO d 869      54.509  -2.709   6.024  0.00  0.00     0.091 H 
ATOM    118  H   NTO d 869      55.682  -3.463   8.249  0.00  0.00     0.076 H 
ATOM    119  H   NTO d 869      56.802  -0.824   5.590  0.00  0.00     0.090 H 
ATOM    120  H   NTO d 869      60.284   0.244  10.227  0.00  0.00     0.094 H 
ATOM    121  H   NTO d 869      65.063   0.719  10.767  0.00  0.00     0.090 H 
ATOM    122  H   NTO d 869      65.927   1.506   7.071  0.00  0.00     0.076 H 
ATOM    123  H   NTO d 869      65.132   8.318  16.405  0.00  0.00     0.231 HD
ATOM    124  H   NTO d 869      66.104   6.963  15.904  0.00  0.00     0.076 H 
ATOM    125  H   NTO d 869      55.126  -4.939   6.460  0.00  0.00     0.210 HD
ATOM    126  H   NTO d 869      67.410   8.610  16.993  0.00  0.00     0.131 H 
ATOM    127  H   NTO d 869      64.021   0.038   8.029  0.00  0.00     0.091 H 
ATOM    128  H   NTO d 869      61.706  -2.188  10.706  0.00  0.00     0.210 HD
ATOM    129  H   NTO d 869      67.786   1.684   8.786  0.00  0.00     0.131 H 
ATOM    130  H   NTO d 869      68.711   5.065  12.245  0.00  0.00     0.133 H 
ATOM    131  H   NTO d 869      53.823  -0.443   6.018  0.00  0.00     0.080 H 
ATOM    132  H   NTO d 869      54.695  -0.154   4.520  0.00  0.00     0.080 H 
ATOM    133  H   NTO d 869      69.935   6.363  15.693  0.00  0.00     0.090 H 
ATOM    134  H   NTO d 869      68.724   4.473   5.474  0.00  0.00     0.231 HD
ATOM    135  H   NTO d 869      56.435  -2.417   3.921  0.00  0.00     0.210 HD
ATOM    136  H   NTO d 869      68.159   4.924  16.700  0.00  0.00     0.089 H 
ATOM    137  H   NTO d 869      58.218  -0.899  10.381  0.00  0.00     0.210 HD
ATOM    138  H   NTO d 869      65.826   4.782  15.050  0.00  0.00     0.210 HD
ATOM    139  H   NTO d 869      55.482  -5.570   7.614  0.00  0.00     0.231 HD
ATOM    140  H   NTO d 869      63.844  -1.413  10.643  0.00  0.00     0.080 H 
ATOM    141  H   NTO d 869      65.570  -1.704  10.849  0.00  0.00     0.080 H 
ATOM    142  H   NTO d 869      64.317   2.729   9.309  0.00  0.00     0.092 H 
ATOM    143  H   NTO d 869      57.165  -1.567   9.018  0.00  0.00     0.131 H 
ENDROOT
TORSDOF 46
ENDMDL
MODEL 19
REMARK VINA RESULT:      -8.1      2.854      3.655
REMARK  0 active torsions:
REMARK  status: ('A' for Active; 'I' for Inactive)
REMARK       I    between atoms: O3I_1  and  S3H_51 
REMARK       I    between atoms: O1I_2  and  S1G_48 
REMARK       I    between atoms: O54_3  and  C53_28 
REMARK       I    between atoms: O54_3  and  S55_64 
REMARK       I    between atoms: C41_5  and  C43_30 
REMARK       I    between atoms: C1B_6  and  O1C_53 
REMARK       I    between atoms: O4G_7  and  C4F_62 
REMARK       I    between atoms: O4G_7  and  C50_15 
REMARK       I    between atoms: N5G_8  and  C5F_50 
REMARK       I    between atoms: N5G_8  and  S5H_47 
REMARK       I    between atoms: N1F_9  and  C1E_41 
REMARK       I    between atoms: N1F_9  and  S1G_48 
REMARK       I    between atoms: O3K_10  and  S3H_51 
REMARK       I    between atoms: C5N_11  and  O5M_87 
REMARK       I    between atoms: C21_12  and  C23_57 
REMARK       I    between atoms: C26_13  and  O27_73 
REMARK       I    between atoms: C49_16  and  O4A_21 
REMARK       I    between atoms: O2D_17  and  C2C_35 
REMARK       I    between atoms: O2D_17  and  C30_56 
REMARK       I    between atoms: O1L_18  and  C1K_89 
REMARK       I    between atoms: O1L_18  and  C20_27 
REMARK       I    between atoms: C46_20  and  O47_33 
REMARK       I    between atoms: O4A_21  and  S4B_39 
REMARK       I    between atoms: N3G_22  and  C3F_46 
REMARK       I    between atoms: N3G_22  and  S3H_51 
REMARK       I    between atoms: C40_25  and  O3M_29 
REMARK       I    between atoms: O5I_26  and  S5H_47 
REMARK       I    between atoms: C53_28  and  C51_66 
REMARK       I    between atoms: O3M_29  and  C3L_61 
REMARK       I    between atoms: S17_31  and  O16_86 
REMARK       I    between atoms: O5K_34  and  S5H_47 
REMARK       I    between atoms: O1J_37  and  S1G_48 
REMARK       I    between atoms: C12_38  and  O10_70 
REMARK       I    between atoms: C13_42  and  C15_63 
REMARK       I    between atoms: C29_43  and  O2A_60 
REMARK       I    between atoms: C31_45  and  C33_81 
REMARK       I    between atoms: S5H_47  and  O5J_49 
REMARK       I    between atoms: S1G_48  and  O1H_78 
REMARK       I    between atoms: S3H_51  and  O3J_68 
REMARK       I    between atoms: O3A_54  and  C39_85 
REMARK       I    between atoms: O3A_54  and  S3B_83 
REMARK       I    between atoms: C5L_55  and  O5M_87 
REMARK       I    between atoms: C15_63  and  O16_86 
REMARK       I    between atoms: C59_71  and  O5A_75 
REMARK       I    between atoms: C33_81  and  O34_91 
REMARK       I    between atoms: S35_82  and  O34_91 
ROOT
ATOM      1  O3I NTO d 869      65.478   4.433  12.119  0.00  0.00    -0.296 OA
ATOM      2  O1I NTO d 869      52.983   1.309   3.155  0.00  0.00    -0.296 OA
ATOM      3  O54 NTO d 869      66.693  -0.385  15.190  0.00  0.00    -0.254 OA
ATOM      4  O18 NTO d 869      49.947   3.351  10.708  0.00  0.00    -0.572 OA
ATOM      5  C41 NTO d 869      64.215  -0.165  10.142  0.00  0.00     0.152 C 
ATOM      6  C1B NTO d 869      52.865   5.052   4.949  0.00  0.00     0.083 C 
ATOM      7  O4G NTO d 869      66.599  -1.573  11.828  0.00  0.00    -0.348 OA
ATOM      8  N5G NTO d 869      64.646  -5.706  13.447  0.00  0.00    -0.210 NA
ATOM      9  N1F NTO d 869      54.312   3.255   4.137  0.00  0.00    -0.210 NA
ATOM     10  O3K NTO d 869      64.923   5.848  10.194  0.00  0.00    -0.296 OA
ATOM     11  C5N NTO d 869      67.833  -5.934  15.613  0.00  0.00     0.007 C 
ATOM     12  C21 NTO d 869      56.983   4.612   7.672  0.00  0.00     0.152 C 
ATOM     13  C26 NTO d 869      56.557   2.461   6.560  0.00  0.00     0.092 C 
ATOM     14  O4E NTO d 869      70.365   0.318  10.408  0.00  0.00    -0.572 OA
ATOM     15  C50 NTO d 869      66.101  -2.229  13.003  0.00  0.00     0.095 C 
ATOM     16  C49 NTO d 869      66.722   0.412  10.475  0.00  0.00     0.134 C 
ATOM     17  O2D NTO d 869      59.758   2.419   8.547  0.00  0.00    -0.348 OA
ATOM     18  O1L NTO d 869      54.833   4.205   6.700  0.00  0.00    -0.348 OA
ATOM     19  O19 NTO d 869      49.662   5.786  10.660  0.00  0.00    -0.572 OA
ATOM     20  C46 NTO d 869      65.933   1.652  10.052  0.00  0.00     0.094 C 
ATOM     21  O4A NTO d 869      68.063   0.773  10.813  0.00  0.00    -0.244 OA
ATOM     22  N3G NTO d 869      63.018   4.670  11.458  0.00  0.00    -0.210 NA
ATOM     23  O36 NTO d 869      59.703   3.689   4.298  0.00  0.00    -0.572 OA
ATOM     24  O57 NTO d 869      68.425   1.125  15.850  0.00  0.00    -0.572 OA
ATOM     25  C40 NTO d 869      64.530   1.230   9.621  0.00  0.00     0.103 C 
ATOM     26  O5I NTO d 869      62.101  -5.642  13.610  0.00  0.00    -0.296 OA
ATOM     27  C20 NTO d 869      55.914   3.567   7.395  0.00  0.00     0.103 C 
ATOM     28  C53 NTO d 869      67.725  -1.081  14.488  0.00  0.00     0.067 C 
ATOM     29  O3M NTO d 869      63.603   2.176  10.167  0.00  0.00    -0.348 OA
ATOM     30  C43 NTO d 869      62.716  -0.391  10.019  0.00  0.00     0.206 C 
ATOM     31  S17 NTO d 869      50.655   4.670  10.787  0.00  0.00     0.251 S 
ATOM     32  O45 NTO d 869      61.950   0.461  10.522  0.00  0.00    -0.646 OA
ATOM     33  O47 NTO d 869      66.597   2.284   8.953  0.00  0.00    -0.390 OA
ATOM     34  O5K NTO d 869      63.276  -7.625  14.449  0.00  0.00    -0.296 OA
ATOM     35  C2C NTO d 869      58.727   2.988   7.722  0.00  0.00     0.160 C 
ATOM     36  O38 NTO d 869      61.899   4.569   3.685  0.00  0.00    -0.572 OA
ATOM     37  O1J NTO d 869      54.779   2.304   1.818  0.00  0.00    -0.296 OA
ATOM     38  C12 NTO d 869      51.856   5.433   6.036  0.00  0.00     0.089 C 
ATOM     39  S4B NTO d 869      68.980   0.268   9.838  0.00  0.00     0.252 S 
ATOM     40  O4D NTO d 869      68.909   1.108   8.597  0.00  0.00    -0.572 OA
ATOM     41  C1E NTO d 869      53.228   3.573   5.075  0.00  0.00     0.081 C 
ATOM     42  C13 NTO d 869      52.352   4.997   7.416  0.00  0.00     0.090 C 
ATOM     43  C29 NTO d 869      57.742   1.881   7.335  0.00  0.00     0.110 C 
ATOM     44  O42 NTO d 869      64.615  -0.285  11.519  0.00  0.00    -0.340 OA
ATOM     45  C31 NTO d 869      62.088   2.477   7.963  0.00  0.00     0.091 C 
ATOM     46  C3F NTO d 869      62.633   4.345  10.072  0.00  0.00     0.083 C 
ATOM     47  S5H NTO d 869      63.331  -6.132  14.314  0.00  0.00     0.156 S 
ATOM     48  S1G NTO d 869      53.675   2.590   2.792  0.00  0.00     0.156 S 
ATOM     49  O5J NTO d 869      63.401  -5.523  15.682  0.00  0.00    -0.296 OA
ATOM     50  C5F NTO d 869      65.083  -4.354  13.825  0.00  0.00     0.081 C 
ATOM     51  S3H NTO d 869      64.477   5.398  11.554  0.00  0.00     0.156 S 
ATOM     52  O25 NTO d 869      55.741   6.642   7.717  0.00  0.00    -0.646 OA
ATOM     53  O1C NTO d 869      52.296   5.299   3.661  0.00  0.00    -0.391 OA
ATOM     54  O3A NTO d 869      60.262   4.460  10.590  0.00  0.00    -0.247 OA
ATOM     55  C5L NTO d 869      66.207  -4.446  14.859  0.00  0.00     0.149 C 
ATOM     56  C30 NTO d 869      60.934   3.242   8.597  0.00  0.00     0.096 C 
ATOM     57  C23 NTO d 869      56.328   5.773   8.405  0.00  0.00     0.206 C 
ATOM     58  O3E NTO d 869      59.245   2.566  11.663  0.00  0.00    -0.572 OA
ATOM     59  O14 NTO d 869      52.676   3.597   7.423  0.00  0.00    -0.349 OA
ATOM     60  O2A NTO d 869      58.407   0.910   6.526  0.00  0.00    -0.388 OA
ATOM     61  C3L NTO d 869      63.673   3.415   9.449  0.00  0.00     0.150 C 
ATOM     62  C4F NTO d 869      66.042  -0.260  11.671  0.00  0.00     0.161 C 
ATOM     63  C15 NTO d 869      51.229   5.219   8.432  0.00  0.00     0.067 C 
ATOM     64  S55 NTO d 869      66.945   0.891  15.788  0.00  0.00     0.251 S 
ATOM     65  O58 NTO d 869      66.376   0.902  17.175  0.00  0.00    -0.572 OA
ATOM     66  C51 NTO d 869      67.219  -2.445  14.012  0.00  0.00     0.091 C 
ATOM     67  O56 NTO d 869      66.306   1.976  14.973  0.00  0.00    -0.572 OA
ATOM     68  O3J NTO d 869      64.382   6.599  12.448  0.00  0.00    -0.296 OA
ATOM     69  O44 NTO d 869      62.318  -1.419   9.411  0.00  0.00    -0.646 OA
ATOM     70  O10 NTO d 869      51.694   6.853   6.033  0.00  0.00    -0.390 OA
ATOM     71  C59 NTO d 869      65.550  -3.591  12.585  0.00  0.00     0.083 C 
ATOM     72  O52 NTO d 869      66.744  -3.150  15.171  0.00  0.00    -0.349 OA
ATOM     73  O27 NTO d 869      55.605   1.422   6.311  0.00  0.00    -0.390 OA
ATOM     74  O1A NTO d 869      51.367   4.772  12.102  0.00  0.00    -0.572 OA
ATOM     75  O5A NTO d 869      64.441  -3.379  11.706  0.00  0.00    -0.391 OA
ATOM     76  O37 NTO d 869      61.527   2.145   3.778  0.00  0.00    -0.572 OA
ATOM     77  O24 NTO d 869      56.392   5.793   9.657  0.00  0.00    -0.646 OA
ATOM     78  O1H NTO d 869      52.689   3.543   2.185  0.00  0.00    -0.296 OA
ATOM     79  O22 NTO d 869      58.064   4.045   8.434  0.00  0.00    -0.340 OA
ATOM     80  O3D NTO d 869      58.733   4.849  12.388  0.00  0.00    -0.572 OA
ATOM     81  C33 NTO d 869      61.770   2.233   6.485  0.00  0.00     0.067 C 
ATOM     82  S35 NTO d 869      61.181   3.465   4.401  0.00  0.00     0.251 S 
ATOM     83  S3B NTO d 869      59.801   3.947  11.844  0.00  0.00     0.252 S 
ATOM     84  O4C NTO d 869      68.632  -1.154   9.509  0.00  0.00    -0.572 OA
ATOM     85  C39 NTO d 869      61.285   3.623  10.039  0.00  0.00     0.108 C 
ATOM     86  O16 NTO d 869      51.616   4.758   9.728  0.00  0.00    -0.254 OA
ATOM     87  O5M NTO d 869      67.218  -5.374  14.449  0.00  0.00    -0.364 OA
ATOM     88  O3C NTO d 869      60.939   3.897  12.820  0.00  0.00    -0.572 OA
ATOM     89  C1K NTO d 869      53.733   3.308   6.495  0.00  0.00     0.150 C 
ATOM     90  O32 NTO d 869      63.326   3.197   8.072  0.00  0.00    -0.349 OA
ATOM     91  O34 NTO d 869      61.579   3.462   5.779  0.00  0.00    -0.254 OA
ATOM     92  H   NTO d 869      65.541   3.656  11.541  0.00  0.00     0.231 HD
ATOM     93  H   NTO d 869      53.624   0.696   3.547  0.00  0.00     0.231 HD
ATOM     94  H   NTO d 869      64.750  -0.895   9.572  0.00  0.00     0.104 H 
ATOM     95  H   NTO d 869      53.750   5.642   5.065  0.00  0.00     0.089 H 
ATOM     96  H   NTO d 869      65.400  -6.368  13.629  0.00  0.00     0.140 HD
ATOM     97  H   NTO d 869      54.957   2.596   4.571  0.00  0.00     0.140 HD
ATOM     98  H   NTO d 869      64.989   5.080   9.605  0.00  0.00     0.231 HD
ATOM     99  H   NTO d 869      68.591  -6.630  15.317  0.00  0.00     0.066 H 
ATOM    100  H   NTO d 869      67.095  -6.440  16.199  0.00  0.00     0.066 H 
ATOM    101  H   NTO d 869      68.275  -5.152  16.194  0.00  0.00     0.066 H 
ATOM    102  H   NTO d 869      57.407   4.965   6.754  0.00  0.00     0.104 H 
ATOM    103  H   NTO d 869      56.888   2.866   5.627  0.00  0.00     0.091 H 
ATOM    104  H   NTO d 869      65.343  -1.624  13.455  0.00  0.00     0.091 H 
ATOM    105  H   NTO d 869      66.747  -0.277   9.657  0.00  0.00     0.097 H 
ATOM    106  H   NTO d 869      65.869   2.336  10.872  0.00  0.00     0.091 H 
ATOM    107  H   NTO d 869      63.049   3.806  11.999  0.00  0.00     0.140 HD
ATOM    108  H   NTO d 869      64.462   1.210   8.554  0.00  0.00     0.092 H 
ATOM    109  H   NTO d 869      62.056  -6.036  12.725  0.00  0.00     0.231 HD
ATOM    110  H   NTO d 869      55.522   3.136   8.292  0.00  0.00     0.092 H 
ATOM    111  H   NTO d 869      68.561  -1.223  15.140  0.00  0.00     0.080 H 
ATOM    112  H   NTO d 869      68.017  -0.503  13.637  0.00  0.00     0.080 H 
ATOM    113  H   NTO d 869      66.654   1.663   8.210  0.00  0.00     0.210 HD
ATOM    114  H   NTO d 869      63.230  -8.028  13.568  0.00  0.00     0.231 HD
ATOM    115  H   NTO d 869      59.149   3.404   6.832  0.00  0.00     0.133 H 
ATOM    116  H   NTO d 869      55.411   1.687   2.218  0.00  0.00     0.231 HD
ATOM    117  H   NTO d 869      50.928   4.942   5.832  0.00  0.00     0.091 H 
ATOM    118  H   NTO d 869      52.368   2.973   4.862  0.00  0.00     0.076 H 
ATOM    119  H   NTO d 869      53.224   5.566   7.660  0.00  0.00     0.090 H 
ATOM    120  H   NTO d 869      57.378   1.420   8.230  0.00  0.00     0.094 H 
ATOM    121  H   NTO d 869      62.202   1.549   8.483  0.00  0.00     0.090 H 
ATOM    122  H   NTO d 869      62.568   5.264   9.527  0.00  0.00     0.076 H 
ATOM    123  H   NTO d 869      63.437  -4.558  15.606  0.00  0.00     0.231 HD
ATOM    124  H   NTO d 869      64.261  -3.823  14.259  0.00  0.00     0.076 H 
ATOM    125  H   NTO d 869      51.494   4.764   3.554  0.00  0.00     0.210 HD
ATOM    126  H   NTO d 869      65.787  -4.828  15.766  0.00  0.00     0.131 H 
ATOM    127  H   NTO d 869      60.749   4.149   8.059  0.00  0.00     0.091 H 
ATOM    128  H   NTO d 869      58.734   1.332   5.716  0.00  0.00     0.210 HD
ATOM    129  H   NTO d 869      64.658   3.830   9.500  0.00  0.00     0.131 H 
ATOM    130  H   NTO d 869      66.228   0.305  12.561  0.00  0.00     0.133 H 
ATOM    131  H   NTO d 869      50.358   4.684   8.116  0.00  0.00     0.080 H 
ATOM    132  H   NTO d 869      51.021   6.267   8.490  0.00  0.00     0.080 H 
ATOM    133  H   NTO d 869      67.991  -3.014  13.537  0.00  0.00     0.090 H 
ATOM    134  H   NTO d 869      65.248   7.030  12.505  0.00  0.00     0.231 HD
ATOM    135  H   NTO d 869      52.547   7.276   6.218  0.00  0.00     0.210 HD
ATOM    136  H   NTO d 869      66.308  -4.161  12.089  0.00  0.00     0.089 H 
ATOM    137  H   NTO d 869      55.302   1.051   7.155  0.00  0.00     0.210 HD
ATOM    138  H   NTO d 869      63.760  -2.862  12.164  0.00  0.00     0.210 HD
ATOM    139  H   NTO d 869      51.979   3.723   2.821  0.00  0.00     0.231 HD
ATOM    140  H   NTO d 869      60.876   1.649   6.414  0.00  0.00     0.080 H 
ATOM    141  H   NTO d 869      62.598   1.718   6.044  0.00  0.00     0.080 H 
ATOM    142  H   NTO d 869      61.353   2.732  10.628  0.00  0.00     0.092 H 
ATOM    143  H   NTO d 869      54.035   2.291   6.636  0.00  0.00     0.131 H 
ENDROOT
TORSDOF 46
ENDMDL
MODEL 20
REMARK VINA RESULT:      -8.1      3.927     14.676
REMARK  0 active torsions:
REMARK  status: ('A' for Active; 'I' for Inactive)
REMARK       I    between atoms: O3I_1  and  S3H_51 
REMARK       I    between atoms: O1I_2  and  S1G_48 
REMARK       I    between atoms: O54_3  and  C53_28 
REMARK       I    between atoms: O54_3  and  S55_64 
REMARK       I    between atoms: C41_5  and  C43_30 
REMARK       I    between atoms: C1B_6  and  O1C_53 
REMARK       I    between atoms: O4G_7  and  C4F_62 
REMARK       I    between atoms: O4G_7  and  C50_15 
REMARK       I    between atoms: N5G_8  and  C5F_50 
REMARK       I    between atoms: N5G_8  and  S5H_47 
REMARK       I    between atoms: N1F_9  and  C1E_41 
REMARK       I    between atoms: N1F_9  and  S1G_48 
REMARK       I    between atoms: O3K_10  and  S3H_51 
REMARK       I    between atoms: C5N_11  and  O5M_87 
REMARK       I    between atoms: C21_12  and  C23_57 
REMARK       I    between atoms: C26_13  and  O27_73 
REMARK       I    between atoms: C49_16  and  O4A_21 
REMARK       I    between atoms: O2D_17  and  C2C_35 
REMARK       I    between atoms: O2D_17  and  C30_56 
REMARK       I    between atoms: O1L_18  and  C1K_89 
REMARK       I    between atoms: O1L_18  and  C20_27 
REMARK       I    between atoms: C46_20  and  O47_33 
REMARK       I    between atoms: O4A_21  and  S4B_39 
REMARK       I    between atoms: N3G_22  and  C3F_46 
REMARK       I    between atoms: N3G_22  and  S3H_51 
REMARK       I    between atoms: C40_25  and  O3M_29 
REMARK       I    between atoms: O5I_26  and  S5H_47 
REMARK       I    between atoms: C53_28  and  C51_66 
REMARK       I    between atoms: O3M_29  and  C3L_61 
REMARK       I    between atoms: S17_31  and  O16_86 
REMARK       I    between atoms: O5K_34  and  S5H_47 
REMARK       I    between atoms: O1J_37  and  S1G_48 
REMARK       I    between atoms: C12_38  and  O10_70 
REMARK       I    between atoms: C13_42  and  C15_63 
REMARK       I    between atoms: C29_43  and  O2A_60 
REMARK       I    between atoms: C31_45  and  C33_81 
REMARK       I    between atoms: S5H_47  and  O5J_49 
REMARK       I    between atoms: S1G_48  and  O1H_78 
REMARK       I    between atoms: S3H_51  and  O3J_68 
REMARK       I    between atoms: O3A_54  and  C39_85 
REMARK       I    between atoms: O3A_54  and  S3B_83 
REMARK       I    between atoms: C5L_55  and  O5M_87 
REMARK       I    between atoms: C15_63  and  O16_86 
REMARK       I    between atoms: C59_71  and  O5A_75 
REMARK       I    between atoms: C33_81  and  O34_91 
REMARK       I    between atoms: S35_82  and  O34_91 
ROOT
ATOM      1  O3I NTO d 869      55.473   1.891   2.451  0.00  0.00    -0.296 OA
ATOM      2  O1I NTO d 869      65.346   1.150  14.625  0.00  0.00    -0.296 OA
ATOM      3  O54 NTO d 869      50.260   3.541   4.508  0.00  0.00    -0.254 OA
ATOM      4  O18 NTO d 869      61.174  -6.132  14.596  0.00  0.00    -0.572 OA
ATOM      5  C41 NTO d 869      55.283   4.796   6.714  0.00  0.00     0.152 C 
ATOM      6  C1B NTO d 869      65.725  -2.015  11.965  0.00  0.00     0.083 C 
ATOM      7  O4G NTO d 869      52.455   6.059   5.757  0.00  0.00    -0.348 OA
ATOM      8  N5G NTO d 869      49.789   6.237   9.804  0.00  0.00    -0.210 NA
ATOM      9  N1F NTO d 869      65.049   0.320  12.230  0.00  0.00    -0.210 NA
ATOM     10  O3K NTO d 869      57.901   1.869   2.105  0.00  0.00    -0.296 OA
ATOM     11  C5N NTO d 869      46.875   7.062   7.409  0.00  0.00     0.007 C 
ATOM     12  C21 NTO d 869      61.953  -0.826   8.978  0.00  0.00     0.152 C 
ATOM     13  C26 NTO d 869      61.961   0.739  10.874  0.00  0.00     0.092 C 
ATOM     14  O4E NTO d 869      53.289   8.109   1.900  0.00  0.00    -0.572 OA
ATOM     15  C50 NTO d 869      51.346   5.450   6.434  0.00  0.00     0.095 C 
ATOM     16  C49 NTO d 869      54.471   5.809   4.468  0.00  0.00     0.134 C 
ATOM     17  O2D NTO d 869      59.280   1.571   8.363  0.00  0.00    -0.348 OA
ATOM     18  O1L NTO d 869      63.250  -1.351  10.921  0.00  0.00    -0.348 OA
ATOM     19  O19 NTO d 869      62.478  -7.625  13.151  0.00  0.00    -0.572 OA
ATOM     20  C46 NTO d 869      55.669   4.885   4.243  0.00  0.00     0.094 C 
ATOM     21  O4A NTO d 869      53.931   6.230   3.213  0.00  0.00    -0.244 OA
ATOM     22  N3G NTO d 869      56.929   0.644   4.146  0.00  0.00    -0.210 NA
ATOM     23  O36 NTO d 869      63.365   3.260   8.011  0.00  0.00    -0.572 OA
ATOM     24  O57 NTO d 869      49.884   3.381   2.152  0.00  0.00    -0.572 OA
ATOM     25  C40 NTO d 869      56.275   4.513   5.594  0.00  0.00     0.103 C 
ATOM     26  O5I NTO d 869      50.518   4.563  11.586  0.00  0.00    -0.296 OA
ATOM     27  C20 NTO d 869      62.025  -0.739  10.495  0.00  0.00     0.103 C 
ATOM     28  C53 NTO d 869      50.160   4.953   4.311  0.00  0.00     0.067 C 
ATOM     29  O3M NTO d 869      56.588   3.115   5.562  0.00  0.00    -0.348 OA
ATOM     30  C43 NTO d 869      55.764   4.082   7.967  0.00  0.00     0.206 C 
ATOM     31  S17 NTO d 869      61.513  -6.477  13.177  0.00  0.00     0.251 S 
ATOM     32  O45 NTO d 869      56.015   2.858   7.887  0.00  0.00    -0.646 OA
ATOM     33  O47 NTO d 869      56.650   5.565   3.454  0.00  0.00    -0.390 OA
ATOM     34  O5K NTO d 869      48.498   5.894  11.990  0.00  0.00    -0.296 OA
ATOM     35  C2C NTO d 869      60.561   1.102   8.814  0.00  0.00     0.160 C 
ATOM     36  O38 NTO d 869      63.570   4.456   5.890  0.00  0.00    -0.572 OA
ATOM     37  O1J NTO d 869      66.326   2.453  12.796  0.00  0.00    -0.296 OA
ATOM     38  C12 NTO d 869      65.354  -3.458  12.316  0.00  0.00     0.089 C 
ATOM     39  S4B NTO d 869      54.182   7.622   3.001  0.00  0.00     0.252 S 
ATOM     40  O4D NTO d 869      55.619   7.822   2.619  0.00  0.00    -0.572 OA
ATOM     41  C1E NTO d 869      64.792  -1.049  12.694  0.00  0.00     0.081 C 
ATOM     42  C13 NTO d 869      63.859  -3.704  12.100  0.00  0.00     0.090 C 
ATOM     43  C29 NTO d 869      60.665   1.337  10.324  0.00  0.00     0.110 C 
ATOM     44  O42 NTO d 869      53.975   4.319   6.353  0.00  0.00    -0.340 OA
ATOM     45  C31 NTO d 869      59.021   3.287   6.700  0.00  0.00     0.091 C 
ATOM     46  C3F NTO d 869      58.026   1.380   4.800  0.00  0.00     0.083 C 
ATOM     47  S5H NTO d 869      49.308   5.180  10.949  0.00  0.00     0.156 S 
ATOM     48  S1G NTO d 869      66.031   1.069  13.293  0.00  0.00     0.156 S 
ATOM     49  O5J NTO d 869      48.464   4.104  10.333  0.00  0.00    -0.296 OA
ATOM     50  C5F NTO d 869      49.988   5.538   8.526  0.00  0.00     0.081 C 
ATOM     51  S3H NTO d 869      56.724   1.072   2.582  0.00  0.00     0.156 S 
ATOM     52  O25 NTO d 869      63.297  -2.728   8.492  0.00  0.00    -0.646 OA
ATOM     53  O1C NTO d 869      67.078  -1.762  12.353  0.00  0.00    -0.391 OA
ATOM     54  O3A NTO d 869      58.435  -0.417   6.382  0.00  0.00    -0.247 OA
ATOM     55  C5L NTO d 869      48.736   5.681   7.659  0.00  0.00     0.149 C 
ATOM     56  C30 NTO d 869      59.251   1.801   6.945  0.00  0.00     0.096 C 
ATOM     57  C23 NTO d 869      62.129  -2.285   8.582  0.00  0.00     0.206 C 
ATOM     58  O3E NTO d 869      56.982  -0.599   8.288  0.00  0.00    -0.572 OA
ATOM     59  O14 NTO d 869      63.074  -2.737  12.817  0.00  0.00    -0.349 OA
ATOM     60  O2A NTO d 869      60.639   2.740  10.593  0.00  0.00    -0.388 OA
ATOM     61  C3L NTO d 869      57.745   2.881   4.748  0.00  0.00     0.150 C 
ATOM     62  C4F NTO d 869      53.397   5.085   5.285  0.00  0.00     0.161 C 
ATOM     63  C15 NTO d 869      63.506  -5.089  12.650  0.00  0.00     0.067 C 
ATOM     64  S55 NTO d 869      50.305   2.647   3.390  0.00  0.00     0.251 S 
ATOM     65  O58 NTO d 869      49.368   1.504   3.641  0.00  0.00    -0.572 OA
ATOM     66  C51 NTO d 869      50.056   5.672   5.658  0.00  0.00     0.091 C 
ATOM     67  O56 NTO d 869      51.699   2.124   3.205  0.00  0.00    -0.572 OA
ATOM     68  O3J NTO d 869      56.605  -0.161   1.735  0.00  0.00    -0.296 OA
ATOM     69  O44 NTO d 869      55.895   4.755   9.022  0.00  0.00    -0.646 OA
ATOM     70  O10 NTO d 869      66.092  -4.341  11.468  0.00  0.00    -0.390 OA
ATOM     71  C59 NTO d 869      51.211   6.108   7.806  0.00  0.00     0.083 C 
ATOM     72  O52 NTO d 869      48.930   5.112   6.353  0.00  0.00    -0.349 OA
ATOM     73  O27 NTO d 869      61.976   0.879  12.298  0.00  0.00    -0.390 OA
ATOM     74  O1A NTO d 869      60.260  -6.852  12.446  0.00  0.00    -0.572 OA
ATOM     75  O5A NTO d 869      52.391   5.819   8.563  0.00  0.00    -0.391 OA
ATOM     76  O37 NTO d 869      62.450   5.518   7.797  0.00  0.00    -0.572 OA
ATOM     77  O24 NTO d 869      61.098  -2.972   8.383  0.00  0.00    -0.646 OA
ATOM     78  O1H NTO d 869      67.306   0.290  13.426  0.00  0.00    -0.296 OA
ATOM     79  O22 NTO d 869      60.707  -0.292   8.496  0.00  0.00    -0.340 OA
ATOM     80  O3D NTO d 869      57.658  -2.586   7.025  0.00  0.00    -0.572 OA
ATOM     81  C33 NTO d 869      60.210   4.072   7.261  0.00  0.00     0.067 C 
ATOM     82  S35 NTO d 869      62.690   4.222   7.081  0.00  0.00     0.251 S 
ATOM     83  S3B NTO d 869      57.317  -1.129   6.925  0.00  0.00     0.252 S 
ATOM     84  O4C NTO d 869      53.880   8.385   4.257  0.00  0.00    -0.572 OA
ATOM     85  C39 NTO d 869      58.146   0.981   6.272  0.00  0.00     0.108 C 
ATOM     86  O16 NTO d 869      62.103  -5.338  12.539  0.00  0.00    -0.254 OA
ATOM     87  O5M NTO d 869      48.293   7.043   7.603  0.00  0.00    -0.364 OA
ATOM     88  O3C NTO d 869      56.127  -0.967   6.027  0.00  0.00    -0.572 OA
ATOM     89  C1K NTO d 869      63.345  -1.406  12.351  0.00  0.00     0.150 C 
ATOM     90  O32 NTO d 869      58.874   3.578   5.301  0.00  0.00    -0.349 OA
ATOM     91  O34 NTO d 869      61.438   3.679   6.641  0.00  0.00    -0.254 OA
ATOM     92  H   NTO d 869      55.550   2.688   2.998  0.00  0.00     0.231 HD
ATOM     93  H   NTO d 869      64.522   1.655  14.535  0.00  0.00     0.231 HD
ATOM     94  H   NTO d 869      55.221   5.850   6.887  0.00  0.00     0.104 H 
ATOM     95  H   NTO d 869      65.625  -1.871  10.909  0.00  0.00     0.089 H 
ATOM     96  H   NTO d 869      49.075   6.956   9.687  0.00  0.00     0.140 HD
ATOM     97  H   NTO d 869      64.168   0.829  12.162  0.00  0.00     0.140 HD
ATOM     98  H   NTO d 869      57.989   2.671   2.645  0.00  0.00     0.231 HD
ATOM     99  H   NTO d 869      46.534   8.075   7.366  0.00  0.00     0.066 H 
ATOM    100  H   NTO d 869      46.396   6.559   8.223  0.00  0.00     0.066 H 
ATOM    101  H   NTO d 869      46.634   6.565   6.492  0.00  0.00     0.066 H 
ATOM    102  H   NTO d 869      62.731  -0.240   8.534  0.00  0.00     0.104 H 
ATOM    103  H   NTO d 869      62.807   1.249  10.462  0.00  0.00     0.091 H 
ATOM    104  H   NTO d 869      51.517   4.397   6.520  0.00  0.00     0.091 H 
ATOM    105  H   NTO d 869      54.797   6.672   5.010  0.00  0.00     0.097 H 
ATOM    106  H   NTO d 869      55.351   4.000   3.733  0.00  0.00     0.091 H 
ATOM    107  H   NTO d 869      56.063   0.832   4.651  0.00  0.00     0.140 HD
ATOM    108  H   NTO d 869      57.155   5.092   5.776  0.00  0.00     0.092 H 
ATOM    109  H   NTO d 869      51.063   5.259  11.984  0.00  0.00     0.231 HD
ATOM    110  H   NTO d 869      61.216  -1.251  10.972  0.00  0.00     0.092 H 
ATOM    111  H   NTO d 869      49.288   5.166   3.729  0.00  0.00     0.080 H 
ATOM    112  H   NTO d 869      51.035   5.296   3.801  0.00  0.00     0.080 H 
ATOM    113  H   NTO d 869      56.937   6.368   3.918  0.00  0.00     0.210 HD
ATOM    114  H   NTO d 869      49.036   6.593  12.396  0.00  0.00     0.231 HD
ATOM    115  H   NTO d 869      61.347   1.636   8.324  0.00  0.00     0.133 H 
ATOM    116  H   NTO d 869      65.497   2.950  12.713  0.00  0.00     0.231 HD
ATOM    117  H   NTO d 869      65.586  -3.635  13.345  0.00  0.00     0.091 H 
ATOM    118  H   NTO d 869      64.958  -1.117  13.749  0.00  0.00     0.076 H 
ATOM    119  H   NTO d 869      63.649  -3.629  11.054  0.00  0.00     0.090 H 
ATOM    120  H   NTO d 869      59.835   0.860  10.802  0.00  0.00     0.094 H 
ATOM    121  H   NTO d 869      58.115   3.573   7.191  0.00  0.00     0.090 H 
ATOM    122  H   NTO d 869      58.932   1.144   4.283  0.00  0.00     0.076 H 
ATOM    123  H   NTO d 869      48.979   3.636   9.658  0.00  0.00     0.231 HD
ATOM    124  H   NTO d 869      50.159   4.498   8.711  0.00  0.00     0.076 H 
ATOM    125  H   NTO d 869      67.169  -1.892  13.310  0.00  0.00     0.210 HD
ATOM    126  H   NTO d 869      47.952   5.120   8.122  0.00  0.00     0.131 H 
ATOM    127  H   NTO d 869      60.184   1.495   6.522  0.00  0.00     0.091 H 
ATOM    128  H   NTO d 869      61.394   3.167  10.158  0.00  0.00     0.210 HD
ATOM    129  H   NTO d 869      57.581   3.221   3.746  0.00  0.00     0.131 H 
ATOM    130  H   NTO d 869      52.884   4.377   4.667  0.00  0.00     0.133 H 
ATOM    131  H   NTO d 869      63.790  -5.140  13.680  0.00  0.00     0.080 H 
ATOM    132  H   NTO d 869      64.031  -5.827  12.081  0.00  0.00     0.080 H 
ATOM    133  H   NTO d 869      49.918   6.726   5.539  0.00  0.00     0.090 H 
ATOM    134  H   NTO d 869      56.483   0.095   0.808  0.00  0.00     0.231 HD
ATOM    135  H   NTO d 869      65.866  -4.163  10.541  0.00  0.00     0.210 HD
ATOM    136  H   NTO d 869      51.093   7.166   7.699  0.00  0.00     0.089 H 
ATOM    137  H   NTO d 869      61.210   0.418  12.676  0.00  0.00     0.210 HD
ATOM    138  H   NTO d 869      52.489   4.858   8.653  0.00  0.00     0.210 HD
ATOM    139  H   NTO d 869      67.107  -0.604  13.747  0.00  0.00     0.231 HD
ATOM    140  H   NTO d 869      60.280   3.894   8.313  0.00  0.00     0.080 H 
ATOM    141  H   NTO d 869      60.051   5.112   7.060  0.00  0.00     0.080 H 
ATOM    142  H   NTO d 869      57.216   1.179   6.762  0.00  0.00     0.092 H 
ATOM    143  H   NTO d 869      62.643  -0.740  12.808  0.00  0.00     0.131 H 
ENDROOT
TORSDOF 46
ENDMDL
MODEL 21
REMARK VINA RESULT:      -8.0      3.121      4.357
REMARK  0 active torsions:
REMARK  status: ('A' for Active; 'I' for Inactive)
REMARK       I    between atoms: O3I_1  and  S3H_51 
REMARK       I    between atoms: O1I_2  and  S1G_48 
REMARK       I    between atoms: O54_3  and  C53_28 
REMARK       I    between atoms: O54_3  and  S55_64 
REMARK       I    between atoms: C41_5  and  C43_30 
REMARK       I    between atoms: C1B_6  and  O1C_53 
REMARK       I    between atoms: O4G_7  and  C4F_62 
REMARK       I    between atoms: O4G_7  and  C50_15 
REMARK       I    between atoms: N5G_8  and  C5F_50 
REMARK       I    between atoms: N5G_8  and  S5H_47 
REMARK       I    between atoms: N1F_9  and  C1E_41 
REMARK       I    between atoms: N1F_9  and  S1G_48 
REMARK       I    between atoms: O3K_10  and  S3H_51 
REMARK       I    between atoms: C5N_11  and  O5M_87 
REMARK       I    between atoms: C21_12  and  C23_57 
REMARK       I    between atoms: C26_13  and  O27_73 
REMARK       I    between atoms: C49_16  and  O4A_21 
REMARK       I    between atoms: O2D_17  and  C2C_35 
REMARK       I    between atoms: O2D_17  and  C30_56 
REMARK       I    between atoms: O1L_18  and  C1K_89 
REMARK       I    between atoms: O1L_18  and  C20_27 
REMARK       I    between atoms: C46_20  and  O47_33 
REMARK       I    between atoms: O4A_21  and  S4B_39 
REMARK       I    between atoms: N3G_22  and  C3F_46 
REMARK       I    between atoms: N3G_22  and  S3H_51 
REMARK       I    between atoms: C40_25  and  O3M_29 
REMARK       I    between atoms: O5I_26  and  S5H_47 
REMARK       I    between atoms: C53_28  and  C51_66 
REMARK       I    between atoms: O3M_29  and  C3L_61 
REMARK       I    between atoms: S17_31  and  O16_86 
REMARK       I    between atoms: O5K_34  and  S5H_47 
REMARK       I    between atoms: O1J_37  and  S1G_48 
REMARK       I    between atoms: C12_38  and  O10_70 
REMARK       I    between atoms: C13_42  and  C15_63 
REMARK       I    between atoms: C29_43  and  O2A_60 
REMARK       I    between atoms: C31_45  and  C33_81 
REMARK       I    between atoms: S5H_47  and  O5J_49 
REMARK       I    between atoms: S1G_48  and  O1H_78 
REMARK       I    between atoms: S3H_51  and  O3J_68 
REMARK       I    between atoms: O3A_54  and  C39_85 
REMARK       I    between atoms: O3A_54  and  S3B_83 
REMARK       I    between atoms: C5L_55  and  O5M_87 
REMARK       I    between atoms: C15_63  and  O16_86 
REMARK       I    between atoms: C59_71  and  O5A_75 
REMARK       I    between atoms: C33_81  and  O34_91 
REMARK       I    between atoms: S35_82  and  O34_91 
ROOT
ATOM      1  O3I NTO d 869      68.781   0.868  10.397  0.00  0.00    -0.296 OA
ATOM      2  O1I NTO d 869      54.479  -4.538   6.866  0.00  0.00    -0.296 OA
ATOM      3  O54 NTO d 869      69.734  -0.232  16.054  0.00  0.00    -0.254 OA
ATOM      4  O18 NTO d 869      53.302   3.052  10.249  0.00  0.00    -0.572 OA
ATOM      5  C41 NTO d 869      66.422  -3.170  12.580  0.00  0.00     0.152 C 
ATOM      6  C1B NTO d 869      55.325  -0.828   5.205  0.00  0.00     0.083 C 
ATOM      7  O4G NTO d 869      68.812  -3.423  14.755  0.00  0.00    -0.348 OA
ATOM      8  N5G NTO d 869      66.539  -4.358  18.935  0.00  0.00    -0.210 NA
ATOM      9  N1F NTO d 869      56.274  -2.922   6.039  0.00  0.00    -0.210 NA
ATOM     10  O3K NTO d 869      68.116   0.492   8.066  0.00  0.00    -0.296 OA
ATOM     11  C5N NTO d 869      69.995  -3.715  20.533  0.00  0.00     0.007 C 
ATOM     12  C21 NTO d 869      59.751  -0.144   7.330  0.00  0.00     0.152 C 
ATOM     13  C26 NTO d 869      58.771  -2.212   8.231  0.00  0.00     0.092 C 
ATOM     14  O4E NTO d 869      72.504  -4.214  12.407  0.00  0.00    -0.572 OA
ATOM     15  C50 NTO d 869      68.442  -2.851  16.018  0.00  0.00     0.095 C 
ATOM     16  C49 NTO d 869      69.007  -3.191  12.368  0.00  0.00     0.134 C 
ATOM     17  O2D NTO d 869      62.236  -1.586   9.570  0.00  0.00    -0.348 OA
ATOM     18  O1L NTO d 869      57.419  -0.574   6.997  0.00  0.00    -0.348 OA
ATOM     19  O19 NTO d 869      53.422   4.628   8.374  0.00  0.00    -0.572 OA
ATOM     20  C46 NTO d 869      68.370  -2.519  11.151  0.00  0.00     0.094 C 
ATOM     21  O4A NTO d 869      70.429  -3.052  12.320  0.00  0.00    -0.244 OA
ATOM     22  N3G NTO d 869      66.315   1.152   9.778  0.00  0.00    -0.210 NA
ATOM     23  O36 NTO d 869      61.594  -3.884   5.832  0.00  0.00    -0.572 OA
ATOM     24  O57 NTO d 869      71.786   0.772  15.347  0.00  0.00    -0.572 OA
ATOM     25  C40 NTO d 869      66.861  -2.749  11.185  0.00  0.00     0.103 C 
ATOM     26  O5I NTO d 869      64.118  -3.558  18.987  0.00  0.00    -0.296 OA
ATOM     27  C20 NTO d 869      58.490  -0.739   7.937  0.00  0.00     0.103 C 
ATOM     28  C53 NTO d 869      70.485  -1.445  16.124  0.00  0.00     0.067 C 
ATOM     29  O3M NTO d 869      66.223  -1.518  10.824  0.00  0.00    -0.348 OA
ATOM     30  C43 NTO d 869      64.910  -3.027  12.667  0.00  0.00     0.206 C 
ATOM     31  S17 NTO d 869      54.222   3.766   9.305  0.00  0.00     0.251 S 
ATOM     32  O45 NTO d 869      64.404  -1.926  12.348  0.00  0.00    -0.646 OA
ATOM     33  O47 NTO d 869      68.910  -3.092   9.957  0.00  0.00    -0.390 OA
ATOM     34  O5K NTO d 869      65.083  -4.492  21.039  0.00  0.00    -0.296 OA
ATOM     35  C2C NTO d 869      61.178  -1.572   8.597  0.00  0.00     0.160 C 
ATOM     36  O38 NTO d 869      63.751  -4.329   4.771  0.00  0.00    -0.572 OA
ATOM     37  O1J NTO d 869      56.131  -5.341   5.244  0.00  0.00    -0.296 OA
ATOM     38  C12 NTO d 869      54.617   0.463   5.625  0.00  0.00     0.089 C 
ATOM     39  S4B NTO d 869      71.048  -4.316  12.068  0.00  0.00     0.252 S 
ATOM     40  O4D NTO d 869      70.885  -4.677  10.621  0.00  0.00    -0.572 OA
ATOM     41  C1E NTO d 869      55.454  -1.761   6.409  0.00  0.00     0.081 C 
ATOM     42  C13 NTO d 869      55.284   1.075   6.859  0.00  0.00     0.090 C 
ATOM     43  C29 NTO d 869      59.968  -2.308   9.179  0.00  0.00     0.110 C 
ATOM     44  O42 NTO d 869      67.048  -2.337  13.572  0.00  0.00    -0.340 OA
ATOM     45  C31 NTO d 869      64.392  -2.563   9.151  0.00  0.00     0.091 C 
ATOM     46  C3F NTO d 869      65.627   0.027   9.117  0.00  0.00     0.083 C 
ATOM     47  S5H NTO d 869      65.359  -3.661  19.821  0.00  0.00     0.156 S 
ATOM     48  S1G NTO d 869      55.294  -4.168   5.662  0.00  0.00     0.156 S 
ATOM     49  O5J NTO d 869      65.786  -2.291  20.255  0.00  0.00    -0.296 OA
ATOM     50  C5F NTO d 869      67.258  -3.336  18.161  0.00  0.00     0.081 C 
ATOM     51  S3H NTO d 869      67.866   1.316   9.294  0.00  0.00     0.156 S 
ATOM     52  O25 NTO d 869      58.895   1.484   5.820  0.00  0.00    -0.646 OA
ATOM     53  O1C NTO d 869      54.573  -1.473   4.175  0.00  0.00    -0.391 OA
ATOM     54  O3A NTO d 869      63.448   1.075   9.361  0.00  0.00    -0.247 OA
ATOM     55  C5L NTO d 869      68.526  -2.918  18.909  0.00  0.00     0.149 C 
ATOM     56  C30 NTO d 869      63.521  -1.325   8.983  0.00  0.00     0.096 C 
ATOM     57  C23 NTO d 869      59.448   1.292   6.928  0.00  0.00     0.206 C 
ATOM     58  O3E NTO d 869      62.352   0.920  11.494  0.00  0.00    -0.572 OA
ATOM     59  O14 NTO d 869      55.366   0.114   7.924  0.00  0.00    -0.349 OA
ATOM     60  O2A NTO d 869      60.297  -3.682   9.387  0.00  0.00    -0.388 OA
ATOM     61  C3L NTO d 869      66.361  -1.278   9.417  0.00  0.00     0.150 C 
ATOM     62  C4F NTO d 869      68.462  -2.568  13.657  0.00  0.00     0.161 C 
ATOM     63  C15 NTO d 869      54.425   2.243   7.352  0.00  0.00     0.067 C 
ATOM     64  S55 NTO d 869      70.303   0.951  15.479  0.00  0.00     0.251 S 
ATOM     65  O58 NTO d 869      70.015   2.117  16.376  0.00  0.00    -0.572 OA
ATOM     66  C51 NTO d 869      69.679  -2.529  16.844  0.00  0.00     0.091 C 
ATOM     67  O56 NTO d 869      69.712   1.199  14.124  0.00  0.00    -0.572 OA
ATOM     68  O3J NTO d 869      68.142   2.755   8.969  0.00  0.00    -0.296 OA
ATOM     69  O44 NTO d 869      64.239  -4.021  13.046  0.00  0.00    -0.646 OA
ATOM     70  O10 NTO d 869      54.695   1.400   4.547  0.00  0.00    -0.390 OA
ATOM     71  C59 NTO d 869      67.604  -3.880  16.774  0.00  0.00     0.083 C 
ATOM     72  O52 NTO d 869      69.320  -2.006  18.133  0.00  0.00    -0.349 OA
ATOM     73  O27 NTO d 869      57.630  -2.812   8.851  0.00  0.00    -0.390 OA
ATOM     74  O1A NTO d 869      55.175   4.615  10.089  0.00  0.00    -0.572 OA
ATOM     75  O5A NTO d 869      66.400  -4.112  16.036  0.00  0.00    -0.391 OA
ATOM     76  O37 NTO d 869      63.005  -5.699   6.665  0.00  0.00    -0.572 OA
ATOM     77  O24 NTO d 869      59.748   2.206   7.732  0.00  0.00    -0.646 OA
ATOM     78  O1H NTO d 869      54.384  -3.763   4.541  0.00  0.00    -0.296 OA
ATOM     79  O22 NTO d 869      60.846  -0.216   8.260  0.00  0.00    -0.340 OA
ATOM     80  O3D NTO d 869      62.372   3.023  10.238  0.00  0.00    -0.572 OA
ATOM     81  C33 NTO d 869      63.765  -3.721   8.369  0.00  0.00     0.067 C 
ATOM     82  S35 NTO d 869      63.007  -4.321   6.073  0.00  0.00     0.251 S 
ATOM     83  S3B NTO d 869      63.154   1.786  10.568  0.00  0.00     0.252 S 
ATOM     84  O4C NTO d 869      70.413  -5.369  12.928  0.00  0.00    -0.572 OA
ATOM     85  C39 NTO d 869      64.196  -0.115   9.638  0.00  0.00     0.108 C 
ATOM     86  O16 NTO d 869      54.967   2.804   8.549  0.00  0.00    -0.254 OA
ATOM     87  O5M NTO d 869      69.273  -4.060  19.346  0.00  0.00    -0.364 OA
ATOM     88  O3C NTO d 869      64.430   2.184  11.248  0.00  0.00    -0.572 OA
ATOM     89  C1K NTO d 869      56.166  -1.015   7.539  0.00  0.00     0.150 C 
ATOM     90  O32 NTO d 869      65.730  -2.339   8.681  0.00  0.00    -0.349 OA
ATOM     91  O34 NTO d 869      63.652  -3.413   6.976  0.00  0.00    -0.254 OA
ATOM     92  H   NTO d 869      68.603  -0.062  10.606  0.00  0.00     0.231 HD
ATOM     93  H   NTO d 869      55.071  -4.799   7.589  0.00  0.00     0.231 HD
ATOM     94  H   NTO d 869      66.710  -4.184  12.762  0.00  0.00     0.104 H 
ATOM     95  H   NTO d 869      56.302  -0.591   4.838  0.00  0.00     0.089 H 
ATOM     96  H   NTO d 869      67.194  -4.832  19.558  0.00  0.00     0.140 HD
ATOM     97  H   NTO d 869      56.870  -3.183   6.824  0.00  0.00     0.140 HD
ATOM     98  H   NTO d 869      67.941  -0.442   8.262  0.00  0.00     0.231 HD
ATOM     99  H   NTO d 869      70.556  -4.562  20.868  0.00  0.00     0.066 H 
ATOM    100  H   NTO d 869      69.306  -3.420  21.297  0.00  0.00     0.066 H 
ATOM    101  H   NTO d 869      70.662  -2.905  20.322  0.00  0.00     0.066 H 
ATOM    102  H   NTO d 869      60.046  -0.701   6.465  0.00  0.00     0.104 H 
ATOM    103  H   NTO d 869      58.983  -2.723   7.315  0.00  0.00     0.091 H 
ATOM    104  H   NTO d 869      67.895  -1.947  15.854  0.00  0.00     0.091 H 
ATOM    105  H   NTO d 869      68.762  -4.233  12.356  0.00  0.00     0.097 H 
ATOM    106  H   NTO d 869      68.576  -1.470  11.169  0.00  0.00     0.091 H 
ATOM    107  H   NTO d 869      66.302   0.994  10.786  0.00  0.00     0.140 HD
ATOM    108  H   NTO d 869      66.590  -3.527  10.503  0.00  0.00     0.092 H 
ATOM    109  H   NTO d 869      63.842  -4.445  18.706  0.00  0.00     0.231 HD
ATOM    110  H   NTO d 869      58.207  -0.255   8.848  0.00  0.00     0.092 H 
ATOM    111  H   NTO d 869      71.393  -1.266  16.660  0.00  0.00     0.080 H 
ATOM    112  H   NTO d 869      70.703  -1.777  15.131  0.00  0.00     0.080 H 
ATOM    113  H   NTO d 869      68.722  -4.044   9.941  0.00  0.00     0.210 HD
ATOM    114  H   NTO d 869      64.806  -5.382  20.768  0.00  0.00     0.231 HD
ATOM    115  H   NTO d 869      61.488  -2.067   7.702  0.00  0.00     0.133 H 
ATOM    116  H   NTO d 869      56.716  -5.596   5.974  0.00  0.00     0.231 HD
ATOM    117  H   NTO d 869      53.598   0.237   5.861  0.00  0.00     0.091 H 
ATOM    118  H   NTO d 869      54.482  -2.080   6.721  0.00  0.00     0.076 H 
ATOM    119  H   NTO d 869      56.269   1.395   6.589  0.00  0.00     0.090 H 
ATOM    120  H   NTO d 869      59.707  -1.852  10.111  0.00  0.00     0.094 H 
ATOM    121  H   NTO d 869      64.445  -2.797  10.194  0.00  0.00     0.090 H 
ATOM    122  H   NTO d 869      65.614   0.225   8.065  0.00  0.00     0.076 H 
ATOM    123  H   NTO d 869      65.967  -1.746  19.474  0.00  0.00     0.231 HD
ATOM    124  H   NTO d 869      66.633  -2.475  18.040  0.00  0.00     0.076 H 
ATOM    125  H   NTO d 869      53.687  -1.688   4.508  0.00  0.00     0.210 HD
ATOM    126  H   NTO d 869      68.226  -2.389  19.790  0.00  0.00     0.131 H 
ATOM    127  H   NTO d 869      63.392  -1.099   7.945  0.00  0.00     0.091 H 
ATOM    128  H   NTO d 869      60.532  -4.091   8.539  0.00  0.00     0.210 HD
ATOM    129  H   NTO d 869      67.394  -1.226   9.139  0.00  0.00     0.131 H 
ATOM    130  H   NTO d 869      68.903  -1.605  13.811  0.00  0.00     0.133 H 
ATOM    131  H   NTO d 869      53.433   1.891   7.547  0.00  0.00     0.080 H 
ATOM    132  H   NTO d 869      54.409   2.999   6.595  0.00  0.00     0.080 H 
ATOM    133  H   NTO d 869      70.242  -3.431  16.966  0.00  0.00     0.090 H 
ATOM    134  H   NTO d 869      69.063   2.851   8.682  0.00  0.00     0.231 HD
ATOM    135  H   NTO d 869      55.626   1.589   4.351  0.00  0.00     0.210 HD
ATOM    136  H   NTO d 869      68.150  -4.794  16.884  0.00  0.00     0.089 H 
ATOM    137  H   NTO d 869      57.434  -2.351   9.683  0.00  0.00     0.210 HD
ATOM    138  H   NTO d 869      65.913  -3.279  15.942  0.00  0.00     0.210 HD
ATOM    139  H   NTO d 869      53.846  -3.004   4.818  0.00  0.00     0.231 HD
ATOM    140  H   NTO d 869      62.789  -3.918   8.761  0.00  0.00     0.080 H 
ATOM    141  H   NTO d 869      64.398  -4.577   8.473  0.00  0.00     0.080 H 
ATOM    142  H   NTO d 869      64.225  -0.263  10.698  0.00  0.00     0.092 H 
ATOM    143  H   NTO d 869      56.316  -1.630   8.401  0.00  0.00     0.131 H 
ENDROOT
TORSDOF 46
ENDMDL
MODEL 22
REMARK VINA RESULT:      -8.0      3.086     14.039
REMARK  0 active torsions:
REMARK  status: ('A' for Active; 'I' for Inactive)
REMARK       I    between atoms: O3I_1  and  S3H_51 
REMARK       I    between atoms: O1I_2  and  S1G_48 
REMARK       I    between atoms: O54_3  and  C53_28 
REMARK       I    between atoms: O54_3  and  S55_64 
REMARK       I    between atoms: C41_5  and  C43_30 
REMARK       I    between atoms: C1B_6  and  O1C_53 
REMARK       I    between atoms: O4G_7  and  C4F_62 
REMARK       I    between atoms: O4G_7  and  C50_15 
REMARK       I    between atoms: N5G_8  and  C5F_50 
REMARK       I    between atoms: N5G_8  and  S5H_47 
REMARK       I    between atoms: N1F_9  and  C1E_41 
REMARK       I    between atoms: N1F_9  and  S1G_48 
REMARK       I    between atoms: O3K_10  and  S3H_51 
REMARK       I    between atoms: C5N_11  and  O5M_87 
REMARK       I    between atoms: C21_12  and  C23_57 
REMARK       I    between atoms: C26_13  and  O27_73 
REMARK       I    between atoms: C49_16  and  O4A_21 
REMARK       I    between atoms: O2D_17  and  C2C_35 
REMARK       I    between atoms: O2D_17  and  C30_56 
REMARK       I    between atoms: O1L_18  and  C1K_89 
REMARK       I    between atoms: O1L_18  and  C20_27 
REMARK       I    between atoms: C46_20  and  O47_33 
REMARK       I    between atoms: O4A_21  and  S4B_39 
REMARK       I    between atoms: N3G_22  and  C3F_46 
REMARK       I    between atoms: N3G_22  and  S3H_51 
REMARK       I    between atoms: C40_25  and  O3M_29 
REMARK       I    between atoms: O5I_26  and  S5H_47 
REMARK       I    between atoms: C53_28  and  C51_66 
REMARK       I    between atoms: O3M_29  and  C3L_61 
REMARK       I    between atoms: S17_31  and  O16_86 
REMARK       I    between atoms: O5K_34  and  S5H_47 
REMARK       I    between atoms: O1J_37  and  S1G_48 
REMARK       I    between atoms: C12_38  and  O10_70 
REMARK       I    between atoms: C13_42  and  C15_63 
REMARK       I    between atoms: C29_43  and  O2A_60 
REMARK       I    between atoms: C31_45  and  C33_81 
REMARK       I    between atoms: S5H_47  and  O5J_49 
REMARK       I    between atoms: S1G_48  and  O1H_78 
REMARK       I    between atoms: S3H_51  and  O3J_68 
REMARK       I    between atoms: O3A_54  and  C39_85 
REMARK       I    between atoms: O3A_54  and  S3B_83 
REMARK       I    between atoms: C5L_55  and  O5M_87 
REMARK       I    between atoms: C15_63  and  O16_86 
REMARK       I    between atoms: C59_71  and  O5A_75 
REMARK       I    between atoms: C33_81  and  O34_91 
REMARK       I    between atoms: S35_82  and  O34_91 
ROOT
ATOM      1  O3I NTO d 869      63.518  -0.823   6.954  0.00  0.00    -0.296 OA
ATOM      2  O1I NTO d 869      69.599   7.582  18.728  0.00  0.00    -0.296 OA
ATOM      3  O54 NTO d 869      57.778   0.248   6.806  0.00  0.00    -0.254 OA
ATOM      4  O18 NTO d 869      66.523   0.602  22.229  0.00  0.00    -0.572 OA
ATOM      5  C41 NTO d 869      61.790   3.731   8.662  0.00  0.00     0.152 C 
ATOM      6  C1B NTO d 869      71.092   3.714  18.484  0.00  0.00     0.083 C 
ATOM      7  O4G NTO d 869      59.211   3.512   6.710  0.00  0.00    -0.348 OA
ATOM      8  N5G NTO d 869      55.517   5.107   9.416  0.00  0.00    -0.210 NA
ATOM      9  N1F NTO d 869      70.089   5.566  17.240  0.00  0.00    -0.210 NA
ATOM     10  O3K NTO d 869      65.930  -0.395   7.083  0.00  0.00    -0.296 OA
ATOM     11  C5N NTO d 869      53.313   3.750   6.552  0.00  0.00     0.007 C 
ATOM     12  C21 NTO d 869      68.192   2.116  14.797  0.00  0.00     0.152 C 
ATOM     13  C26 NTO d 869      67.478   4.387  15.414  0.00  0.00     0.092 C 
ATOM     14  O4E NTO d 869      60.836   3.343   2.574  0.00  0.00    -0.572 OA
ATOM     15  C50 NTO d 869      58.040   3.090   7.424  0.00  0.00     0.095 C 
ATOM     16  C49 NTO d 869      61.522   3.149   6.148  0.00  0.00     0.134 C 
ATOM     17  O2D NTO d 869      65.526   3.034  12.488  0.00  0.00    -0.348 OA
ATOM     18  O1L NTO d 869      68.946   3.057  16.865  0.00  0.00    -0.348 OA
ATOM     19  O19 NTO d 869      68.350  -1.031  22.144  0.00  0.00    -0.572 OA
ATOM     20  C46 NTO d 869      62.838   2.595   6.694  0.00  0.00     0.094 C 
ATOM     21  O4A NTO d 869      61.308   2.685   4.813  0.00  0.00    -0.244 OA
ATOM     22  N3G NTO d 869      64.582  -0.556   9.266  0.00  0.00    -0.210 NA
ATOM     23  O36 NTO d 869      69.309   5.271  11.894  0.00  0.00    -0.572 OA
ATOM     24  O57 NTO d 869      58.099  -1.227   4.951  0.00  0.00    -0.572 OA
ATOM     25  C40 NTO d 869      63.082   3.166   8.089  0.00  0.00     0.103 C 
ATOM     26  O5I NTO d 869      55.916   4.887  11.926  0.00  0.00    -0.296 OA
ATOM     27  C20 NTO d 869      67.824   3.008  15.973  0.00  0.00     0.103 C 
ATOM     28  C53 NTO d 869      57.565   1.258   5.819  0.00  0.00     0.067 C 
ATOM     29  O3M NTO d 869      63.560   2.102   8.920  0.00  0.00    -0.348 OA
ATOM     30  C43 NTO d 869      61.984   3.942  10.155  0.00  0.00     0.206 C 
ATOM     31  S17 NTO d 869      67.284  -0.340  21.346  0.00  0.00     0.251 S 
ATOM     32  O45 NTO d 869      62.394   2.976  10.838  0.00  0.00    -0.646 OA
ATOM     33  O47 NTO d 869      63.911   2.981   5.829  0.00  0.00    -0.390 OA
ATOM     34  O5K NTO d 869      53.717   5.653  11.156  0.00  0.00    -0.296 OA
ATOM     35  C2C NTO d 869      66.677   3.226  13.328  0.00  0.00     0.160 C 
ATOM     36  O38 NTO d 869      69.953   5.168   9.538  0.00  0.00    -0.572 OA
ATOM     37  O1J NTO d 869      70.886   7.920  16.670  0.00  0.00    -0.296 OA
ATOM     38  C12 NTO d 869      70.815   2.638  19.538  0.00  0.00     0.089 C 
ATOM     39  S4B NTO d 869      61.437   3.763   3.881  0.00  0.00     0.252 S 
ATOM     40  O4D NTO d 869      62.887   4.095   3.692  0.00  0.00    -0.572 OA
ATOM     41  C1E NTO d 869      69.881   4.639  18.360  0.00  0.00     0.081 C 
ATOM     42  C13 NTO d 869      69.482   1.938  19.264  0.00  0.00     0.090 C 
ATOM     43  C29 NTO d 869      66.324   4.243  14.418  0.00  0.00     0.110 C 
ATOM     44  O42 NTO d 869      60.703   2.815   8.436  0.00  0.00    -0.340 OA
ATOM     45  C31 NTO d 869      65.536   3.473  10.126  0.00  0.00     0.091 C 
ATOM     46  C3F NTO d 869      65.354   0.669   9.543  0.00  0.00     0.083 C 
ATOM     47  S5H NTO d 869      54.867   4.735  10.866  0.00  0.00     0.156 S 
ATOM     48  S1G NTO d 869      70.635   6.988  17.819  0.00  0.00     0.156 S 
ATOM     49  O5J NTO d 869      54.367   3.321  10.856  0.00  0.00    -0.296 OA
ATOM     50  C5F NTO d 869      56.150   3.917   8.828  0.00  0.00     0.081 C 
ATOM     51  S3H NTO d 869      64.773  -1.091   7.734  0.00  0.00     0.156 S 
ATOM     52  O25 NTO d 869      69.840   0.671  15.722  0.00  0.00    -0.646 OA
ATOM     53  O1C NTO d 869      72.240   4.474  18.868  0.00  0.00    -0.391 OA
ATOM     54  O3A NTO d 869      65.519   0.160  11.912  0.00  0.00    -0.247 OA
ATOM     55  C5L NTO d 869      55.183   3.249   7.849  0.00  0.00     0.149 C 
ATOM     56  C30 NTO d 869      65.868   2.462  11.216  0.00  0.00     0.096 C 
ATOM     57  C23 NTO d 869      68.648   0.774  15.348  0.00  0.00     0.206 C 
ATOM     58  O3E NTO d 869      63.624   0.646  13.308  0.00  0.00    -0.572 OA
ATOM     59  O14 NTO d 869      68.416   2.895  19.154  0.00  0.00    -0.349 OA
ATOM     60  O2A NTO d 869      66.054   5.511  13.821  0.00  0.00    -0.388 OA
ATOM     61  C3L NTO d 869      64.918   1.782   8.590  0.00  0.00     0.150 C 
ATOM     62  C4F NTO d 869      60.358   2.719   7.046  0.00  0.00     0.161 C 
ATOM     63  C15 NTO d 869      69.161   1.019  20.446  0.00  0.00     0.067 C 
ATOM     64  S55 NTO d 869      58.243  -1.055   6.434  0.00  0.00     0.251 S 
ATOM     65  O58 NTO d 869      57.419  -2.088   7.142  0.00  0.00    -0.572 OA
ATOM     66  C51 NTO d 869      57.002   2.525   6.466  0.00  0.00     0.091 C 
ATOM     67  O56 NTO d 869      59.685  -1.214   6.813  0.00  0.00    -0.572 OA
ATOM     68  O3J NTO d 869      65.047  -2.566   7.747  0.00  0.00    -0.296 OA
ATOM     69  O44 NTO d 869      61.730   5.078  10.633  0.00  0.00    -0.646 OA
ATOM     70  O10 NTO d 869      71.864   1.667  19.487  0.00  0.00    -0.390 OA
ATOM     71  C59 NTO d 869      57.447   4.314   8.121  0.00  0.00     0.083 C 
ATOM     72  O52 NTO d 869      55.803   2.149   7.163  0.00  0.00    -0.349 OA
ATOM     73  O27 NTO d 869      67.075   5.257  16.476  0.00  0.00    -0.390 OA
ATOM     74  O1A NTO d 869      66.342  -1.354  20.774  0.00  0.00    -0.572 OA
ATOM     75  O5A NTO d 869      58.393   4.786   9.085  0.00  0.00    -0.391 OA
ATOM     76  O37 NTO d 869      68.222   6.745  10.273  0.00  0.00    -0.572 OA
ATOM     77  O24 NTO d 869      67.806  -0.154  15.419  0.00  0.00    -0.646 OA
ATOM     78  O1H NTO d 869      71.906   6.759  18.581  0.00  0.00    -0.296 OA
ATOM     79  O22 NTO d 869      67.075   1.970  13.901  0.00  0.00    -0.340 OA
ATOM     80  O3D NTO d 869      64.863  -1.453  13.553  0.00  0.00    -0.572 OA
ATOM     81  C33 NTO d 869      66.416   4.713  10.315  0.00  0.00     0.067 C 
ATOM     82  S35 NTO d 869      68.810   5.381  10.485  0.00  0.00     0.251 S 
ATOM     83  S3B NTO d 869      64.390  -0.417  12.577  0.00  0.00     0.252 S 
ATOM     84  O4C NTO d 869      60.704   4.966   4.398  0.00  0.00    -0.572 OA
ATOM     85  C39 NTO d 869      65.104   1.157  10.971  0.00  0.00     0.108 C 
ATOM     86  O16 NTO d 869      67.886   0.395  20.275  0.00  0.00    -0.254 OA
ATOM     87  O5M NTO d 869      54.611   4.205   6.947  0.00  0.00    -0.364 OA
ATOM     88  O3C NTO d 869      63.488  -1.070  11.572  0.00  0.00    -0.572 OA
ATOM     89  C1K NTO d 869      68.643   3.794  18.057  0.00  0.00     0.150 C 
ATOM     90  O32 NTO d 869      65.753   2.929   8.814  0.00  0.00    -0.349 OA
ATOM     91  O34 NTO d 869      67.807   4.385  10.243  0.00  0.00    -0.254 OA
ATOM     92  H   NTO d 869      63.341   0.130   6.945  0.00  0.00     0.231 HD
ATOM     93  H   NTO d 869      68.779   7.728  18.231  0.00  0.00     0.231 HD
ATOM     94  H   NTO d 869      61.554   4.658   8.182  0.00  0.00     0.104 H 
ATOM     95  H   NTO d 869      71.274   3.246  17.540  0.00  0.00     0.089 H 
ATOM     96  H   NTO d 869      54.783   5.441   8.793  0.00  0.00     0.140 HD
ATOM     97  H   NTO d 869      69.207   5.713  16.750  0.00  0.00     0.140 HD
ATOM     98  H   NTO d 869      65.765   0.561   7.067  0.00  0.00     0.231 HD
ATOM     99  H   NTO d 869      52.877   4.458   5.878  0.00  0.00     0.066 H 
ATOM    100  H   NTO d 869      52.690   3.651   7.416  0.00  0.00     0.066 H 
ATOM    101  H   NTO d 869      53.401   2.801   6.065  0.00  0.00     0.066 H 
ATOM    102  H   NTO d 869      68.985   2.556  14.228  0.00  0.00     0.104 H 
ATOM    103  H   NTO d 869      68.336   4.800  14.927  0.00  0.00     0.091 H 
ATOM    104  H   NTO d 869      58.306   2.330   8.128  0.00  0.00     0.091 H 
ATOM    105  H   NTO d 869      61.575   4.218   6.137  0.00  0.00     0.097 H 
ATOM    106  H   NTO d 869      62.787   1.528   6.745  0.00  0.00     0.091 H 
ATOM    107  H   NTO d 869      63.593  -0.361   9.423  0.00  0.00     0.140 HD
ATOM    108  H   NTO d 869      63.799   3.958   8.044  0.00  0.00     0.092 H 
ATOM    109  H   NTO d 869      56.238   5.802  11.933  0.00  0.00     0.231 HD
ATOM    110  H   NTO d 869      66.983   2.637  16.519  0.00  0.00     0.092 H 
ATOM    111  H   NTO d 869      56.872   0.896   5.089  0.00  0.00     0.080 H 
ATOM    112  H   NTO d 869      58.500   1.492   5.354  0.00  0.00     0.080 H 
ATOM    113  H   NTO d 869      63.956   3.949   5.784  0.00  0.00     0.210 HD
ATOM    114  H   NTO d 869      54.030   6.572  11.165  0.00  0.00     0.231 HD
ATOM    115  H   NTO d 869      67.498   3.602  12.755  0.00  0.00     0.133 H 
ATOM    116  H   NTO d 869      70.060   8.062  16.183  0.00  0.00     0.231 HD
ATOM    117  H   NTO d 869      70.770   3.101  20.501  0.00  0.00     0.091 H 
ATOM    118  H   NTO d 869      69.752   5.185  19.272  0.00  0.00     0.076 H 
ATOM    119  H   NTO d 869      69.567   1.390  18.349  0.00  0.00     0.090 H 
ATOM    120  H   NTO d 869      65.459   3.895  14.942  0.00  0.00     0.094 H 
ATOM    121  H   NTO d 869      64.501   3.729  10.207  0.00  0.00     0.090 H 
ATOM    122  H   NTO d 869      66.391   0.439   9.412  0.00  0.00     0.076 H 
ATOM    123  H   NTO d 869      55.104   2.719  10.669  0.00  0.00     0.231 HD
ATOM    124  H   NTO d 869      56.387   3.219   9.604  0.00  0.00     0.076 H 
ATOM    125  H   NTO d 869      72.075   4.900  19.724  0.00  0.00     0.210 HD
ATOM    126  H   NTO d 869      54.375   2.838   8.416  0.00  0.00     0.131 H 
ATOM    127  H   NTO d 869      66.913   2.233  11.205  0.00  0.00     0.091 H 
ATOM    128  H   NTO d 869      66.842   5.822  13.348  0.00  0.00     0.210 HD
ATOM    129  H   NTO d 869      65.001   1.483   7.566  0.00  0.00     0.131 H 
ATOM    130  H   NTO d 869      60.130   1.687   6.876  0.00  0.00     0.133 H 
ATOM    131  H   NTO d 869      69.149   1.596  21.347  0.00  0.00     0.080 H 
ATOM    132  H   NTO d 869      69.910   0.257  20.501  0.00  0.00     0.080 H 
ATOM    133  H   NTO d 869      56.775   3.278   5.740  0.00  0.00     0.090 H 
ATOM    134  H   NTO d 869      65.160  -2.883   6.838  0.00  0.00     0.231 HD
ATOM    135  H   NTO d 869      71.886   1.262  18.606  0.00  0.00     0.210 HD
ATOM    136  H   NTO d 869      57.235   5.081   7.407  0.00  0.00     0.089 H 
ATOM    137  H   NTO d 869      66.296   4.886  16.920  0.00  0.00     0.210 HD
ATOM    138  H   NTO d 869      58.579   4.084   9.727  0.00  0.00     0.210 HD
ATOM    139  H   NTO d 869      71.736   6.156  19.321  0.00  0.00     0.231 HD
ATOM    140  H   NTO d 869      66.209   5.143  11.271  0.00  0.00     0.080 H 
ATOM    141  H   NTO d 869      66.194   5.404   9.528  0.00  0.00     0.080 H 
ATOM    142  H   NTO d 869      64.057   1.335  11.099  0.00  0.00     0.092 H 
ATOM    143  H   NTO d 869      67.765   4.392  17.926  0.00  0.00     0.131 H 
ENDROOT
TORSDOF 46
ENDMDL
MODEL 23
REMARK VINA RESULT:      -8.0      3.263     13.735
REMARK  0 active torsions:
REMARK  status: ('A' for Active; 'I' for Inactive)
REMARK       I    between atoms: O3I_1  and  S3H_51 
REMARK       I    between atoms: O1I_2  and  S1G_48 
REMARK       I    between atoms: O54_3  and  C53_28 
REMARK       I    between atoms: O54_3  and  S55_64 
REMARK       I    between atoms: C41_5  and  C43_30 
REMARK       I    between atoms: C1B_6  and  O1C_53 
REMARK       I    between atoms: O4G_7  and  C4F_62 
REMARK       I    between atoms: O4G_7  and  C50_15 
REMARK       I    between atoms: N5G_8  and  C5F_50 
REMARK       I    between atoms: N5G_8  and  S5H_47 
REMARK       I    between atoms: N1F_9  and  C1E_41 
REMARK       I    between atoms: N1F_9  and  S1G_48 
REMARK       I    between atoms: O3K_10  and  S3H_51 
REMARK       I    between atoms: C5N_11  and  O5M_87 
REMARK       I    between atoms: C21_12  and  C23_57 
REMARK       I    between atoms: C26_13  and  O27_73 
REMARK       I    between atoms: C49_16  and  O4A_21 
REMARK       I    between atoms: O2D_17  and  C2C_35 
REMARK       I    between atoms: O2D_17  and  C30_56 
REMARK       I    between atoms: O1L_18  and  C1K_89 
REMARK       I    between atoms: O1L_18  and  C20_27 
REMARK       I    between atoms: C46_20  and  O47_33 
REMARK       I    between atoms: O4A_21  and  S4B_39 
REMARK       I    between atoms: N3G_22  and  C3F_46 
REMARK       I    between atoms: N3G_22  and  S3H_51 
REMARK       I    between atoms: C40_25  and  O3M_29 
REMARK       I    between atoms: O5I_26  and  S5H_47 
REMARK       I    between atoms: C53_28  and  C51_66 
REMARK       I    between atoms: O3M_29  and  C3L_61 
REMARK       I    between atoms: S17_31  and  O16_86 
REMARK       I    between atoms: O5K_34  and  S5H_47 
REMARK       I    between atoms: O1J_37  and  S1G_48 
REMARK       I    between atoms: C12_38  and  O10_70 
REMARK       I    between atoms: C13_42  and  C15_63 
REMARK       I    between atoms: C29_43  and  O2A_60 
REMARK       I    between atoms: C31_45  and  C33_81 
REMARK       I    between atoms: S5H_47  and  O5J_49 
REMARK       I    between atoms: S1G_48  and  O1H_78 
REMARK       I    between atoms: S3H_51  and  O3J_68 
REMARK       I    between atoms: O3A_54  and  C39_85 
REMARK       I    between atoms: O3A_54  and  S3B_83 
REMARK       I    between atoms: C5L_55  and  O5M_87 
REMARK       I    between atoms: C15_63  and  O16_86 
REMARK       I    between atoms: C59_71  and  O5A_75 
REMARK       I    between atoms: C33_81  and  O34_91 
REMARK       I    between atoms: S35_82  and  O34_91 
ROOT
ATOM      1  O3I NTO d 869      59.889   2.679   4.194  0.00  0.00    -0.296 OA
ATOM      2  O1I NTO d 869      68.246   1.304  17.403  0.00  0.00    -0.296 OA
ATOM      3  O54 NTO d 869      54.302   3.452   5.715  0.00  0.00    -0.254 OA
ATOM      4  O18 NTO d 869      65.052  -6.309  15.895  0.00  0.00    -0.572 OA
ATOM      5  C41 NTO d 869      58.828   4.918   8.721  0.00  0.00     0.152 C 
ATOM      6  C1B NTO d 869      69.335  -1.396  14.443  0.00  0.00     0.083 C 
ATOM      7  O4G NTO d 869      55.999   5.991   7.557  0.00  0.00    -0.348 OA
ATOM      8  N5G NTO d 869      52.866   5.309  11.194  0.00  0.00    -0.210 NA
ATOM      9  N1F NTO d 869      68.345   0.792  14.904  0.00  0.00    -0.210 NA
ATOM     10  O3K NTO d 869      62.324   2.968   4.180  0.00  0.00    -0.296 OA
ATOM     11  C5N NTO d 869      50.180   6.143   8.549  0.00  0.00     0.007 C 
ATOM     12  C21 NTO d 869      65.829  -0.214  11.145  0.00  0.00     0.152 C 
ATOM     13  C26 NTO d 869      65.414   1.062  13.206  0.00  0.00     0.092 C 
ATOM     14  O4E NTO d 869      57.027   8.641   4.136  0.00  0.00    -0.572 OA
ATOM     15  C50 NTO d 869      54.902   5.176   7.994  0.00  0.00     0.095 C 
ATOM     16  C49 NTO d 869      58.170   6.143   6.531  0.00  0.00     0.134 C 
ATOM     17  O2D NTO d 869      62.970   1.944  10.479  0.00  0.00    -0.348 OA
ATOM     18  O1L NTO d 869      66.939  -0.863  13.165  0.00  0.00    -0.348 OA
ATOM     19  O19 NTO d 869      66.696  -7.435  14.465  0.00  0.00    -0.572 OA
ATOM     20  C46 NTO d 869      59.493   5.395   6.357  0.00  0.00     0.094 C 
ATOM     21  O4A NTO d 869      57.736   6.675   5.277  0.00  0.00    -0.244 OA
ATOM     22  N3G NTO d 869      61.276   1.370   5.899  0.00  0.00    -0.210 NA
ATOM     23  O36 NTO d 869      66.824   4.096  10.899  0.00  0.00    -0.572 OA
ATOM     24  O57 NTO d 869      54.234   3.584   3.328  0.00  0.00    -0.572 OA
ATOM     25  C40 NTO d 869      59.974   4.904   7.720  0.00  0.00     0.103 C 
ATOM     26  O5I NTO d 869      53.580   3.490  12.834  0.00  0.00    -0.296 OA
ATOM     27  C20 NTO d 869      65.707  -0.333  12.657  0.00  0.00     0.103 C 
ATOM     28  C53 NTO d 869      54.050   4.857   5.685  0.00  0.00     0.067 C 
ATOM     29  O3M NTO d 869      60.461   3.567   7.556  0.00  0.00    -0.348 OA
ATOM     30  C43 NTO d 869      59.241   4.091   9.929  0.00  0.00     0.206 C 
ATOM     31  S17 NTO d 869      65.599  -6.413  14.503  0.00  0.00     0.251 S 
ATOM     32  O45 NTO d 869      59.651   2.925   9.730  0.00  0.00    -0.646 OA
ATOM     33  O47 NTO d 869      60.468   6.281   5.800  0.00  0.00    -0.390 OA
ATOM     34  O5K NTO d 869      51.375   4.525  13.125  0.00  0.00    -0.296 OA
ATOM     35  C2C NTO d 869      64.236   1.557  11.038  0.00  0.00     0.160 C 
ATOM     36  O38 NTO d 869      67.131   5.594   8.992  0.00  0.00    -0.572 OA
ATOM     37  O1J NTO d 869      69.268   2.949  15.902  0.00  0.00    -0.296 OA
ATOM     38  C12 NTO d 869      69.107  -2.906  14.556  0.00  0.00     0.089 C 
ATOM     39  S4B NTO d 869      57.835   8.102   5.278  0.00  0.00     0.252 S 
ATOM     40  O4D NTO d 869      59.270   8.508   5.123  0.00  0.00    -0.572 OA
ATOM     41  C1E NTO d 869      68.207  -0.648  15.154  0.00  0.00     0.081 C 
ATOM     42  C13 NTO d 869      67.691  -3.279  14.111  0.00  0.00     0.090 C 
ATOM     43  C29 NTO d 869      64.128   1.588  12.565  0.00  0.00     0.110 C 
ATOM     44  O42 NTO d 869      57.642   4.358   8.129  0.00  0.00    -0.340 OA
ATOM     45  C31 NTO d 869      62.699   3.838   9.025  0.00  0.00     0.091 C 
ATOM     46  C3F NTO d 869      62.186   2.122   6.783  0.00  0.00     0.083 C 
ATOM     47  S5H NTO d 869      52.387   4.056  12.122  0.00  0.00     0.156 S 
ATOM     48  S1G NTO d 869      69.091   1.485  16.176  0.00  0.00     0.156 S 
ATOM     49  O5J NTO d 869      51.765   2.993  11.267  0.00  0.00    -0.296 OA
ATOM     50  C5F NTO d 869      53.303   4.822   9.877  0.00  0.00     0.081 C 
ATOM     51  S3H NTO d 869      61.208   1.989   4.389  0.00  0.00     0.156 S 
ATOM     52  O25 NTO d 869      67.449  -1.872  10.611  0.00  0.00    -0.646 OA
ATOM     53  O1C NTO d 869      70.589  -1.056  15.039  0.00  0.00    -0.391 OA
ATOM     54  O3A NTO d 869      62.624   0.174   8.168  0.00  0.00    -0.247 OA
ATOM     55  C5L NTO d 869      52.155   4.950   8.874  0.00  0.00     0.149 C 
ATOM     56  C30 NTO d 869      63.082   2.367   9.111  0.00  0.00     0.096 C 
ATOM     57  C23 NTO d 869      66.232  -1.574  10.596  0.00  0.00     0.206 C 
ATOM     58  O3E NTO d 869      60.987  -0.429   9.822  0.00  0.00    -0.572 OA
ATOM     59  O14 NTO d 869      66.711  -2.513  14.830  0.00  0.00    -0.349 OA
ATOM     60  O2A NTO d 869      63.895   2.927  13.002  0.00  0.00    -0.388 OA
ATOM     61  C3L NTO d 869      61.728   3.576   6.883  0.00  0.00     0.150 C 
ATOM     62  C4F NTO d 869      57.105   5.200   7.097  0.00  0.00     0.161 C 
ATOM     63  C15 NTO d 869      67.451  -4.757  14.430  0.00  0.00     0.067 C 
ATOM     64  S55 NTO d 869      54.592   2.733   4.510  0.00  0.00     0.251 S 
ATOM     65  O58 NTO d 869      53.782   1.472   4.486  0.00  0.00    -0.572 OA
ATOM     66  C51 NTO d 869      53.697   5.365   7.085  0.00  0.00     0.091 C 
ATOM     67  O56 NTO d 869      56.052   2.395   4.452  0.00  0.00    -0.572 OA
ATOM     68  O3J NTO d 869      61.346   0.882   3.386  0.00  0.00    -0.296 OA
ATOM     69  O44 NTO d 869      59.158   4.620  11.068  0.00  0.00    -0.646 OA
ATOM     70  O10 NTO d 869      70.046  -3.576  13.712  0.00  0.00    -0.390 OA
ATOM     71  C59 NTO d 869      54.523   5.616   9.408  0.00  0.00     0.083 C 
ATOM     72  O52 NTO d 869      52.574   4.595   7.546  0.00  0.00    -0.349 OA
ATOM     73  O27 NTO d 869      65.240   1.000  14.625  0.00  0.00    -0.390 OA
ATOM     74  O1A NTO d 869      64.499  -6.814  13.568  0.00  0.00    -0.572 OA
ATOM     75  O5A NTO d 869      55.630   5.353  10.275  0.00  0.00    -0.391 OA
ATOM     76  O37 NTO d 869      65.666   6.250  10.848  0.00  0.00    -0.572 OA
ATOM     77  O24 NTO d 869      65.327  -2.334  10.175  0.00  0.00    -0.646 OA
ATOM     78  O1H NTO d 869      70.428   0.837  16.382  0.00  0.00    -0.296 OA
ATOM     79  O22 NTO d 869      64.593   0.246  10.570  0.00  0.00    -0.340 OA
ATOM     80  O3D NTO d 869      62.053  -2.135   8.423  0.00  0.00    -0.572 OA
ATOM     81  C33 NTO d 869      63.705   4.661   9.836  0.00  0.00     0.067 C 
ATOM     82  S35 NTO d 869      66.151   5.102  10.014  0.00  0.00     0.251 S 
ATOM     83  S3B NTO d 869      61.547  -0.723   8.461  0.00  0.00     0.252 S 
ATOM     84  O4C NTO d 869      57.291   8.644   6.567  0.00  0.00    -0.572 OA
ATOM     85  C39 NTO d 869      62.177   1.535   8.196  0.00  0.00     0.108 C 
ATOM     86  O16 NTO d 869      66.114  -5.139  14.099  0.00  0.00    -0.254 OA
ATOM     87  O5M NTO d 869      51.555   6.250   8.930  0.00  0.00    -0.364 OA
ATOM     88  O3C NTO d 869      60.463  -0.566   7.437  0.00  0.00    -0.572 OA
ATOM     89  C1K NTO d 869      66.868  -1.108  14.576  0.00  0.00     0.150 C 
ATOM     90  O32 NTO d 869      62.686   4.305   7.667  0.00  0.00    -0.349 OA
ATOM     91  O34 NTO d 869      65.038   4.494   9.344  0.00  0.00    -0.254 OA
ATOM     92  H   NTO d 869      59.799   3.395   4.842  0.00  0.00     0.231 HD
ATOM     93  H   NTO d 869      67.383   1.725  17.266  0.00  0.00     0.231 HD
ATOM     94  H   NTO d 869      58.614   5.925   9.015  0.00  0.00     0.104 H 
ATOM     95  H   NTO d 869      69.344  -1.117  13.410  0.00  0.00     0.089 H 
ATOM     96  H   NTO d 869      52.087   5.956  11.073  0.00  0.00     0.140 HD
ATOM     97  H   NTO d 869      67.421   1.207  14.783  0.00  0.00     0.140 HD
ATOM     98  H   NTO d 869      62.246   3.690   4.823  0.00  0.00     0.231 HD
ATOM     99  H   NTO d 869      49.723   7.109   8.588  0.00  0.00     0.066 H 
ATOM    100  H   NTO d 869      49.674   5.482   9.221  0.00  0.00     0.066 H 
ATOM    101  H   NTO d 869      50.115   5.757   7.553  0.00  0.00     0.066 H 
ATOM    102  H   NTO d 869      66.574   0.509  10.887  0.00  0.00     0.104 H 
ATOM    103  H   NTO d 869      66.233   1.712  12.980  0.00  0.00     0.091 H 
ATOM    104  H   NTO d 869      55.191   4.146   7.971  0.00  0.00     0.091 H 
ATOM    105  H   NTO d 869      58.318   6.951   7.217  0.00  0.00     0.097 H 
ATOM    106  H   NTO d 869      59.352   4.561   5.701  0.00  0.00     0.091 H 
ATOM    107  H   NTO d 869      60.338   1.391   6.303  0.00  0.00     0.140 HD
ATOM    108  H   NTO d 869      60.747   5.543   8.091  0.00  0.00     0.092 H 
ATOM    109  H   NTO d 869      53.982   4.178  13.387  0.00  0.00     0.231 HD
ATOM    110  H   NTO d 869      64.917  -0.992  12.952  0.00  0.00     0.092 H 
ATOM    111  H   NTO d 869      53.235   5.055   5.022  0.00  0.00     0.080 H 
ATOM    112  H   NTO d 869      54.931   5.361   5.346  0.00  0.00     0.080 H 
ATOM    113  H   NTO d 869      60.595   7.037   6.395  0.00  0.00     0.210 HD
ATOM    114  H   NTO d 869      51.769   5.214  13.684  0.00  0.00     0.231 HD
ATOM    115  H   NTO d 869      65.003   2.236  10.729  0.00  0.00     0.133 H 
ATOM    116  H   NTO d 869      68.399   3.360  15.770  0.00  0.00     0.231 HD
ATOM    117  H   NTO d 869      69.235  -3.199  15.577  0.00  0.00     0.091 H 
ATOM    118  H   NTO d 869      68.253  -0.847  16.205  0.00  0.00     0.076 H 
ATOM    119  H   NTO d 869      67.601  -3.081  13.063  0.00  0.00     0.090 H 
ATOM    120  H   NTO d 869      63.313   0.961  12.862  0.00  0.00     0.094 H 
ATOM    121  H   NTO d 869      61.712   3.953   9.421  0.00  0.00     0.090 H 
ATOM    122  H   NTO d 869      63.170   2.059   6.368  0.00  0.00     0.076 H 
ATOM    123  H   NTO d 869      52.411   2.682  10.615  0.00  0.00     0.231 HD
ATOM    124  H   NTO d 869      53.579   3.791   9.952  0.00  0.00     0.076 H 
ATOM    125  H   NTO d 869      70.580  -1.309  15.976  0.00  0.00     0.210 HD
ATOM    126  H   NTO d 869      51.398   4.248   9.152  0.00  0.00     0.131 H 
ATOM    127  H   NTO d 869      64.091   2.225   8.783  0.00  0.00     0.091 H 
ATOM    128  H   NTO d 869      64.637   3.490  12.730  0.00  0.00     0.210 HD
ATOM    129  H   NTO d 869      61.644   4.034   5.919  0.00  0.00     0.131 H 
ATOM    130  H   NTO d 869      56.762   4.535   6.332  0.00  0.00     0.133 H 
ATOM    131  H   NTO d 869      67.614  -4.922  15.474  0.00  0.00     0.080 H 
ATOM    132  H   NTO d 869      68.129  -5.347  13.849  0.00  0.00     0.080 H 
ATOM    133  H   NTO d 869      53.443   6.404   7.082  0.00  0.00     0.090 H 
ATOM    134  H   NTO d 869      61.305   1.251   2.490  0.00  0.00     0.231 HD
ATOM    135  H   NTO d 869      69.912  -3.295  12.793  0.00  0.00     0.210 HD
ATOM    136  H   NTO d 869      54.286   6.660   9.419  0.00  0.00     0.089 H 
ATOM    137  H   NTO d 869      64.498   0.411  14.835  0.00  0.00     0.210 HD
ATOM    138  H   NTO d 869      55.836   4.405  10.257  0.00  0.00     0.210 HD
ATOM    139  H   NTO d 869      70.305  -0.109  16.559  0.00  0.00     0.231 HD
ATOM    140  H   NTO d 869      63.670   4.345  10.857  0.00  0.00     0.080 H 
ATOM    141  H   NTO d 869      63.442   5.695   9.747  0.00  0.00     0.080 H 
ATOM    142  H   NTO d 869      61.178   1.560   8.577  0.00  0.00     0.092 H 
ATOM    143  H   NTO d 869      66.038  -0.593  15.014  0.00  0.00     0.131 H 
ENDROOT
TORSDOF 46
ENDMDL
MODEL 24
REMARK VINA RESULT:      -7.9      3.372     14.431
REMARK  0 active torsions:
REMARK  status: ('A' for Active; 'I' for Inactive)
REMARK       I    between atoms: O3I_1  and  S3H_51 
REMARK       I    between atoms: O1I_2  and  S1G_48 
REMARK       I    between atoms: O54_3  and  C53_28 
REMARK       I    between atoms: O54_3  and  S55_64 
REMARK       I    between atoms: C41_5  and  C43_30 
REMARK       I    between atoms: C1B_6  and  O1C_53 
REMARK       I    between atoms: O4G_7  and  C4F_62 
REMARK       I    between atoms: O4G_7  and  C50_15 
REMARK       I    between atoms: N5G_8  and  C5F_50 
REMARK       I    between atoms: N5G_8  and  S5H_47 
REMARK       I    between atoms: N1F_9  and  C1E_41 
REMARK       I    between atoms: N1F_9  and  S1G_48 
REMARK       I    between atoms: O3K_10  and  S3H_51 
REMARK       I    between atoms: C5N_11  and  O5M_87 
REMARK       I    between atoms: C21_12  and  C23_57 
REMARK       I    between atoms: C26_13  and  O27_73 
REMARK       I    between atoms: C49_16  and  O4A_21 
REMARK       I    between atoms: O2D_17  and  C2C_35 
REMARK       I    between atoms: O2D_17  and  C30_56 
REMARK       I    between atoms: O1L_18  and  C1K_89 
REMARK       I    between atoms: O1L_18  and  C20_27 
REMARK       I    between atoms: C46_20  and  O47_33 
REMARK       I    between atoms: O4A_21  and  S4B_39 
REMARK       I    between atoms: N3G_22  and  C3F_46 
REMARK       I    between atoms: N3G_22  and  S3H_51 
REMARK       I    between atoms: C40_25  and  O3M_29 
REMARK       I    between atoms: O5I_26  and  S5H_47 
REMARK       I    between atoms: C53_28  and  C51_66 
REMARK       I    between atoms: O3M_29  and  C3L_61 
REMARK       I    between atoms: S17_31  and  O16_86 
REMARK       I    between atoms: O5K_34  and  S5H_47 
REMARK       I    between atoms: O1J_37  and  S1G_48 
REMARK       I    between atoms: C12_38  and  O10_70 
REMARK       I    between atoms: C13_42  and  C15_63 
REMARK       I    between atoms: C29_43  and  O2A_60 
REMARK       I    between atoms: C31_45  and  C33_81 
REMARK       I    between atoms: S5H_47  and  O5J_49 
REMARK       I    between atoms: S1G_48  and  O1H_78 
REMARK       I    between atoms: S3H_51  and  O3J_68 
REMARK       I    between atoms: O3A_54  and  C39_85 
REMARK       I    between atoms: O3A_54  and  S3B_83 
REMARK       I    between atoms: C5L_55  and  O5M_87 
REMARK       I    between atoms: C15_63  and  O16_86 
REMARK       I    between atoms: C59_71  and  O5A_75 
REMARK       I    between atoms: C33_81  and  O34_91 
REMARK       I    between atoms: S35_82  and  O34_91 
ROOT
ATOM      1  O3I NTO d 869      56.972   6.438   7.105  0.00  0.00    -0.296 OA
ATOM      2  O1I NTO d 869      69.052  -0.268  14.544  0.00  0.00    -0.296 OA
ATOM      3  O54 NTO d 869      54.952   2.592   3.200  0.00  0.00    -0.254 OA
ATOM      4  O18 NTO d 869      72.180   2.829   7.398  0.00  0.00    -0.572 OA
ATOM      5  C41 NTO d 869      57.558   1.397   8.043  0.00  0.00     0.152 C 
ATOM      6  C1B NTO d 869      69.702   3.707  13.536  0.00  0.00     0.083 C 
ATOM      7  O4G NTO d 869      54.944   0.733   6.244  0.00  0.00    -0.348 OA
ATOM      8  N5G NTO d 869      56.194  -3.215   3.720  0.00  0.00    -0.210 NA
ATOM      9  N1F NTO d 869      68.016   2.012  14.049  0.00  0.00    -0.210 NA
ATOM     10  O3K NTO d 869      57.787   7.327   9.240  0.00  0.00    -0.296 OA
ATOM     11  C5N NTO d 869      52.957  -2.521   1.734  0.00  0.00     0.007 C 
ATOM     12  C21 NTO d 869      65.500   4.448  11.015  0.00  0.00     0.152 C 
ATOM     13  C26 NTO d 869      65.616   2.074  11.645  0.00  0.00     0.092 C 
ATOM     14  O4E NTO d 869      51.552   2.818   8.223  0.00  0.00    -0.572 OA
ATOM     15  C50 NTO d 869      55.306   0.269   4.934  0.00  0.00     0.095 C 
ATOM     16  C49 NTO d 869      55.163   2.390   7.974  0.00  0.00     0.134 C 
ATOM     17  O2D NTO d 869      62.399   2.914   9.873  0.00  0.00    -0.348 OA
ATOM     18  O1L NTO d 869      67.585   3.538  11.763  0.00  0.00    -0.348 OA
ATOM     19  O19 NTO d 869      72.839   5.133   7.919  0.00  0.00    -0.572 OA
ATOM     20  C46 NTO d 869      56.144   3.387   8.592  0.00  0.00     0.094 C 
ATOM     21  O4A NTO d 869      53.885   3.006   7.790  0.00  0.00    -0.244 OA
ATOM     22  N3G NTO d 869      59.455   6.171   7.661  0.00  0.00    -0.210 NA
ATOM     23  O36 NTO d 869      62.755   3.253  14.280  0.00  0.00    -0.572 OA
ATOM     24  O57 NTO d 869      53.458   4.443   2.955  0.00  0.00    -0.572 OA
ATOM     25  C40 NTO d 869      57.475   2.685   8.850  0.00  0.00     0.103 C 
ATOM     26  O5I NTO d 869      58.714  -3.491   3.431  0.00  0.00    -0.296 OA
ATOM     27  C20 NTO d 869      66.402   3.223  11.015  0.00  0.00     0.103 C 
ATOM     28  C53 NTO d 869      53.843   1.925   3.804  0.00  0.00     0.067 C 
ATOM     29  O3M NTO d 869      58.524   3.577   8.454  0.00  0.00    -0.348 OA
ATOM     30  C43 NTO d 869      59.006   0.933   8.034  0.00  0.00     0.206 C 
ATOM     31  S17 NTO d 869      71.682   4.225   7.625  0.00  0.00     0.251 S 
ATOM     32  O45 NTO d 869      59.883   1.750   7.670  0.00  0.00    -0.646 OA
ATOM     33  O47 NTO d 869      55.613   3.867   9.831  0.00  0.00    -0.390 OA
ATOM     34  O5K NTO d 869      57.226  -5.063   2.277  0.00  0.00    -0.296 OA
ATOM     35  C2C NTO d 869      63.525   3.142  10.736  0.00  0.00     0.160 C 
ATOM     36  O38 NTO d 869      60.737   4.298  15.180  0.00  0.00    -0.572 OA
ATOM     37  O1J NTO d 869      67.465   0.680  16.152  0.00  0.00    -0.296 OA
ATOM     38  C12 NTO d 869      70.731   4.154  12.493  0.00  0.00     0.089 C 
ATOM     39  S4B NTO d 869      52.926   2.449   8.693  0.00  0.00     0.252 S 
ATOM     40  O4D NTO d 869      53.157   2.993  10.072  0.00  0.00    -0.572 OA
ATOM     41  C1E NTO d 869      69.112   2.355  13.135  0.00  0.00     0.081 C 
ATOM     42  C13 NTO d 869      70.140   4.090  11.083  0.00  0.00     0.090 C 
ATOM     43  C29 NTO d 869      64.337   1.847  10.837  0.00  0.00     0.110 C 
ATOM     44  O42 NTO d 869      57.111   1.625   6.694  0.00  0.00    -0.340 OA
ATOM     45  C31 NTO d 869      60.121   3.189  10.586  0.00  0.00     0.091 C 
ATOM     46  C3F NTO d 869      59.820   5.514   8.930  0.00  0.00     0.083 C 
ATOM     47  S5H NTO d 869      57.406  -3.639   2.713  0.00  0.00     0.156 S 
ATOM     48  S1G NTO d 869      68.575   0.997  15.195  0.00  0.00     0.156 S 
ATOM     49  O5J NTO d 869      57.397  -2.757   1.501  0.00  0.00    -0.296 OA
ATOM     50  C5F NTO d 869      55.963  -1.765   3.646  0.00  0.00     0.081 C 
ATOM     51  S3H NTO d 869      58.124   7.109   7.795  0.00  0.00     0.156 S 
ATOM     52  O25 NTO d 869      67.039   6.239  11.309  0.00  0.00    -0.646 OA
ATOM     53  O1C NTO d 869      70.334   3.596  14.813  0.00  0.00    -0.391 OA
ATOM     54  O3A NTO d 869      62.166   5.386   8.314  0.00  0.00    -0.247 OA
ATOM     55  C5L NTO d 869      54.813  -1.475   2.680  0.00  0.00     0.149 C 
ATOM     56  C30 NTO d 869      61.364   3.892  10.055  0.00  0.00     0.096 C 
ATOM     57  C23 NTO d 869      66.309   5.627  10.495  0.00  0.00     0.206 C 
ATOM     58  O3E NTO d 869      62.851   3.627   6.826  0.00  0.00    -0.572 OA
ATOM     59  O14 NTO d 869      69.603   2.785  10.812  0.00  0.00    -0.349 OA
ATOM     60  O2A NTO d 869      63.550   0.837  11.470  0.00  0.00    -0.388 OA
ATOM     61  C3L NTO d 869      58.664   4.637   9.410  0.00  0.00     0.150 C 
ATOM     62  C4F NTO d 869      55.701   1.889   6.630  0.00  0.00     0.161 C 
ATOM     63  C15 NTO d 869      71.259   4.352  10.071  0.00  0.00     0.067 C 
ATOM     64  S55 NTO d 869      54.885   3.988   2.886  0.00  0.00     0.251 S 
ATOM     65  O58 NTO d 869      55.415   4.203   1.500  0.00  0.00    -0.572 OA
ATOM     66  C51 NTO d 869      54.143   0.433   3.967  0.00  0.00     0.091 C 
ATOM     67  O56 NTO d 869      55.704   4.775   3.865  0.00  0.00    -0.572 OA
ATOM     68  O3J NTO d 869      58.382   8.442   7.157  0.00  0.00    -0.296 OA
ATOM     69  O44 NTO d 869      59.256  -0.245   8.399  0.00  0.00    -0.646 OA
ATOM     70  O10 NTO d 869      71.111   5.503  12.773  0.00  0.00    -0.390 OA
ATOM     71  C59 NTO d 869      55.649  -1.216   5.039  0.00  0.00     0.083 C 
ATOM     72  O52 NTO d 869      54.475  -0.078   2.666  0.00  0.00    -0.349 OA
ATOM     73  O27 NTO d 869      66.401   0.879  11.626  0.00  0.00    -0.390 OA
ATOM     74  O1A NTO d 869      70.962   4.700   6.400  0.00  0.00    -0.572 OA
ATOM     75  O5A NTO d 869      56.800  -1.355   5.879  0.00  0.00    -0.391 OA
ATOM     76  O37 NTO d 869      60.727   1.919  14.580  0.00  0.00    -0.572 OA
ATOM     77  O24 NTO d 869      66.218   5.916   9.277  0.00  0.00    -0.646 OA
ATOM     78  O1H NTO d 869      69.711   1.649  15.925  0.00  0.00    -0.296 OA
ATOM     79  O22 NTO d 869      64.326   4.216  10.216  0.00  0.00    -0.340 OA
ATOM     80  O3D NTO d 869      63.692   5.911   6.548  0.00  0.00    -0.572 OA
ATOM     81  C33 NTO d 869      60.434   2.600  11.964  0.00  0.00     0.067 C 
ATOM     82  S35 NTO d 869      61.257   3.274  14.217  0.00  0.00     0.251 S 
ATOM     83  S3B NTO d 869      62.511   5.082   6.958  0.00  0.00     0.252 S 
ATOM     84  O4C NTO d 869      53.058   0.955   8.710  0.00  0.00    -0.572 OA
ATOM     85  C39 NTO d 869      61.040   4.611   8.741  0.00  0.00     0.108 C 
ATOM     86  O16 NTO d 869      70.773   4.231   8.732  0.00  0.00    -0.254 OA
ATOM     87  O5M NTO d 869      53.680  -2.310   2.951  0.00  0.00    -0.364 OA
ATOM     88  O3C NTO d 869      61.355   5.402   6.057  0.00  0.00    -0.572 OA
ATOM     89  C1K NTO d 869      68.538   2.467  11.722  0.00  0.00     0.150 C 
ATOM     90  O32 NTO d 869      59.007   4.089  10.693  0.00  0.00    -0.349 OA
ATOM     91  O34 NTO d 869      60.830   3.616  12.892  0.00  0.00    -0.254 OA
ATOM     92  H   NTO d 869      56.805   5.577   7.517  0.00  0.00     0.231 HD
ATOM     93  H   NTO d 869      68.314  -0.686  14.073  0.00  0.00     0.231 HD
ATOM     94  H   NTO d 869      56.931   0.650   8.483  0.00  0.00     0.104 H 
ATOM     95  H   NTO d 869      68.917   4.432  13.590  0.00  0.00     0.089 H 
ATOM     96  H   NTO d 869      55.343  -3.707   3.450  0.00  0.00     0.140 HD
ATOM     97  H   NTO d 869      67.266   1.559  13.528  0.00  0.00     0.140 HD
ATOM     98  H   NTO d 869      57.618   6.472   9.666  0.00  0.00     0.231 HD
ATOM     99  H   NTO d 869      52.109  -3.144   1.926  0.00  0.00     0.066 H 
ATOM    100  H   NTO d 869      53.594  -2.996   1.018  0.00  0.00     0.066 H 
ATOM    101  H   NTO d 869      52.628  -1.579   1.347  0.00  0.00     0.066 H 
ATOM    102  H   NTO d 869      65.159   4.661  12.007  0.00  0.00     0.104 H 
ATOM    103  H   NTO d 869      65.374   2.321  12.658  0.00  0.00     0.091 H 
ATOM    104  H   NTO d 869      56.136   0.837   4.572  0.00  0.00     0.091 H 
ATOM    105  H   NTO d 869      55.052   1.557   8.636  0.00  0.00     0.097 H 
ATOM    106  H   NTO d 869      56.293   4.209   7.924  0.00  0.00     0.091 H 
ATOM    107  H   NTO d 869      59.278   5.452   6.960  0.00  0.00     0.140 HD
ATOM    108  H   NTO d 869      57.566   2.433   9.886  0.00  0.00     0.092 H 
ATOM    109  H   NTO d 869      58.719  -4.062   4.214  0.00  0.00     0.231 HD
ATOM    110  H   NTO d 869      66.700   2.936  10.029  0.00  0.00     0.092 H 
ATOM    111  H   NTO d 869      52.979   2.045   3.185  0.00  0.00     0.080 H 
ATOM    112  H   NTO d 869      53.665   2.350   4.770  0.00  0.00     0.080 H 
ATOM    113  H   NTO d 869      55.479   3.121  10.436  0.00  0.00     0.210 HD
ATOM    114  H   NTO d 869      57.231  -5.643   3.055  0.00  0.00     0.231 HD
ATOM    115  H   NTO d 869      63.195   3.422  11.714  0.00  0.00     0.133 H 
ATOM    116  H   NTO d 869      66.735   0.259  15.672  0.00  0.00     0.231 HD
ATOM    117  H   NTO d 869      71.577   3.501  12.541  0.00  0.00     0.091 H 
ATOM    118  H   NTO d 869      69.874   1.605  13.174  0.00  0.00     0.076 H 
ATOM    119  H   NTO d 869      69.360   4.819  11.008  0.00  0.00     0.090 H 
ATOM    120  H   NTO d 869      64.603   1.534   9.849  0.00  0.00     0.094 H 
ATOM    121  H   NTO d 869      59.852   2.416   9.897  0.00  0.00     0.090 H 
ATOM    122  H   NTO d 869      60.040   6.280   9.644  0.00  0.00     0.076 H 
ATOM    123  H   NTO d 869      57.513  -1.833   1.772  0.00  0.00     0.231 HD
ATOM    124  H   NTO d 869      56.845  -1.281   3.283  0.00  0.00     0.076 H 
ATOM    125  H   NTO d 869      71.047   2.939  14.765  0.00  0.00     0.210 HD
ATOM    126  H   NTO d 869      55.146  -1.718   1.693  0.00  0.00     0.131 H 
ATOM    127  H   NTO d 869      61.699   4.631  10.753  0.00  0.00     0.091 H 
ATOM    128  H   NTO d 869      63.312   1.126  12.365  0.00  0.00     0.210 HD
ATOM    129  H   NTO d 869      57.753   5.193   9.498  0.00  0.00     0.131 H 
ATOM    130  H   NTO d 869      55.583   2.647   5.884  0.00  0.00     0.133 H 
ATOM    131  H   NTO d 869      72.044   3.641  10.224  0.00  0.00     0.080 H 
ATOM    132  H   NTO d 869      71.624   5.347  10.214  0.00  0.00     0.080 H 
ATOM    133  H   NTO d 869      53.305  -0.103   4.361  0.00  0.00     0.090 H 
ATOM    134  H   NTO d 869      57.591   8.998   7.237  0.00  0.00     0.231 HD
ATOM    135  H   NTO d 869      70.329   6.075  12.724  0.00  0.00     0.210 HD
ATOM    136  H   NTO d 869      54.825  -1.759   5.451  0.00  0.00     0.089 H 
ATOM    137  H   NTO d 869      66.623   0.651  10.709  0.00  0.00     0.210 HD
ATOM    138  H   NTO d 869      57.540  -0.860   5.497  0.00  0.00     0.210 HD
ATOM    139  H   NTO d 869      70.425   1.851  15.300  0.00  0.00     0.231 HD
ATOM    140  H   NTO d 869      61.228   1.890  11.867  0.00  0.00     0.080 H 
ATOM    141  H   NTO d 869      59.547   2.132  12.338  0.00  0.00     0.080 H 
ATOM    142  H   NTO d 869      60.820   3.881   7.990  0.00  0.00     0.092 H 
ATOM    143  H   NTO d 869      68.078   1.557  11.396  0.00  0.00     0.131 H 
ENDROOT
TORSDOF 46
ENDMDL
MODEL 25
REMARK VINA RESULT:      -7.6      2.810     13.991
REMARK  0 active torsions:
REMARK  status: ('A' for Active; 'I' for Inactive)
REMARK       I    between atoms: O3I_1  and  S3H_51 
REMARK       I    between atoms: O1I_2  and  S1G_48 
REMARK       I    between atoms: O54_3  and  C53_28 
REMARK       I    between atoms: O54_3  and  S55_64 
REMARK       I    between atoms: C41_5  and  C43_30 
REMARK       I    between atoms: C1B_6  and  O1C_53 
REMARK       I    between atoms: O4G_7  and  C4F_62 
REMARK       I    between atoms: O4G_7  and  C50_15 
REMARK       I    between atoms: N5G_8  and  C5F_50 
REMARK       I    between atoms: N5G_8  and  S5H_47 
REMARK       I    between atoms: N1F_9  and  C1E_41 
REMARK       I    between atoms: N1F_9  and  S1G_48 
REMARK       I    between atoms: O3K_10  and  S3H_51 
REMARK       I    between atoms: C5N_11  and  O5M_87 
REMARK       I    between atoms: C21_12  and  C23_57 
REMARK       I    between atoms: C26_13  and  O27_73 
REMARK       I    between atoms: C49_16  and  O4A_21 
REMARK       I    between atoms: O2D_17  and  C2C_35 
REMARK       I    between atoms: O2D_17  and  C30_56 
REMARK       I    between atoms: O1L_18  and  C1K_89 
REMARK       I    between atoms: O1L_18  and  C20_27 
REMARK       I    between atoms: C46_20  and  O47_33 
REMARK       I    between atoms: O4A_21  and  S4B_39 
REMARK       I    between atoms: N3G_22  and  C3F_46 
REMARK       I    between atoms: N3G_22  and  S3H_51 
REMARK       I    between atoms: C40_25  and  O3M_29 
REMARK       I    between atoms: O5I_26  and  S5H_47 
REMARK       I    between atoms: C53_28  and  C51_66 
REMARK       I    between atoms: O3M_29  and  C3L_61 
REMARK       I    between atoms: S17_31  and  O16_86 
REMARK       I    between atoms: O5K_34  and  S5H_47 
REMARK       I    between atoms: O1J_37  and  S1G_48 
REMARK       I    between atoms: C12_38  and  O10_70 
REMARK       I    between atoms: C13_42  and  C15_63 
REMARK       I    between atoms: C29_43  and  O2A_60 
REMARK       I    between atoms: C31_45  and  C33_81 
REMARK       I    between atoms: S5H_47  and  O5J_49 
REMARK       I    between atoms: S1G_48  and  O1H_78 
REMARK       I    between atoms: S3H_51  and  O3J_68 
REMARK       I    between atoms: O3A_54  and  C39_85 
REMARK       I    between atoms: O3A_54  and  S3B_83 
REMARK       I    between atoms: C5L_55  and  O5M_87 
REMARK       I    between atoms: C15_63  and  O16_86 
REMARK       I    between atoms: C59_71  and  O5A_75 
REMARK       I    between atoms: C33_81  and  O34_91 
REMARK       I    between atoms: S35_82  and  O34_91 
ROOT
ATOM      1  O3I NTO d 869      60.770  -2.973   5.649  0.00  0.00    -0.296 OA
ATOM      2  O1I NTO d 869      69.100   3.813  17.085  0.00  0.00    -0.296 OA
ATOM      3  O54 NTO d 869      55.285  -1.007   6.060  0.00  0.00    -0.254 OA
ATOM      4  O18 NTO d 869      65.249  -2.750  20.625  0.00  0.00    -0.572 OA
ATOM      5  C41 NTO d 869      59.947   1.712   7.653  0.00  0.00     0.152 C 
ATOM      6  C1B NTO d 869      69.925  -0.225  16.581  0.00  0.00     0.083 C 
ATOM      7  O4G NTO d 869      57.211   1.992   5.939  0.00  0.00    -0.348 OA
ATOM      8  N5G NTO d 869      54.064   4.021   9.021  0.00  0.00    -0.210 NA
ATOM      9  N1F NTO d 869      69.131   1.817  15.494  0.00  0.00    -0.210 NA
ATOM     10  O3K NTO d 869      63.221  -2.937   5.571  0.00  0.00    -0.296 OA
ATOM     11  C5N NTO d 869      51.436   3.163   6.327  0.00  0.00     0.007 C 
ATOM     12  C21 NTO d 869      66.503  -1.174  13.124  0.00  0.00     0.152 C 
ATOM     13  C26 NTO d 869      66.219   1.150  13.876  0.00  0.00     0.092 C 
ATOM     14  O4E NTO d 869      58.431   1.762   1.669  0.00  0.00    -0.572 OA
ATOM     15  C50 NTO d 869      56.052   1.727   6.742  0.00  0.00     0.095 C 
ATOM     16  C49 NTO d 869      59.377   1.297   5.157  0.00  0.00     0.134 C 
ATOM     17  O2D NTO d 869      63.834   0.259  11.099  0.00  0.00    -0.348 OA
ATOM     18  O1L NTO d 869      67.572  -0.461  15.144  0.00  0.00    -0.348 OA
ATOM     19  O19 NTO d 869      66.776  -4.645  20.320  0.00  0.00    -0.572 OA
ATOM     20  C46 NTO d 869      60.629   0.517   5.563  0.00  0.00     0.094 C 
ATOM     21  O4A NTO d 869      58.979   0.935   3.833  0.00  0.00    -0.244 OA
ATOM     22  N3G NTO d 869      62.054  -2.985   7.862  0.00  0.00    -0.210 NA
ATOM     23  O36 NTO d 869      67.863   1.897  10.235  0.00  0.00    -0.572 OA
ATOM     24  O57 NTO d 869      55.206  -2.426   4.136  0.00  0.00    -0.572 OA
ATOM     25  C40 NTO d 869      61.079   0.978   6.947  0.00  0.00     0.103 C 
ATOM     26  O5I NTO d 869      54.634   3.625  11.476  0.00  0.00    -0.296 OA
ATOM     27  C20 NTO d 869      66.385  -0.291  14.356  0.00  0.00     0.103 C 
ATOM     28  C53 NTO d 869      55.154   0.069   5.129  0.00  0.00     0.067 C 
ATOM     29  O3M NTO d 869      61.448  -0.186   7.697  0.00  0.00    -0.348 OA
ATOM     30  C43 NTO d 869      60.299   1.820   9.129  0.00  0.00     0.206 C 
ATOM     31  S17 NTO d 869      65.772  -3.758  19.646  0.00  0.00     0.251 S 
ATOM     32  O45 NTO d 869      60.605   0.770   9.740  0.00  0.00    -0.646 OA
ATOM     33  O47 NTO d 869      61.672   0.770   4.617  0.00  0.00    -0.390 OA
ATOM     34  O5K NTO d 869      52.530   4.762  10.934  0.00  0.00    -0.296 OA
ATOM     35  C2C NTO d 869      65.068   0.228  11.836  0.00  0.00     0.160 C 
ATOM     36  O38 NTO d 869      68.280   1.803   7.828  0.00  0.00    -0.572 OA
ATOM     37  O1J NTO d 869      70.245   4.040  14.931  0.00  0.00    -0.296 OA
ATOM     38  C12 NTO d 869      69.569  -1.292  17.620  0.00  0.00     0.089 C 
ATOM     39  S4B NTO d 869      59.200   2.021   2.928  0.00  0.00     0.252 S 
ATOM     40  O4D NTO d 869      60.664   2.129   2.619  0.00  0.00    -0.572 OA
ATOM     41  C1E NTO d 869      68.872   0.884  16.598  0.00  0.00     0.081 C 
ATOM     42  C13 NTO d 869      68.122  -1.760  17.447  0.00  0.00     0.090 C 
ATOM     43  C29 NTO d 869      64.977   1.235  12.986  0.00  0.00     0.110 C 
ATOM     44  O42 NTO d 869      58.712   0.990   7.498  0.00  0.00    -0.340 OA
ATOM     45  C31 NTO d 869      63.714   0.800   8.761  0.00  0.00     0.091 C 
ATOM     46  C3F NTO d 869      63.034  -1.910   8.106  0.00  0.00     0.083 C 
ATOM     47  S5H NTO d 869      53.488   3.689  10.511  0.00  0.00     0.156 S 
ATOM     48  S1G NTO d 869      69.946   3.107  16.066  0.00  0.00     0.156 S 
ATOM     49  O5J NTO d 869      52.769   2.373  10.500  0.00  0.00    -0.296 OA
ATOM     50  C5F NTO d 869      54.446   2.775   8.339  0.00  0.00     0.081 C 
ATOM     51  S3H NTO d 869      62.026  -3.472   6.302  0.00  0.00     0.156 S 
ATOM     52  O25 NTO d 869      67.969  -2.902  13.848  0.00  0.00    -0.646 OA
ATOM     53  O1C NTO d 869      71.209   0.326  16.883  0.00  0.00    -0.391 OA
ATOM     54  O3A NTO d 869      63.316  -2.549  10.433  0.00  0.00    -0.247 OA
ATOM     55  C5L NTO d 869      53.304   2.314   7.431  0.00  0.00     0.149 C 
ATOM     56  C30 NTO d 869      63.970  -0.300   9.783  0.00  0.00     0.096 C 
ATOM     57  C23 NTO d 869      66.782  -2.596  13.588  0.00  0.00     0.206 C 
ATOM     58  O3E NTO d 869      61.649  -1.836  12.011  0.00  0.00    -0.572 OA
ATOM     59  O14 NTO d 869      67.219  -0.643  17.465  0.00  0.00    -0.349 OA
ATOM     60  O2A NTO d 869      64.864   2.557  12.457  0.00  0.00    -0.388 OA
ATOM     61  C3L NTO d 869      62.704  -0.700   7.234  0.00  0.00     0.150 C 
ATOM     62  C4F NTO d 869      58.240   1.013   6.143  0.00  0.00     0.161 C 
ATOM     63  C15 NTO d 869      67.759  -2.671  18.623  0.00  0.00     0.067 C 
ATOM     64  S55 NTO d 869      55.500  -2.348   5.605  0.00  0.00     0.251 S 
ATOM     65  O58 NTO d 869      54.585  -3.270   6.351  0.00  0.00    -0.572 OA
ATOM     66  C51 NTO d 869      54.859   1.378   5.865  0.00  0.00     0.091 C 
ATOM     67  O56 NTO d 869      56.925  -2.749   5.845  0.00  0.00    -0.572 OA
ATOM     68  O3J NTO d 869      62.059  -4.970   6.243  0.00  0.00    -0.296 OA
ATOM     69  O44 NTO d 869      60.273   2.959   9.664  0.00  0.00    -0.646 OA
ATOM     70  O10 NTO d 869      70.439  -2.412  17.442  0.00  0.00    -0.390 OA
ATOM     71  C59 NTO d 869      55.725   2.995   7.530  0.00  0.00     0.083 C 
ATOM     72  O52 NTO d 869      53.679   1.163   6.656  0.00  0.00    -0.349 OA
ATOM     73  O27 NTO d 869      66.053   2.022  14.998  0.00  0.00    -0.390 OA
ATOM     74  O1A NTO d 869      64.633  -4.584  19.130  0.00  0.00    -0.572 OA
ATOM     75  O5A NTO d 869      56.813   3.268   8.418  0.00  0.00    -0.391 OA
ATOM     76  O37 NTO d 869      66.894   3.598   8.768  0.00  0.00    -0.572 OA
ATOM     77  O24 NTO d 869      65.812  -3.381  13.705  0.00  0.00    -0.646 OA
ATOM     78  O1H NTO d 869      71.224   2.646  16.702  0.00  0.00    -0.296 OA
ATOM     79  O22 NTO d 869      65.306  -1.101  12.329  0.00  0.00    -0.340 OA
ATOM     80  O3D NTO d 869      62.551  -4.113  12.074  0.00  0.00    -0.572 OA
ATOM     81  C33 NTO d 869      64.795   1.875   8.908  0.00  0.00     0.067 C 
ATOM     82  S35 NTO d 869      67.271   2.150   8.881  0.00  0.00     0.251 S 
ATOM     83  S3B NTO d 869      62.169  -2.971  11.179  0.00  0.00     0.252 S 
ATOM     84  O4C NTO d 869      58.717   3.299   3.548  0.00  0.00    -0.572 OA
ATOM     85  C39 NTO d 869      62.988  -1.457   9.566  0.00  0.00     0.108 C 
ATOM     86  O16 NTO d 869      66.391  -3.078  18.548  0.00  0.00    -0.254 OA
ATOM     87  O5M NTO d 869      52.819   3.389   6.617  0.00  0.00    -0.364 OA
ATOM     88  O3C NTO d 869      61.092  -3.427  10.240  0.00  0.00    -0.572 OA
ATOM     89  C1K NTO d 869      67.493   0.259  16.382  0.00  0.00     0.150 C 
ATOM     90  O32 NTO d 869      63.728   0.290   7.418  0.00  0.00    -0.349 OA
ATOM     91  O34 NTO d 869      66.104   1.337   8.700  0.00  0.00    -0.254 OA
ATOM     92  H   NTO d 869      60.748  -2.004   5.687  0.00  0.00     0.231 HD
ATOM     93  H   NTO d 869      68.275   4.110  16.670  0.00  0.00     0.231 HD
ATOM     94  H   NTO d 869      59.824   2.685   7.228  0.00  0.00     0.104 H 
ATOM     95  H   NTO d 869      69.949  -0.672  15.609  0.00  0.00     0.089 H 
ATOM     96  H   NTO d 869      53.343   4.496   8.478  0.00  0.00     0.140 HD
ATOM     97  H   NTO d 869      68.245   2.123  15.092  0.00  0.00     0.140 HD
ATOM     98  H   NTO d 869      63.211  -1.967   5.601  0.00  0.00     0.231 HD
ATOM     99  H   NTO d 869      51.064   3.961   5.719  0.00  0.00     0.066 H 
ATOM    100  H   NTO d 869      50.881   3.123   7.241  0.00  0.00     0.066 H 
ATOM    101  H   NTO d 869      51.328   2.236   5.803  0.00  0.00     0.066 H 
ATOM    102  H   NTO d 869      67.306  -0.839  12.500  0.00  0.00     0.104 H 
ATOM    103  H   NTO d 869      67.088   1.445  13.327  0.00  0.00     0.091 H 
ATOM    104  H   NTO d 869      56.251   0.903   7.394  0.00  0.00     0.091 H 
ATOM    105  H   NTO d 869      59.601   2.343   5.176  0.00  0.00     0.097 H 
ATOM    106  H   NTO d 869      60.411  -0.530   5.584  0.00  0.00     0.091 H 
ATOM    107  H   NTO d 869      61.126  -2.644   8.114  0.00  0.00     0.140 HD
ATOM    108  H   NTO d 869      61.907   1.649   6.862  0.00  0.00     0.092 H 
ATOM    109  H   NTO d 869      55.099   4.476  11.482  0.00  0.00     0.231 HD
ATOM    110  H   NTO d 869      65.544  -0.550  14.965  0.00  0.00     0.092 H 
ATOM    111  H   NTO d 869      54.352  -0.144   4.454  0.00  0.00     0.080 H 
ATOM    112  H   NTO d 869      56.072   0.174   4.588  0.00  0.00     0.080 H 
ATOM    113  H   NTO d 869      61.869   1.720   4.599  0.00  0.00     0.210 HD
ATOM    114  H   NTO d 869      52.987   5.619  10.944  0.00  0.00     0.231 HD
ATOM    115  H   NTO d 869      65.887   0.496  11.203  0.00  0.00     0.133 H 
ATOM    116  H   NTO d 869      69.414   4.333  14.526  0.00  0.00     0.231 HD
ATOM    117  H   NTO d 869      69.681  -0.873  18.598  0.00  0.00     0.091 H 
ATOM    118  H   NTO d 869      68.910   1.400  17.535  0.00  0.00     0.076 H 
ATOM    119  H   NTO d 869      68.040  -2.271  16.511  0.00  0.00     0.090 H 
ATOM    120  H   NTO d 869      64.114   1.004  13.575  0.00  0.00     0.094 H 
ATOM    121  H   NTO d 869      62.744   1.212   8.945  0.00  0.00     0.090 H 
ATOM    122  H   NTO d 869      64.005  -2.295   7.874  0.00  0.00     0.076 H 
ATOM    123  H   NTO d 869      53.380   1.672  10.228  0.00  0.00     0.231 HD
ATOM    124  H   NTO d 869      54.632   2.013   9.067  0.00  0.00     0.076 H 
ATOM    125  H   NTO d 869      71.187   0.732  17.764  0.00  0.00     0.210 HD
ATOM    126  H   NTO d 869      52.491   2.009   8.056  0.00  0.00     0.131 H 
ATOM    127  H   NTO d 869      64.959  -0.691   9.669  0.00  0.00     0.091 H 
ATOM    128  H   NTO d 869      65.649   2.761  11.925  0.00  0.00     0.210 HD
ATOM    129  H   NTO d 869      62.650  -0.960   6.197  0.00  0.00     0.131 H 
ATOM    130  H   NTO d 869      57.834   0.040   5.961  0.00  0.00     0.133 H 
ATOM    131  H   NTO d 869      67.917  -2.142  19.539  0.00  0.00     0.080 H 
ATOM    132  H   NTO d 869      68.378  -3.543  18.585  0.00  0.00     0.080 H 
ATOM    133  H   NTO d 869      54.695   2.190   5.188  0.00  0.00     0.090 H 
ATOM    134  H   NTO d 869      62.042  -5.258   5.317  0.00  0.00     0.231 HD
ATOM    135  H   NTO d 869      70.321  -2.775  16.551  0.00  0.00     0.210 HD
ATOM    136  H   NTO d 869      55.579   3.819   6.863  0.00  0.00     0.089 H 
ATOM    137  H   NTO d 869      65.265   1.758  15.500  0.00  0.00     0.210 HD
ATOM    138  H   NTO d 869      56.937   2.516   9.018  0.00  0.00     0.210 HD
ATOM    139  H   NTO d 869      71.022   2.043  17.435  0.00  0.00     0.231 HD
ATOM    140  H   NTO d 869      64.742   2.288   9.894  0.00  0.00     0.080 H 
ATOM    141  H   NTO d 869      64.621   2.629   8.169  0.00  0.00     0.080 H 
ATOM    142  H   NTO d 869      61.998  -1.121   9.795  0.00  0.00     0.092 H 
ATOM    143  H   NTO d 869      66.715   0.993  16.351  0.00  0.00     0.131 H 
ENDROOT
TORSDOF 46
ENDMDL
MODEL 26
REMARK VINA RESULT:      -7.6      3.477      5.627
REMARK  0 active torsions:
REMARK  status: ('A' for Active; 'I' for Inactive)
REMARK       I    between atoms: O3I_1  and  S3H_51 
REMARK       I    between atoms: O1I_2  and  S1G_48 
REMARK       I    between atoms: O54_3  and  C53_28 
REMARK       I    between atoms: O54_3  and  S55_64 
REMARK       I    between atoms: C41_5  and  C43_30 
REMARK       I    between atoms: C1B_6  and  O1C_53 
REMARK       I    between atoms: O4G_7  and  C4F_62 
REMARK       I    between atoms: O4G_7  and  C50_15 
REMARK       I    between atoms: N5G_8  and  C5F_50 
REMARK       I    between atoms: N5G_8  and  S5H_47 
REMARK       I    between atoms: N1F_9  and  C1E_41 
REMARK       I    between atoms: N1F_9  and  S1G_48 
REMARK       I    between atoms: O3K_10  and  S3H_51 
REMARK       I    between atoms: C5N_11  and  O5M_87 
REMARK       I    between atoms: C21_12  and  C23_57 
REMARK       I    between atoms: C26_13  and  O27_73 
REMARK       I    between atoms: C49_16  and  O4A_21 
REMARK       I    between atoms: O2D_17  and  C2C_35 
REMARK       I    between atoms: O2D_17  and  C30_56 
REMARK       I    between atoms: O1L_18  and  C1K_89 
REMARK       I    between atoms: O1L_18  and  C20_27 
REMARK       I    between atoms: C46_20  and  O47_33 
REMARK       I    between atoms: O4A_21  and  S4B_39 
REMARK       I    between atoms: N3G_22  and  C3F_46 
REMARK       I    between atoms: N3G_22  and  S3H_51 
REMARK       I    between atoms: C40_25  and  O3M_29 
REMARK       I    between atoms: O5I_26  and  S5H_47 
REMARK       I    between atoms: C53_28  and  C51_66 
REMARK       I    between atoms: O3M_29  and  C3L_61 
REMARK       I    between atoms: S17_31  and  O16_86 
REMARK       I    between atoms: O5K_34  and  S5H_47 
REMARK       I    between atoms: O1J_37  and  S1G_48 
REMARK       I    between atoms: C12_38  and  O10_70 
REMARK       I    between atoms: C13_42  and  C15_63 
REMARK       I    between atoms: C29_43  and  O2A_60 
REMARK       I    between atoms: C31_45  and  C33_81 
REMARK       I    between atoms: S5H_47  and  O5J_49 
REMARK       I    between atoms: S1G_48  and  O1H_78 
REMARK       I    between atoms: S3H_51  and  O3J_68 
REMARK       I    between atoms: O3A_54  and  C39_85 
REMARK       I    between atoms: O3A_54  and  S3B_83 
REMARK       I    between atoms: C5L_55  and  O5M_87 
REMARK       I    between atoms: C15_63  and  O16_86 
REMARK       I    between atoms: C59_71  and  O5A_75 
REMARK       I    between atoms: C33_81  and  O34_91 
REMARK       I    between atoms: S35_82  and  O34_91 
ROOT
ATOM      1  O3I NTO d 869      66.481   6.929  17.498  0.00  0.00    -0.296 OA
ATOM      2  O1I NTO d 869      64.119   1.458   2.981  0.00  0.00    -0.296 OA
ATOM      3  O54 NTO d 869      67.186   2.325  21.023  0.00  0.00    -0.254 OA
ATOM      4  O18 NTO d 869      56.654   1.143   6.804  0.00  0.00    -0.572 OA
ATOM      5  C41 NTO d 869      68.404   2.560  15.534  0.00  0.00     0.152 C 
ATOM      6  C1B NTO d 869      61.626   4.616   4.009  0.00  0.00     0.083 C 
ATOM      7  O4G NTO d 869      69.577   1.740  18.442  0.00  0.00    -0.348 OA
ATOM      8  N5G NTO d 869      68.664  -3.009  18.810  0.00  0.00    -0.210 NA
ATOM      9  N1F NTO d 869      63.783   3.540   4.420  0.00  0.00    -0.210 NA
ATOM     10  O3K NTO d 869      66.752   8.385  15.543  0.00  0.00    -0.296 OA
ATOM     11  C5N NTO d 869      69.701  -2.549  22.500  0.00  0.00     0.007 C 
ATOM     12  C21 NTO d 869      63.063   5.087   8.728  0.00  0.00     0.152 C 
ATOM     13  C26 NTO d 869      64.193   3.126   7.768  0.00  0.00     0.092 C 
ATOM     14  O4E NTO d 869      72.453   4.950  19.537  0.00  0.00    -0.572 OA
ATOM     15  C50 NTO d 869      68.741   0.774  19.098  0.00  0.00     0.095 C 
ATOM     16  C49 NTO d 869      69.784   3.852  17.310  0.00  0.00     0.134 C 
ATOM     17  O2D NTO d 869      65.283   3.793  11.311  0.00  0.00    -0.348 OA
ATOM     18  O1L NTO d 869      62.265   4.173   6.664  0.00  0.00    -0.348 OA
ATOM     19  O19 NTO d 869      55.621   3.330   6.398  0.00  0.00    -0.572 OA
ATOM     20  C46 NTO d 869      69.041   4.823  16.392  0.00  0.00     0.094 C 
ATOM     21  O4A NTO d 869      70.407   4.566  18.381  0.00  0.00    -0.244 OA
ATOM     22  N3G NTO d 869      65.046   6.466  15.431  0.00  0.00    -0.210 NA
ATOM     23  O36 NTO d 869      67.372   5.656   7.872  0.00  0.00    -0.572 OA
ATOM     24  O57 NTO d 869      67.486   4.184  22.498  0.00  0.00    -0.572 OA
ATOM     25  C40 NTO d 869      68.451   4.048  15.216  0.00  0.00     0.103 C 
ATOM     26  O5I NTO d 869      66.729  -3.797  17.346  0.00  0.00    -0.296 OA
ATOM     27  C20 NTO d 869      62.838   3.813   7.929  0.00  0.00     0.103 C 
ATOM     28  C53 NTO d 869      68.592   2.125  21.175  0.00  0.00     0.067 C 
ATOM     29  O3M NTO d 869      67.126   4.541  14.988  0.00  0.00    -0.348 OA
ATOM     30  C43 NTO d 869      67.491   1.886  14.522  0.00  0.00     0.206 C 
ATOM     31  S17 NTO d 869      56.645   2.588   7.204  0.00  0.00     0.251 S 
ATOM     32  O45 NTO d 869      66.338   2.351  14.368  0.00  0.00    -0.646 OA
ATOM     33  O47 NTO d 869      69.957   5.806  15.901  0.00  0.00    -0.390 OA
ATOM     34  O5K NTO d 869      67.757  -5.404  18.887  0.00  0.00    -0.296 OA
ATOM     35  C2C NTO d 869      64.849   4.126   9.982  0.00  0.00     0.160 C 
ATOM     36  O38 NTO d 869      68.998   7.286   8.694  0.00  0.00    -0.572 OA
ATOM     37  O1J NTO d 869      65.858   3.184   2.982  0.00  0.00    -0.296 OA
ATOM     38  C12 NTO d 869      60.113   4.467   4.195  0.00  0.00     0.089 C 
ATOM     39  S4B NTO d 869      71.830   4.550  18.234  0.00  0.00     0.252 S 
ATOM     40  O4D NTO d 869      72.235   5.514  17.158  0.00  0.00    -0.572 OA
ATOM     41  C1E NTO d 869      62.330   3.332   4.450  0.00  0.00     0.081 C 
ATOM     42  C13 NTO d 869      59.783   3.993   5.613  0.00  0.00     0.090 C 
ATOM     43  C29 NTO d 869      64.773   2.840   9.155  0.00  0.00     0.110 C 
ATOM     44  O42 NTO d 869      67.896   2.351  16.864  0.00  0.00    -0.340 OA
ATOM     45  C31 NTO d 869      67.277   4.694  12.305  0.00  0.00     0.091 C 
ATOM     46  C3F NTO d 869      65.726   6.266  14.139  0.00  0.00     0.083 C 
ATOM     47  S5H NTO d 869      67.352  -3.972  18.698  0.00  0.00     0.156 S 
ATOM     48  S1G NTO d 869      64.380   2.936   3.030  0.00  0.00     0.156 S 
ATOM     49  O5J NTO d 869      66.356  -3.607  19.759  0.00  0.00    -0.296 OA
ATOM     50  C5F NTO d 869      68.267  -1.670  19.270  0.00  0.00     0.081 C 
ATOM     51  S3H NTO d 869      65.770   7.599  16.358  0.00  0.00     0.156 S 
ATOM     52  O25 NTO d 869      61.434   6.571   7.830  0.00  0.00    -0.646 OA
ATOM     53  O1C NTO d 869      61.914   4.873   2.632  0.00  0.00    -0.391 OA
ATOM     54  O3A NTO d 869      63.683   5.524  13.054  0.00  0.00    -0.247 OA
ATOM     55  C5L NTO d 869      68.474  -1.562  20.782  0.00  0.00     0.149 C 
ATOM     56  C30 NTO d 869      65.800   4.932  12.019  0.00  0.00     0.096 C 
ATOM     57  C23 NTO d 869      61.742   5.837   8.799  0.00  0.00     0.206 C 
ATOM     58  O3E NTO d 869      62.977   3.253  13.405  0.00  0.00    -0.572 OA
ATOM     59  O14 NTO d 869      60.504   2.792   5.931  0.00  0.00    -0.349 OA
ATOM     60  O2A NTO d 869      66.080   2.282   9.016  0.00  0.00    -0.388 OA
ATOM     61  C3L NTO d 869      67.173   5.836  14.376  0.00  0.00     0.150 C 
ATOM     62  C4F NTO d 869      68.812   2.810  17.870  0.00  0.00     0.161 C 
ATOM     63  C15 NTO d 869      58.288   3.671   5.686  0.00  0.00     0.067 C 
ATOM     64  S55 NTO d 869      66.551   3.499  21.545  0.00  0.00     0.251 S 
ATOM     65  O58 NTO d 869      65.301   3.098  22.268  0.00  0.00    -0.572 OA
ATOM     66  C51 NTO d 869      69.002   0.768  20.597  0.00  0.00     0.091 C 
ATOM     67  O56 NTO d 869      66.208   4.438  20.428  0.00  0.00    -0.572 OA
ATOM     68  O3J NTO d 869      64.735   8.541  16.900  0.00  0.00    -0.296 OA
ATOM     69  O44 NTO d 869      67.939   0.899  13.882  0.00  0.00    -0.646 OA
ATOM     70  O10 NTO d 869      59.498   5.739   3.980  0.00  0.00    -0.390 OA
ATOM     71  C59 NTO d 869      69.084  -0.605  18.536  0.00  0.00     0.083 C 
ATOM     72  O52 NTO d 869      68.210  -0.232  21.257  0.00  0.00    -0.349 OA
ATOM     73  O27 NTO d 869      64.033   1.891   7.062  0.00  0.00    -0.390 OA
ATOM     74  O1A NTO d 869      56.319   2.697   8.662  0.00  0.00    -0.572 OA
ATOM     75  O5A NTO d 869      68.752  -0.620  17.144  0.00  0.00    -0.391 OA
ATOM     76  O37 NTO d 869      69.533   4.891   8.726  0.00  0.00    -0.572 OA
ATOM     77  O24 NTO d 869      61.020   5.671   9.811  0.00  0.00    -0.646 OA
ATOM     78  O1H NTO d 869      63.709   3.606   1.868  0.00  0.00    -0.296 OA
ATOM     79  O22 NTO d 869      63.571   4.781  10.039  0.00  0.00    -0.340 OA
ATOM     80  O3D NTO d 869      61.366   5.098  13.470  0.00  0.00    -0.572 OA
ATOM     81  C33 NTO d 869      68.033   4.607  10.976  0.00  0.00     0.067 C 
ATOM     82  S35 NTO d 869      68.442   5.908   8.891  0.00  0.00     0.251 S 
ATOM     83  S3B NTO d 869      62.775   4.691  13.784  0.00  0.00     0.252 S 
ATOM     84  O4C NTO d 869      72.284   3.167  17.872  0.00  0.00    -0.572 OA
ATOM     85  C39 NTO d 869      65.041   5.163  13.329  0.00  0.00     0.108 C 
ATOM     86  O16 NTO d 869      57.941   3.154   6.971  0.00  0.00    -0.254 OA
ATOM     87  O5M NTO d 869      69.771  -2.034  21.166  0.00  0.00    -0.364 OA
ATOM     88  O3C NTO d 869      63.012   4.850  15.256  0.00  0.00    -0.572 OA
ATOM     89  C1K NTO d 869      61.922   3.015   5.889  0.00  0.00     0.150 C 
ATOM     90  O32 NTO d 869      67.839   5.747  13.105  0.00  0.00    -0.349 OA
ATOM     91  O34 NTO d 869      67.891   5.807  10.211  0.00  0.00    -0.254 OA
ATOM     92  H   NTO d 869      67.150   6.320  17.148  0.00  0.00     0.231 HD
ATOM     93  H   NTO d 869      64.555   1.029   3.734  0.00  0.00     0.231 HD
ATOM     94  H   NTO d 869      69.389   2.145  15.481  0.00  0.00     0.104 H 
ATOM     95  H   NTO d 869      61.977   5.432   4.605  0.00  0.00     0.089 H 
ATOM     96  H   NTO d 869      69.324  -3.413  19.474  0.00  0.00     0.140 HD
ATOM     97  H   NTO d 869      64.212   3.062   5.212  0.00  0.00     0.140 HD
ATOM     98  H   NTO d 869      67.428   7.787  15.186  0.00  0.00     0.231 HD
ATOM     99  H   NTO d 869      70.666  -2.905  22.796  0.00  0.00     0.066 H 
ATOM    100  H   NTO d 869      68.998  -3.355  22.535  0.00  0.00     0.066 H 
ATOM    101  H   NTO d 869      69.387  -1.773  23.166  0.00  0.00     0.066 H 
ATOM    102  H   NTO d 869      63.797   5.702   8.251  0.00  0.00     0.104 H 
ATOM    103  H   NTO d 869      64.852   3.763   7.216  0.00  0.00     0.091 H 
ATOM    104  H   NTO d 869      67.713   1.020  18.930  0.00  0.00     0.091 H 
ATOM    105  H   NTO d 869      70.541   3.351  16.743  0.00  0.00     0.097 H 
ATOM    106  H   NTO d 869      68.256   5.305  16.936  0.00  0.00     0.091 H 
ATOM    107  H   NTO d 869      65.044   5.581  15.939  0.00  0.00     0.140 HD
ATOM    108  H   NTO d 869      69.057   4.182  14.345  0.00  0.00     0.092 H 
ATOM    109  H   NTO d 869      67.373  -4.033  16.660  0.00  0.00     0.231 HD
ATOM    110  H   NTO d 869      62.167   3.137   8.416  0.00  0.00     0.092 H 
ATOM    111  H   NTO d 869      68.842   2.155  22.215  0.00  0.00     0.080 H 
ATOM    112  H   NTO d 869      69.112   2.898  20.649  0.00  0.00     0.080 H 
ATOM    113  H   NTO d 869      70.668   5.368  15.407  0.00  0.00     0.210 HD
ATOM    114  H   NTO d 869      68.402  -5.650  18.204  0.00  0.00     0.231 HD
ATOM    115  H   NTO d 869      65.542   4.797   9.520  0.00  0.00     0.133 H 
ATOM    116  H   NTO d 869      66.284   2.748   3.736  0.00  0.00     0.231 HD
ATOM    117  H   NTO d 869      59.748   3.743   3.497  0.00  0.00     0.091 H 
ATOM    118  H   NTO d 869      62.058   2.531   3.795  0.00  0.00     0.076 H 
ATOM    119  H   NTO d 869      60.056   4.766   6.301  0.00  0.00     0.090 H 
ATOM    120  H   NTO d 869      64.133   2.147   9.660  0.00  0.00     0.094 H 
ATOM    121  H   NTO d 869      67.371   3.781  12.854  0.00  0.00     0.090 H 
ATOM    122  H   NTO d 869      65.686   7.191  13.602  0.00  0.00     0.076 H 
ATOM    123  H   NTO d 869      66.088  -2.682  19.646  0.00  0.00     0.231 HD
ATOM    124  H   NTO d 869      67.232  -1.511  19.054  0.00  0.00     0.076 H 
ATOM    125  H   NTO d 869      61.596   4.133   2.091  0.00  0.00     0.210 HD
ATOM    126  H   NTO d 869      67.760  -2.203  21.256  0.00  0.00     0.131 H 
ATOM    127  H   NTO d 869      65.675   5.805  11.414  0.00  0.00     0.091 H 
ATOM    128  H   NTO d 869      66.655   2.914   8.557  0.00  0.00     0.210 HD
ATOM    129  H   NTO d 869      67.698   6.532  14.997  0.00  0.00     0.131 H 
ATOM    130  H   NTO d 869      68.205   3.251  18.633  0.00  0.00     0.133 H 
ATOM    131  H   NTO d 869      58.049   2.944   4.939  0.00  0.00     0.080 H 
ATOM    132  H   NTO d 869      57.735   4.572   5.518  0.00  0.00     0.080 H 
ATOM    133  H   NTO d 869      70.041   0.565  20.753  0.00  0.00     0.090 H 
ATOM    134  H   NTO d 869      65.166   9.213  17.450  0.00  0.00     0.231 HD
ATOM    135  H   NTO d 869      59.843   6.378   4.623  0.00  0.00     0.210 HD
ATOM    136  H   NTO d 869      70.125  -0.810  18.668  0.00  0.00     0.089 H 
ATOM    137  H   NTO d 869      63.436   1.309   7.559  0.00  0.00     0.210 HD
ATOM    138  H   NTO d 869      67.807  -0.433  17.036  0.00  0.00     0.210 HD
ATOM    139  H   NTO d 869      62.754   3.440   1.906  0.00  0.00     0.231 HD
ATOM    140  H   NTO d 869      67.646   3.786  10.410  0.00  0.00     0.080 H 
ATOM    141  H   NTO d 869      69.072   4.466  11.190  0.00  0.00     0.080 H 
ATOM    142  H   NTO d 869      65.047   4.258  13.900  0.00  0.00     0.092 H 
ATOM    143  H   NTO d 869      62.411   2.142   6.268  0.00  0.00     0.131 H 
ENDROOT
TORSDOF 46
ENDMDL
MODEL 27
REMARK VINA RESULT:      -7.5      3.859      4.876
REMARK  0 active torsions:
REMARK  status: ('A' for Active; 'I' for Inactive)
REMARK       I    between atoms: O3I_1  and  S3H_51 
REMARK       I    between atoms: O1I_2  and  S1G_48 
REMARK       I    between atoms: O54_3  and  C53_28 
REMARK       I    between atoms: O54_3  and  S55_64 
REMARK       I    between atoms: C41_5  and  C43_30 
REMARK       I    between atoms: C1B_6  and  O1C_53 
REMARK       I    between atoms: O4G_7  and  C4F_62 
REMARK       I    between atoms: O4G_7  and  C50_15 
REMARK       I    between atoms: N5G_8  and  C5F_50 
REMARK       I    between atoms: N5G_8  and  S5H_47 
REMARK       I    between atoms: N1F_9  and  C1E_41 
REMARK       I    between atoms: N1F_9  and  S1G_48 
REMARK       I    between atoms: O3K_10  and  S3H_51 
REMARK       I    between atoms: C5N_11  and  O5M_87 
REMARK       I    between atoms: C21_12  and  C23_57 
REMARK       I    between atoms: C26_13  and  O27_73 
REMARK       I    between atoms: C49_16  and  O4A_21 
REMARK       I    between atoms: O2D_17  and  C2C_35 
REMARK       I    between atoms: O2D_17  and  C30_56 
REMARK       I    between atoms: O1L_18  and  C1K_89 
REMARK       I    between atoms: O1L_18  and  C20_27 
REMARK       I    between atoms: C46_20  and  O47_33 
REMARK       I    between atoms: O4A_21  and  S4B_39 
REMARK       I    between atoms: N3G_22  and  C3F_46 
REMARK       I    between atoms: N3G_22  and  S3H_51 
REMARK       I    between atoms: C40_25  and  O3M_29 
REMARK       I    between atoms: O5I_26  and  S5H_47 
REMARK       I    between atoms: C53_28  and  C51_66 
REMARK       I    between atoms: O3M_29  and  C3L_61 
REMARK       I    between atoms: S17_31  and  O16_86 
REMARK       I    between atoms: O5K_34  and  S5H_47 
REMARK       I    between atoms: O1J_37  and  S1G_48 
REMARK       I    between atoms: C12_38  and  O10_70 
REMARK       I    between atoms: C13_42  and  C15_63 
REMARK       I    between atoms: C29_43  and  O2A_60 
REMARK       I    between atoms: C31_45  and  C33_81 
REMARK       I    between atoms: S5H_47  and  O5J_49 
REMARK       I    between atoms: S1G_48  and  O1H_78 
REMARK       I    between atoms: S3H_51  and  O3J_68 
REMARK       I    between atoms: O3A_54  and  C39_85 
REMARK       I    between atoms: O3A_54  and  S3B_83 
REMARK       I    between atoms: C5L_55  and  O5M_87 
REMARK       I    between atoms: C15_63  and  O16_86 
REMARK       I    between atoms: C59_71  and  O5A_75 
REMARK       I    between atoms: C33_81  and  O34_91 
REMARK       I    between atoms: S35_82  and  O34_91 
ROOT
ATOM      1  O3I NTO d 869      64.172   5.271  14.000  0.00  0.00    -0.296 OA
ATOM      2  O1I NTO d 869      61.858  -7.625   5.364  0.00  0.00    -0.296 OA
ATOM      3  O54 NTO d 869      67.069   3.672  18.814  0.00  0.00    -0.254 OA
ATOM      4  O18 NTO d 869      55.720  -7.554  11.089  0.00  0.00    -0.572 OA
ATOM      5  C41 NTO d 869      67.266   1.145  13.789  0.00  0.00     0.152 C 
ATOM      6  C1B NTO d 869      58.552  -5.119   5.553  0.00  0.00     0.083 C 
ATOM      7  O4G NTO d 869      69.086   2.356  16.183  0.00  0.00    -0.348 OA
ATOM      8  N5G NTO d 869      70.078  -1.471  18.992  0.00  0.00    -0.210 NA
ATOM      9  N1F NTO d 869      60.991  -5.246   5.690  0.00  0.00    -0.210 NA
ATOM     10  O3K NTO d 869      63.582   5.434  11.625  0.00  0.00    -0.296 OA
ATOM     11  C5N NTO d 869      71.414   1.163  21.478  0.00  0.00     0.007 C 
ATOM     12  C21 NTO d 869      60.406  -1.817   8.751  0.00  0.00     0.152 C 
ATOM     13  C26 NTO d 869      62.027  -3.649   8.505  0.00  0.00     0.092 C 
ATOM     14  O4E NTO d 869      70.686   6.213  14.654  0.00  0.00    -0.572 OA
ATOM     15  C50 NTO d 869      68.780   1.742  17.444  0.00  0.00     0.095 C 
ATOM     16  C49 NTO d 869      68.316   3.481  14.201  0.00  0.00     0.134 C 
ATOM     17  O2D NTO d 869      63.311  -0.916  10.756  0.00  0.00    -0.348 OA
ATOM     18  O1L NTO d 869      59.704  -3.870   7.737  0.00  0.00    -0.348 OA
ATOM     19  O19 NTO d 869      53.896  -6.266  10.074  0.00  0.00    -0.572 OA
ATOM     20  C46 NTO d 869      67.135   3.582  13.236  0.00  0.00     0.094 C 
ATOM     21  O4A NTO d 869      68.782   4.787  14.548  0.00  0.00    -0.244 OA
ATOM     22  N3G NTO d 869      62.719   3.428  12.982  0.00  0.00    -0.210 NA
ATOM     23  O36 NTO d 869      64.008  -0.808   6.378  0.00  0.00    -0.572 OA
ATOM     24  O57 NTO d 869      66.873   6.042  19.065  0.00  0.00    -0.572 OA
ATOM     25  C40 NTO d 869      66.706   2.176  12.820  0.00  0.00     0.103 C 
ATOM     26  O5I NTO d 869      68.380  -3.363  18.783  0.00  0.00    -0.296 OA
ATOM     27  C20 NTO d 869      60.554  -3.331   8.759  0.00  0.00     0.103 C 
ATOM     28  C53 NTO d 869      68.454   3.927  18.574  0.00  0.00     0.067 C 
ATOM     29  O3M NTO d 869      65.275   2.133  12.835  0.00  0.00    -0.348 OA
ATOM     30  C43 NTO d 869      66.529  -0.167  13.567  0.00  0.00     0.206 C 
ATOM     31  S17 NTO d 869      55.233  -6.178  10.748  0.00  0.00     0.251 S 
ATOM     32  O45 NTO d 869      65.277  -0.151  13.600  0.00  0.00    -0.646 OA
ATOM     33  O47 NTO d 869      67.532   4.319  12.076  0.00  0.00    -0.390 OA
ATOM     34  O5K NTO d 869      70.154  -3.566  20.464  0.00  0.00    -0.296 OA
ATOM     35  C2C NTO d 869      62.588  -1.479   9.649  0.00  0.00     0.160 C 
ATOM     36  O38 NTO d 869      65.012   1.335   5.767  0.00  0.00    -0.572 OA
ATOM     37  O1J NTO d 869      62.805  -5.827   3.995  0.00  0.00    -0.296 OA
ATOM     38  C12 NTO d 869      57.251  -5.494   6.269  0.00  0.00     0.089 C 
ATOM     39  S4B NTO d 869      70.067   5.031  13.970  0.00  0.00     0.252 S 
ATOM     40  O4D NTO d 869      69.916   5.312  12.505  0.00  0.00    -0.572 OA
ATOM     41  C1E NTO d 869      59.742  -5.741   6.284  0.00  0.00     0.081 C 
ATOM     42  C13 NTO d 869      57.341  -5.177   7.763  0.00  0.00     0.090 C 
ATOM     43  C29 NTO d 869      62.873  -2.982   9.591  0.00  0.00     0.110 C 
ATOM     44  O42 NTO d 869      67.080   1.585  15.146  0.00  0.00    -0.340 OA
ATOM     45  C31 NTO d 869      64.950   0.824  10.506  0.00  0.00     0.091 C 
ATOM     46  C3F NTO d 869      63.221   2.721  11.789  0.00  0.00     0.083 C 
ATOM     47  S5H NTO d 869      69.220  -2.616  19.775  0.00  0.00     0.156 S 
ATOM     48  S1G NTO d 869      61.552  -6.351   4.632  0.00  0.00     0.156 S 
ATOM     49  O5J NTO d 869      68.333  -1.978  20.802  0.00  0.00    -0.296 OA
ATOM     50  C5F NTO d 869      69.285  -0.238  18.877  0.00  0.00     0.081 C 
ATOM     51  S3H NTO d 869      63.099   5.017  12.982  0.00  0.00     0.156 S 
ATOM     52  O25 NTO d 869      58.225  -1.504   7.852  0.00  0.00    -0.646 OA
ATOM     53  O1C NTO d 869      58.512  -5.597   4.207  0.00  0.00    -0.391 OA
ATOM     54  O3A NTO d 869      61.464   1.048  11.907  0.00  0.00    -0.247 OA
ATOM     55  C5L NTO d 869      69.662   0.725  20.004  0.00  0.00     0.149 C 
ATOM     56  C30 NTO d 869      63.466   0.507  10.641  0.00  0.00     0.096 C 
ATOM     57  C23 NTO d 869      58.927  -1.489   8.891  0.00  0.00     0.206 C 
ATOM     58  O3E NTO d 869      61.718  -0.750  13.482  0.00  0.00    -0.572 OA
ATOM     59  O14 NTO d 869      58.497  -5.797   8.349  0.00  0.00    -0.349 OA
ATOM     60  O2A NTO d 869      64.257  -3.197   9.310  0.00  0.00    -0.388 OA
ATOM     61  C3L NTO d 869      64.742   2.849  11.713  0.00  0.00     0.150 C 
ATOM     62  C4F NTO d 869      67.899   2.720  15.463  0.00  0.00     0.161 C 
ATOM     63  C15 NTO d 869      56.103  -5.750   8.460  0.00  0.00     0.067 C 
ATOM     64  S55 NTO d 869      66.129   4.749  18.905  0.00  0.00     0.251 S 
ATOM     65  O58 NTO d 869      65.244   4.527  20.093  0.00  0.00    -0.572 OA
ATOM     66  C51 NTO d 869      69.248   2.619  18.596  0.00  0.00     0.091 C 
ATOM     67  O56 NTO d 869      65.295   4.810  17.660  0.00  0.00    -0.572 OA
ATOM     68  O3J NTO d 869      61.882   5.824  13.327  0.00  0.00    -0.296 OA
ATOM     69  O44 NTO d 869      67.210  -1.203  13.353  0.00  0.00    -0.646 OA
ATOM     70  O10 NTO d 869      56.181  -4.737   5.700  0.00  0.00    -0.390 OA
ATOM     71  C59 NTO d 869      69.524   0.409  17.512  0.00  0.00     0.083 C 
ATOM     72  O52 NTO d 869      68.996   1.990  19.863  0.00  0.00    -0.349 OA
ATOM     73  O27 NTO d 869      62.235  -5.064   8.550  0.00  0.00    -0.390 OA
ATOM     74  O1A NTO d 869      55.114  -5.369  12.004  0.00  0.00    -0.572 OA
ATOM     75  O5A NTO d 869      69.015  -0.444  16.481  0.00  0.00    -0.391 OA
ATOM     76  O37 NTO d 869      66.400  -0.443   6.734  0.00  0.00    -0.572 OA
ATOM     77  O24 NTO d 869      58.482  -1.239  10.036  0.00  0.00    -0.646 OA
ATOM     78  O1H NTO d 869      60.513  -6.608   3.582  0.00  0.00    -0.296 OA
ATOM     79  O22 NTO d 869      61.183  -1.224   9.807  0.00  0.00    -0.340 OA
ATOM     80  O3D NTO d 869      59.565   0.384  13.202  0.00  0.00    -0.572 OA
ATOM     81  C33 NTO d 869      65.474   0.205   9.207  0.00  0.00     0.067 C 
ATOM     82  S35 NTO d 869      65.048   0.205   6.752  0.00  0.00     0.251 S 
ATOM     83  S3B NTO d 869      61.054   0.564  13.191  0.00  0.00     0.252 S 
ATOM     84  O4C NTO d 869      70.945   3.831  14.169  0.00  0.00    -0.572 OA
ATOM     85  C39 NTO d 869      62.884   1.231  11.859  0.00  0.00     0.108 C 
ATOM     86  O16 NTO d 869      56.173  -5.544   9.872  0.00  0.00    -0.254 OA
ATOM     87  O5M NTO d 869      71.084   0.863  20.118  0.00  0.00    -0.364 OA
ATOM     88  O3C NTO d 869      61.434   1.554  14.251  0.00  0.00    -0.572 OA
ATOM     89  C1K NTO d 869      59.705  -5.304   7.749  0.00  0.00     0.150 C 
ATOM     90  O32 NTO d 869      65.192   2.239  10.492  0.00  0.00    -0.349 OA
ATOM     91  O34 NTO d 869      64.780   0.717   8.064  0.00  0.00    -0.254 OA
ATOM     92  H   NTO d 869      64.959   4.749  13.777  0.00  0.00     0.231 HD
ATOM     93  H   NTO d 869      62.531  -7.454   6.042  0.00  0.00     0.231 HD
ATOM     94  H   NTO d 869      68.315   1.016  13.618  0.00  0.00     0.104 H 
ATOM     95  H   NTO d 869      58.659  -4.054   5.550  0.00  0.00     0.089 H 
ATOM     96  H   NTO d 869      70.933  -1.275  19.511  0.00  0.00     0.140 HD
ATOM     97  H   NTO d 869      61.682  -5.094   6.424  0.00  0.00     0.140 HD
ATOM     98  H   NTO d 869      64.370   4.919  11.389  0.00  0.00     0.231 HD
ATOM     99  H   NTO d 869      72.475   1.268  21.573  0.00  0.00     0.066 H 
ATOM    100  H   NTO d 869      71.077   0.369  22.110  0.00  0.00     0.066 H 
ATOM    101  H   NTO d 869      70.937   2.077  21.767  0.00  0.00     0.066 H 
ATOM    102  H   NTO d 869      60.775  -1.411   7.833  0.00  0.00     0.104 H 
ATOM    103  H   NTO d 869      62.309  -3.283   7.539  0.00  0.00     0.091 H 
ATOM    104  H   NTO d 869      67.723   1.604  17.526  0.00  0.00     0.091 H 
ATOM    105  H   NTO d 869      69.110   2.948  13.721  0.00  0.00     0.097 H 
ATOM    106  H   NTO d 869      66.319   4.081  13.715  0.00  0.00     0.091 H 
ATOM    107  H   NTO d 869      63.125   2.995  13.812  0.00  0.00     0.140 HD
ATOM    108  H   NTO d 869      67.079   1.950  11.843  0.00  0.00     0.092 H 
ATOM    109  H   NTO d 869      68.954  -3.776  18.119  0.00  0.00     0.231 HD
ATOM    110  H   NTO d 869      60.265  -3.765   9.693  0.00  0.00     0.092 H 
ATOM    111  H   NTO d 869      68.828   4.580  19.334  0.00  0.00     0.080 H 
ATOM    112  H   NTO d 869      68.562   4.383  17.612  0.00  0.00     0.080 H 
ATOM    113  H   NTO d 869      68.271   3.865  11.642  0.00  0.00     0.210 HD
ATOM    114  H   NTO d 869      70.733  -3.985  19.807  0.00  0.00     0.231 HD
ATOM    115  H   NTO d 869      62.903  -1.029   8.731  0.00  0.00     0.133 H 
ATOM    116  H   NTO d 869      63.472  -5.664   4.681  0.00  0.00     0.231 HD
ATOM    117  H   NTO d 869      57.082  -6.544   6.150  0.00  0.00     0.091 H 
ATOM    118  H   NTO d 869      59.694  -6.807   6.207  0.00  0.00     0.076 H 
ATOM    119  H   NTO d 869      57.405  -4.116   7.882  0.00  0.00     0.090 H 
ATOM    120  H   NTO d 869      62.623  -3.414  10.537  0.00  0.00     0.094 H 
ATOM    121  H   NTO d 869      65.460   0.413  11.352  0.00  0.00     0.090 H 
ATOM    122  H   NTO d 869      62.758   3.160  10.930  0.00  0.00     0.076 H 
ATOM    123  H   NTO d 869      67.724  -1.362  20.367  0.00  0.00     0.231 HD
ATOM    124  H   NTO d 869      68.245  -0.474  18.962  0.00  0.00     0.076 H 
ATOM    125  H   NTO d 869      58.415  -6.563   4.209  0.00  0.00     0.210 HD
ATOM    126  H   NTO d 869      69.319   0.301  20.925  0.00  0.00     0.131 H 
ATOM    127  H   NTO d 869      62.934   0.848   9.777  0.00  0.00     0.091 H 
ATOM    128  H   NTO d 869      64.478  -2.804   8.451  0.00  0.00     0.210 HD
ATOM    129  H   NTO d 869      65.056   3.872  11.730  0.00  0.00     0.131 H 
ATOM    130  H   NTO d 869      67.295   3.348  16.084  0.00  0.00     0.133 H 
ATOM    131  H   NTO d 869      56.043  -6.799   8.261  0.00  0.00     0.080 H 
ATOM    132  H   NTO d 869      55.236  -5.249   8.083  0.00  0.00     0.080 H 
ATOM    133  H   NTO d 869      70.298   2.787  18.480  0.00  0.00     0.090 H 
ATOM    134  H   NTO d 869      62.109   6.767  13.327  0.00  0.00     0.231 HD
ATOM    135  H   NTO d 869      56.356  -3.790   5.820  0.00  0.00     0.210 HD
ATOM    136  H   NTO d 869      70.574   0.563  17.376  0.00  0.00     0.089 H 
ATOM    137  H   NTO d 869      61.980  -5.401   9.424  0.00  0.00     0.210 HD
ATOM    138  H   NTO d 869      68.064  -0.577  16.612  0.00  0.00     0.210 HD
ATOM    139  H   NTO d 869      59.706  -6.946   4.002  0.00  0.00     0.231 HD
ATOM    140  H   NTO d 869      65.340  -0.855   9.248  0.00  0.00     0.080 H 
ATOM    141  H   NTO d 869      66.510   0.456   9.109  0.00  0.00     0.080 H 
ATOM    142  H   NTO d 869      63.313   0.818  12.748  0.00  0.00     0.092 H 
ATOM    143  H   NTO d 869      60.536  -5.682   8.308  0.00  0.00     0.131 H 
ENDROOT
TORSDOF 46
ENDMDL
MODEL 28
REMARK VINA RESULT:      -7.2      3.439      6.473
REMARK  0 active torsions:
REMARK  status: ('A' for Active; 'I' for Inactive)
REMARK       I    between atoms: O3I_1  and  S3H_51 
REMARK       I    between atoms: O1I_2  and  S1G_48 
REMARK       I    between atoms: O54_3  and  C53_28 
REMARK       I    between atoms: O54_3  and  S55_64 
REMARK       I    between atoms: C41_5  and  C43_30 
REMARK       I    between atoms: C1B_6  and  O1C_53 
REMARK       I    between atoms: O4G_7  and  C4F_62 
REMARK       I    between atoms: O4G_7  and  C50_15 
REMARK       I    between atoms: N5G_8  and  C5F_50 
REMARK       I    between atoms: N5G_8  and  S5H_47 
REMARK       I    between atoms: N1F_9  and  C1E_41 
REMARK       I    between atoms: N1F_9  and  S1G_48 
REMARK       I    between atoms: O3K_10  and  S3H_51 
REMARK       I    between atoms: C5N_11  and  O5M_87 
REMARK       I    between atoms: C21_12  and  C23_57 
REMARK       I    between atoms: C26_13  and  O27_73 
REMARK       I    between atoms: C49_16  and  O4A_21 
REMARK       I    between atoms: O2D_17  and  C2C_35 
REMARK       I    between atoms: O2D_17  and  C30_56 
REMARK       I    between atoms: O1L_18  and  C1K_89 
REMARK       I    between atoms: O1L_18  and  C20_27 
REMARK       I    between atoms: C46_20  and  O47_33 
REMARK       I    between atoms: O4A_21  and  S4B_39 
REMARK       I    between atoms: N3G_22  and  C3F_46 
REMARK       I    between atoms: N3G_22  and  S3H_51 
REMARK       I    between atoms: C40_25  and  O3M_29 
REMARK       I    between atoms: O5I_26  and  S5H_47 
REMARK       I    between atoms: C53_28  and  C51_66 
REMARK       I    between atoms: O3M_29  and  C3L_61 
REMARK       I    between atoms: S17_31  and  O16_86 
REMARK       I    between atoms: O5K_34  and  S5H_47 
REMARK       I    between atoms: O1J_37  and  S1G_48 
REMARK       I    between atoms: C12_38  and  O10_70 
REMARK       I    between atoms: C13_42  and  C15_63 
REMARK       I    between atoms: C29_43  and  O2A_60 
REMARK       I    between atoms: C31_45  and  C33_81 
REMARK       I    between atoms: S5H_47  and  O5J_49 
REMARK       I    between atoms: S1G_48  and  O1H_78 
REMARK       I    between atoms: S3H_51  and  O3J_68 
REMARK       I    between atoms: O3A_54  and  C39_85 
REMARK       I    between atoms: O3A_54  and  S3B_83 
REMARK       I    between atoms: C5L_55  and  O5M_87 
REMARK       I    between atoms: C15_63  and  O16_86 
REMARK       I    between atoms: C59_71  and  O5A_75 
REMARK       I    between atoms: C33_81  and  O34_91 
REMARK       I    between atoms: S35_82  and  O34_91 
ROOT
ATOM      1  O3I NTO d 869      67.862   1.102   9.073  0.00  0.00    -0.296 OA
ATOM      2  O1I NTO d 869      52.342   3.392   8.752  0.00  0.00    -0.296 OA
ATOM      3  O54 NTO d 869      70.061   4.518  13.269  0.00  0.00    -0.254 OA
ATOM      4  O18 NTO d 869      55.684   9.624   4.231  0.00  0.00    -0.572 OA
ATOM      5  C41 NTO d 869      64.877   2.336  13.099  0.00  0.00     0.152 C 
ATOM      6  C1B NTO d 869      54.083   3.186   4.988  0.00  0.00     0.083 C 
ATOM      7  O4G NTO d 869      67.502   2.703  14.965  0.00  0.00    -0.348 OA
ATOM      8  N5G NTO d 869      66.564   6.670  17.591  0.00  0.00    -0.210 NA
ATOM      9  N1F NTO d 869      54.269   2.508   7.331  0.00  0.00    -0.210 NA
ATOM     10  O3K NTO d 869      66.375  -0.502   7.964  0.00  0.00    -0.296 OA
ATOM     11  C5N NTO d 869      70.278   6.421  18.618  0.00  0.00     0.007 C 
ATOM     12  C21 NTO d 869      58.806   2.870   6.460  0.00  0.00     0.152 C 
ATOM     13  C26 NTO d 869      57.399   3.221   8.445  0.00  0.00     0.092 C 
ATOM     14  O4E NTO d 869      69.508  -1.265  15.024  0.00  0.00    -0.572 OA
ATOM     15  C50 NTO d 869      67.849   4.086  15.126  0.00  0.00     0.095 C 
ATOM     16  C49 NTO d 869      66.979   0.869  13.498  0.00  0.00     0.134 C 
ATOM     17  O2D NTO d 869      61.028   2.762   9.345  0.00  0.00    -0.348 OA
ATOM     18  O1L NTO d 869      56.547   3.611   6.175  0.00  0.00    -0.348 OA
ATOM     19  O19 NTO d 869      55.836   8.760   1.941  0.00  0.00    -0.572 OA
ATOM     20  C46 NTO d 869      66.327   0.526  12.158  0.00  0.00     0.094 C 
ATOM     21  O4A NTO d 869      68.222   0.176  13.632  0.00  0.00    -0.244 OA
ATOM     22  N3G NTO d 869      65.699   1.978   8.025  0.00  0.00    -0.210 NA
ATOM     23  O36 NTO d 869      58.281  -0.704   9.024  0.00  0.00    -0.572 OA
ATOM     24  O57 NTO d 869      71.986   3.351  12.461  0.00  0.00    -0.572 OA
ATOM     25  C40 NTO d 869      64.967   1.216  12.072  0.00  0.00     0.103 C 
ATOM     26  O5I NTO d 869      64.878   8.244  16.503  0.00  0.00    -0.296 OA
ATOM     27  C20 NTO d 869      57.689   3.729   7.034  0.00  0.00     0.103 C 
ATOM     28  C53 NTO d 869      70.203   3.709  14.438  0.00  0.00     0.067 C 
ATOM     29  O3M NTO d 869      64.832   1.753  10.751  0.00  0.00    -0.348 OA
ATOM     30  C43 NTO d 869      63.691   3.217  12.738  0.00  0.00     0.206 C 
ATOM     31  S17 NTO d 869      56.451   8.726   3.309  0.00  0.00     0.251 S 
ATOM     32  O45 NTO d 869      63.627   3.669  11.572  0.00  0.00    -0.646 OA
ATOM     33  O47 NTO d 869      66.146  -0.891  12.068  0.00  0.00    -0.390 OA
ATOM     34  O5K NTO d 869      65.972   8.959  18.579  0.00  0.00    -0.296 OA
ATOM     35  C2C NTO d 869      59.821   2.553   8.593  0.00  0.00     0.160 C 
ATOM     36  O38 NTO d 869      59.562  -2.777   9.216  0.00  0.00    -0.572 OA
ATOM     37  O1J NTO d 869      52.861   0.999   8.827  0.00  0.00    -0.296 OA
ATOM     38  C12 NTO d 869      54.172   4.381   4.035  0.00  0.00     0.089 C 
ATOM     39  S4B NTO d 869      68.125  -0.836  14.639  0.00  0.00     0.252 S 
ATOM     40  O4D NTO d 869      67.358  -2.008  14.102  0.00  0.00    -0.572 OA
ATOM     41  C1E NTO d 869      54.193   3.668   6.435  0.00  0.00     0.081 C 
ATOM     42  C13 NTO d 869      55.400   5.238   4.348  0.00  0.00     0.090 C 
ATOM     43  C29 NTO d 869      58.679   3.310   9.278  0.00  0.00     0.110 C 
ATOM     44  O42 NTO d 869      66.085   3.117  13.090  0.00  0.00    -0.340 OA
ATOM     45  C31 NTO d 869      62.294   0.969  10.323  0.00  0.00     0.091 C 
ATOM     46  C3F NTO d 869      64.424   1.364   8.440  0.00  0.00     0.083 C 
ATOM     47  S5H NTO d 869      66.156   8.220  17.286  0.00  0.00     0.156 S 
ATOM     48  S1G NTO d 869      52.790   2.209   7.944  0.00  0.00     0.156 S 
ATOM     49  O5J NTO d 869      67.240   8.890  16.496  0.00  0.00    -0.296 OA
ATOM     50  C5F NTO d 869      67.349   6.127  16.473  0.00  0.00     0.081 C 
ATOM     51  S3H NTO d 869      66.918   0.895   7.924  0.00  0.00     0.156 S 
ATOM     52  O25 NTO d 869      58.278   2.797   4.141  0.00  0.00    -0.646 OA
ATOM     53  O1C NTO d 869      52.836   2.514   4.799  0.00  0.00    -0.391 OA
ATOM     54  O3A NTO d 869      63.111   3.064   7.304  0.00  0.00    -0.247 OA
ATOM     55  C5L NTO d 869      68.842   6.233  16.791  0.00  0.00     0.149 C 
ATOM     56  C30 NTO d 869      62.029   1.774   9.057  0.00  0.00     0.096 C 
ATOM     57  C23 NTO d 869      59.027   3.292   5.015  0.00  0.00     0.206 C 
ATOM     58  O3E NTO d 869      62.822   5.186   8.395  0.00  0.00    -0.572 OA
ATOM     59  O14 NTO d 869      55.412   5.627   5.731  0.00  0.00    -0.349 OA
ATOM     60  O2A NTO d 869      58.443   2.752  10.571  0.00  0.00    -0.388 OA
ATOM     61  C3L NTO d 869      64.588   0.701   9.807  0.00  0.00     0.150 C 
ATOM     62  C4F NTO d 869      67.208   2.380  13.598  0.00  0.00     0.161 C 
ATOM     63  C15 NTO d 869      55.333   6.515   3.507  0.00  0.00     0.067 C 
ATOM     64  S55 NTO d 869      70.854   4.268  12.103  0.00  0.00     0.251 S 
ATOM     65  O58 NTO d 869      71.401   5.568  11.595  0.00  0.00    -0.572 OA
ATOM     66  C51 NTO d 869      69.301   4.229  15.559  0.00  0.00     0.091 C 
ATOM     67  O56 NTO d 869      70.015   3.625  11.039  0.00  0.00    -0.572 OA
ATOM     68  O3J NTO d 869      67.654   1.086   6.631  0.00  0.00    -0.296 OA
ATOM     69  O44 NTO d 869      62.828   3.444  13.625  0.00  0.00    -0.646 OA
ATOM     70  O10 NTO d 869      54.281   3.892   2.696  0.00  0.00    -0.390 OA
ATOM     71  C59 NTO d 869      66.954   4.672  16.217  0.00  0.00     0.083 C 
ATOM     72  O52 NTO d 869      69.644   5.607  15.776  0.00  0.00    -0.349 OA
ATOM     73  O27 NTO d 869      56.386   4.028   9.055  0.00  0.00    -0.390 OA
ATOM     74  O1A NTO d 869      57.874   9.190   3.236  0.00  0.00    -0.572 OA
ATOM     75  O5A NTO d 869      65.597   4.617  15.765  0.00  0.00    -0.391 OA
ATOM     76  O37 NTO d 869      58.975  -1.502  11.229  0.00  0.00    -0.572 OA
ATOM     77  O24 NTO d 869      59.934   4.124   4.774  0.00  0.00    -0.646 OA
ATOM     78  O1H NTO d 869      51.825   1.969   6.822  0.00  0.00    -0.296 OA
ATOM     79  O22 NTO d 869      60.006   3.006   7.242  0.00  0.00    -0.340 OA
ATOM     80  O3D NTO d 869      63.318   5.058   6.000  0.00  0.00    -0.572 OA
ATOM     81  C33 NTO d 869      61.016   0.218  10.710  0.00  0.00     0.067 C 
ATOM     82  S35 NTO d 869      59.367  -1.403   9.784  0.00  0.00     0.251 S 
ATOM     83  S3B NTO d 869      63.562   4.423   7.336  0.00  0.00     0.252 S 
ATOM     84  O4C NTO d 869      67.426  -0.282  15.845  0.00  0.00    -0.572 OA
ATOM     85  C39 NTO d 869      63.328   2.424   8.567  0.00  0.00     0.108 C 
ATOM     86  O16 NTO d 869      56.423   7.387   3.816  0.00  0.00    -0.254 OA
ATOM     87  O5M NTO d 869      69.132   5.735  18.103  0.00  0.00    -0.364 OA
ATOM     88  O3C NTO d 869      65.031   4.463   7.635  0.00  0.00    -0.572 OA
ATOM     89  C1K NTO d 869      55.481   4.477   6.589  0.00  0.00     0.150 C 
ATOM     90  O32 NTO d 869      63.363   0.028  10.140  0.00  0.00    -0.349 OA
ATOM     91  O34 NTO d 869      60.593  -0.669   9.670  0.00  0.00    -0.254 OA
ATOM     92  H   NTO d 869      67.387   0.978   9.909  0.00  0.00     0.231 HD
ATOM     93  H   NTO d 869      52.968   3.544   9.477  0.00  0.00     0.231 HD
ATOM     94  H   NTO d 869      64.750   1.923  14.078  0.00  0.00     0.104 H 
ATOM     95  H   NTO d 869      54.887   2.509   4.782  0.00  0.00     0.089 H 
ATOM     96  H   NTO d 869      67.120   6.629  18.445  0.00  0.00     0.140 HD
ATOM     97  H   NTO d 869      54.920   2.705   8.090  0.00  0.00     0.140 HD
ATOM     98  H   NTO d 869      65.896  -0.639   8.797  0.00  0.00     0.231 HD
ATOM     99  H   NTO d 869      70.502   6.056  19.598  0.00  0.00     0.066 H 
ATOM    100  H   NTO d 869      70.073   7.470  18.666  0.00  0.00     0.066 H 
ATOM    101  H   NTO d 869      71.115   6.251  17.973  0.00  0.00     0.066 H 
ATOM    102  H   NTO d 869      58.534   1.836   6.491  0.00  0.00     0.104 H 
ATOM    103  H   NTO d 869      57.059   2.208   8.396  0.00  0.00     0.091 H 
ATOM    104  H   NTO d 869      67.717   4.598  14.196  0.00  0.00     0.091 H 
ATOM    105  H   NTO d 869      66.326   0.564  14.289  0.00  0.00     0.097 H 
ATOM    106  H   NTO d 869      66.952   0.858  11.356  0.00  0.00     0.091 H 
ATOM    107  H   NTO d 869      65.953   2.693   8.707  0.00  0.00     0.140 HD
ATOM    108  H   NTO d 869      64.184   0.516  12.275  0.00  0.00     0.092 H 
ATOM    109  H   NTO d 869      64.177   7.811  17.014  0.00  0.00     0.231 HD
ATOM    110  H   NTO d 869      57.957   4.763   7.089  0.00  0.00     0.092 H 
ATOM    111  H   NTO d 869      71.222   3.736  14.764  0.00  0.00     0.080 H 
ATOM    112  H   NTO d 869      69.920   2.705  14.201  0.00  0.00     0.080 H 
ATOM    113  H   NTO d 869      65.579  -1.191  12.796  0.00  0.00     0.210 HD
ATOM    114  H   NTO d 869      65.271   8.532  19.098  0.00  0.00     0.231 HD
ATOM    115  H   NTO d 869      59.578   1.512   8.561  0.00  0.00     0.133 H 
ATOM    116  H   NTO d 869      53.486   1.162   9.550  0.00  0.00     0.231 HD
ATOM    117  H   NTO d 869      53.294   4.981   4.152  0.00  0.00     0.091 H 
ATOM    118  H   NTO d 869      53.339   4.267   6.678  0.00  0.00     0.076 H 
ATOM    119  H   NTO d 869      56.278   4.666   4.130  0.00  0.00     0.090 H 
ATOM    120  H   NTO d 869      58.960   4.338   9.371  0.00  0.00     0.094 H 
ATOM    121  H   NTO d 869      62.583   1.646  11.098  0.00  0.00     0.090 H 
ATOM    122  H   NTO d 869      64.150   0.644   7.697  0.00  0.00     0.076 H 
ATOM    123  H   NTO d 869      67.367   8.419  15.658  0.00  0.00     0.231 HD
ATOM    124  H   NTO d 869      67.148   6.693  15.588  0.00  0.00     0.076 H 
ATOM    125  H   NTO d 869      52.107   3.127   4.986  0.00  0.00     0.210 HD
ATOM    126  H   NTO d 869      69.104   7.270  16.790  0.00  0.00     0.131 H 
ATOM    127  H   NTO d 869      61.674   1.133   8.277  0.00  0.00     0.091 H 
ATOM    128  H   NTO d 869      58.188   1.820  10.480  0.00  0.00     0.210 HD
ATOM    129  H   NTO d 869      65.390  -0.008   9.811  0.00  0.00     0.131 H 
ATOM    130  H   NTO d 869      68.040   2.664  12.987  0.00  0.00     0.133 H 
ATOM    131  H   NTO d 869      54.412   7.021   3.709  0.00  0.00     0.080 H 
ATOM    132  H   NTO d 869      55.392   6.247   2.473  0.00  0.00     0.080 H 
ATOM    133  H   NTO d 869      69.433   3.678  16.467  0.00  0.00     0.090 H 
ATOM    134  H   NTO d 869      68.378   0.443   6.573  0.00  0.00     0.231 HD
ATOM    135  H   NTO d 869      55.081   3.351   2.614  0.00  0.00     0.210 HD
ATOM    136  H   NTO d 869      67.062   4.115  17.124  0.00  0.00     0.089 H 
ATOM    137  H   NTO d 869      56.689   4.948   9.101  0.00  0.00     0.210 HD
ATOM    138  H   NTO d 869      65.509   5.123  14.943  0.00  0.00     0.210 HD
ATOM    139  H   NTO d 869      51.784   2.756   6.256  0.00  0.00     0.231 HD
ATOM    140  H   NTO d 869      60.239   0.929  10.898  0.00  0.00     0.080 H 
ATOM    141  H   NTO d 869      61.221  -0.364  11.584  0.00  0.00     0.080 H 
ATOM    142  H   NTO d 869      63.638   3.162   9.277  0.00  0.00     0.092 H 
ATOM    143  H   NTO d 869      55.631   4.816   7.594  0.00  0.00     0.131 H 
ENDROOT
TORSDOF 46
ENDMDL
MODEL 29
REMARK VINA RESULT:      -7.2      4.153     14.321
REMARK  0 active torsions:
REMARK  status: ('A' for Active; 'I' for Inactive)
REMARK       I    between atoms: O3I_1  and  S3H_51 
REMARK       I    between atoms: O1I_2  and  S1G_48 
REMARK       I    between atoms: O54_3  and  C53_28 
REMARK       I    between atoms: O54_3  and  S55_64 
REMARK       I    between atoms: C41_5  and  C43_30 
REMARK       I    between atoms: C1B_6  and  O1C_53 
REMARK       I    between atoms: O4G_7  and  C4F_62 
REMARK       I    between atoms: O4G_7  and  C50_15 
REMARK       I    between atoms: N5G_8  and  C5F_50 
REMARK       I    between atoms: N5G_8  and  S5H_47 
REMARK       I    between atoms: N1F_9  and  C1E_41 
REMARK       I    between atoms: N1F_9  and  S1G_48 
REMARK       I    between atoms: O3K_10  and  S3H_51 
REMARK       I    between atoms: C5N_11  and  O5M_87 
REMARK       I    between atoms: C21_12  and  C23_57 
REMARK       I    between atoms: C26_13  and  O27_73 
REMARK       I    between atoms: C49_16  and  O4A_21 
REMARK       I    between atoms: O2D_17  and  C2C_35 
REMARK       I    between atoms: O2D_17  and  C30_56 
REMARK       I    between atoms: O1L_18  and  C1K_89 
REMARK       I    between atoms: O1L_18  and  C20_27 
REMARK       I    between atoms: C46_20  and  O47_33 
REMARK       I    between atoms: O4A_21  and  S4B_39 
REMARK       I    between atoms: N3G_22  and  C3F_46 
REMARK       I    between atoms: N3G_22  and  S3H_51 
REMARK       I    between atoms: C40_25  and  O3M_29 
REMARK       I    between atoms: O5I_26  and  S5H_47 
REMARK       I    between atoms: C53_28  and  C51_66 
REMARK       I    between atoms: O3M_29  and  C3L_61 
REMARK       I    between atoms: S17_31  and  O16_86 
REMARK       I    between atoms: O5K_34  and  S5H_47 
REMARK       I    between atoms: O1J_37  and  S1G_48 
REMARK       I    between atoms: C12_38  and  O10_70 
REMARK       I    between atoms: C13_42  and  C15_63 
REMARK       I    between atoms: C29_43  and  O2A_60 
REMARK       I    between atoms: C31_45  and  C33_81 
REMARK       I    between atoms: S5H_47  and  O5J_49 
REMARK       I    between atoms: S1G_48  and  O1H_78 
REMARK       I    between atoms: S3H_51  and  O3J_68 
REMARK       I    between atoms: O3A_54  and  C39_85 
REMARK       I    between atoms: O3A_54  and  S3B_83 
REMARK       I    between atoms: C5L_55  and  O5M_87 
REMARK       I    between atoms: C15_63  and  O16_86 
REMARK       I    between atoms: C59_71  and  O5A_75 
REMARK       I    between atoms: C33_81  and  O34_91 
REMARK       I    between atoms: S35_82  and  O34_91 
ROOT
ATOM      1  O3I NTO d 869      59.677  -1.249   8.906  0.00  0.00    -0.296 OA
ATOM      2  O1I NTO d 869      71.540   8.701  11.460  0.00  0.00    -0.296 OA
ATOM      3  O54 NTO d 869      55.189   1.857   6.825  0.00  0.00    -0.254 OA
ATOM      4  O18 NTO d 869      66.603   9.216  18.229  0.00  0.00    -0.572 OA
ATOM      5  C41 NTO d 869      60.654   3.076   6.263  0.00  0.00     0.152 C 
ATOM      6  C1B NTO d 869      71.023   5.899  14.481  0.00  0.00     0.083 C 
ATOM      7  O4G NTO d 869      57.866   2.745   4.643  0.00  0.00    -0.348 OA
ATOM      8  N5G NTO d 869      56.064   7.242   4.422  0.00  0.00    -0.210 NA
ATOM      9  N1F NTO d 869      70.693   6.381  12.106  0.00  0.00    -0.210 NA
ATOM     10  O3K NTO d 869      61.974  -2.068   9.172  0.00  0.00    -0.296 OA
ATOM     11  C5N NTO d 869      52.865   5.502   3.140  0.00  0.00     0.007 C 
ATOM     12  C21 NTO d 869      66.917   3.762  12.707  0.00  0.00     0.152 C 
ATOM     13  C26 NTO d 869      67.475   5.678  11.270  0.00  0.00     0.092 C 
ATOM     14  O4E NTO d 869      58.184  -1.119   2.465  0.00  0.00    -0.572 OA
ATOM     15  C50 NTO d 869      56.843   3.603   5.168  0.00  0.00     0.095 C 
ATOM     16  C49 NTO d 869      59.553   1.075   5.033  0.00  0.00     0.134 C 
ATOM     17  O2D NTO d 869      64.480   3.779   9.999  0.00  0.00    -0.348 OA
ATOM     18  O1L NTO d 869      68.491   5.390  13.488  0.00  0.00    -0.348 OA
ATOM     19  O19 NTO d 869      67.419   7.486  19.764  0.00  0.00    -0.572 OA
ATOM     20  C46 NTO d 869      60.567   0.583   6.066  0.00  0.00     0.094 C 
ATOM     21  O4A NTO d 869      58.837  -0.032   4.480  0.00  0.00    -0.244 OA
ATOM     22  N3G NTO d 869      61.272   0.076  10.406  0.00  0.00    -0.210 NA
ATOM     23  O36 NTO d 869      68.594   2.694   8.748  0.00  0.00    -0.572 OA
ATOM     24  O57 NTO d 869      54.352  -0.383   6.800  0.00  0.00    -0.572 OA
ATOM     25  C40 NTO d 869      61.372   1.772   6.584  0.00  0.00     0.103 C 
ATOM     26  O5I NTO d 869      56.917   8.779   6.270  0.00  0.00    -0.296 OA
ATOM     27  C20 NTO d 869      67.288   5.237  12.721  0.00  0.00     0.103 C 
ATOM     28  C53 NTO d 869      55.221   1.739   5.402  0.00  0.00     0.067 C 
ATOM     29  O3M NTO d 869      61.505   1.626   8.003  0.00  0.00    -0.348 OA
ATOM     30  C43 NTO d 869      61.278   4.181   7.101  0.00  0.00     0.206 C 
ATOM     31  S17 NTO d 869      66.620   7.746  18.521  0.00  0.00     0.251 S 
ATOM     32  O45 NTO d 869      61.362   4.006   8.338  0.00  0.00    -0.646 OA
ATOM     33  O47 NTO d 869      61.453  -0.357   5.451  0.00  0.00    -0.390 OA
ATOM     34  O5K NTO d 869      55.184   9.625   4.754  0.00  0.00    -0.296 OA
ATOM     35  C2C NTO d 869      65.759   3.951  10.632  0.00  0.00     0.160 C 
ATOM     36  O38 NTO d 869      68.530   0.621   7.454  0.00  0.00    -0.572 OA
ATOM     37  O1J NTO d 869      72.299   6.766  10.163  0.00  0.00    -0.296 OA
ATOM     38  C12 NTO d 869      70.556   6.260  15.893  0.00  0.00     0.089 C 
ATOM     39  S4B NTO d 869      59.206  -0.236   3.113  0.00  0.00     0.252 S 
ATOM     40  O4D NTO d 869      60.557  -0.885   3.048  0.00  0.00    -0.572 OA
ATOM     41  C1E NTO d 869      70.368   6.834  13.464  0.00  0.00     0.081 C 
ATOM     42  C13 NTO d 869      69.029   6.335  15.960  0.00  0.00     0.090 C 
ATOM     43  C29 NTO d 869      66.178   5.418  10.502  0.00  0.00     0.110 C 
ATOM     44  O42 NTO d 869      59.254   2.962   6.571  0.00  0.00    -0.340 OA
ATOM     45  C31 NTO d 869      64.114   2.267   8.168  0.00  0.00     0.091 C 
ATOM     46  C3F NTO d 869      62.554   0.529   9.835  0.00  0.00     0.083 C 
ATOM     47  S5H NTO d 869      55.690   8.418   5.488  0.00  0.00     0.156 S 
ATOM     48  S1G NTO d 869      71.942   7.257  11.535  0.00  0.00     0.156 S 
ATOM     49  O5J NTO d 869      54.621   7.939   6.426  0.00  0.00    -0.296 OA
ATOM     50  C5F NTO d 869      55.931   5.923   5.060  0.00  0.00     0.081 C 
ATOM     51  S3H NTO d 869      60.824  -1.399   9.864  0.00  0.00     0.156 S 
ATOM     52  O25 NTO d 869      67.908   2.948  14.712  0.00  0.00    -0.646 OA
ATOM     53  O1C NTO d 869      72.445   6.021  14.401  0.00  0.00    -0.391 OA
ATOM     54  O3A NTO d 869      63.041   1.929  11.760  0.00  0.00    -0.247 OA
ATOM     55  C5L NTO d 869      54.562   5.327   4.728  0.00  0.00     0.149 C 
ATOM     56  C30 NTO d 869      64.208   2.405   9.681  0.00  0.00     0.096 C 
ATOM     57  C23 NTO d 869      66.839   3.283  14.149  0.00  0.00     0.206 C 
ATOM     58  O3E NTO d 869      61.969   4.075  11.897  0.00  0.00    -0.572 OA
ATOM     59  O14 NTO d 869      68.517   7.229  14.959  0.00  0.00    -0.349 OA
ATOM     60  O2A NTO d 869      66.371   5.740   9.124  0.00  0.00    -0.388 OA
ATOM     61  C3L NTO d 869      62.449   0.591   8.312  0.00  0.00     0.150 C 
ATOM     62  C4F NTO d 869      58.577   2.059   5.684  0.00  0.00     0.161 C 
ATOM     63  C15 NTO d 869      68.626   6.890  17.329  0.00  0.00     0.067 C 
ATOM     64  S55 NTO d 869      54.912   0.719   7.650  0.00  0.00     0.251 S 
ATOM     65  O58 NTO d 869      53.911   1.105   8.696  0.00  0.00    -0.572 OA
ATOM     66  C51 NTO d 869      55.464   3.106   4.759  0.00  0.00     0.091 C 
ATOM     67  O56 NTO d 869      56.172   0.243   8.309  0.00  0.00    -0.572 OA
ATOM     68  O3J NTO d 869      60.399  -2.252  11.022  0.00  0.00    -0.296 OA
ATOM     69  O44 NTO d 869      61.687   5.215   6.511  0.00  0.00    -0.646 OA
ATOM     70  O10 NTO d 869      71.009   5.250  16.798  0.00  0.00    -0.390 OA
ATOM     71  C59 NTO d 869      57.053   4.999   4.584  0.00  0.00     0.083 C 
ATOM     72  O52 NTO d 869      54.433   3.988   5.234  0.00  0.00    -0.349 OA
ATOM     73  O27 NTO d 869      67.778   7.076  11.220  0.00  0.00    -0.390 OA
ATOM     74  O1A NTO d 869      65.215   7.262  18.712  0.00  0.00    -0.572 OA
ATOM     75  O5A NTO d 869      58.312   5.497   5.046  0.00  0.00    -0.391 OA
ATOM     76  O37 NTO d 869      67.930   2.751   6.395  0.00  0.00    -0.572 OA
ATOM     77  O24 NTO d 869      65.716   3.265  14.706  0.00  0.00    -0.646 OA
ATOM     78  O1H NTO d 869      73.117   7.107  12.455  0.00  0.00    -0.296 OA
ATOM     79  O22 NTO d 869      65.675   3.557  12.012  0.00  0.00    -0.340 OA
ATOM     80  O3D NTO d 869      62.149   2.629  13.866  0.00  0.00    -0.572 OA
ATOM     81  C33 NTO d 869      65.473   2.612   7.552  0.00  0.00     0.067 C 
ATOM     82  S35 NTO d 869      67.873   1.952   7.663  0.00  0.00     0.251 S 
ATOM     83  S3B NTO d 869      61.972   2.654  12.377  0.00  0.00     0.252 S 
ATOM     84  O4C NTO d 869      59.243   1.084   2.400  0.00  0.00    -0.572 OA
ATOM     85  C39 NTO d 869      62.905   1.931  10.334  0.00  0.00     0.108 C 
ATOM     86  O16 NTO d 869      67.209   7.048  17.417  0.00  0.00    -0.254 OA
ATOM     87  O5M NTO d 869      54.281   5.412   3.325  0.00  0.00    -0.364 OA
ATOM     88  O3C NTO d 869      60.660   2.015  12.032  0.00  0.00    -0.572 OA
ATOM     89  C1K NTO d 869      68.851   6.770  13.640  0.00  0.00     0.150 C 
ATOM     90  O32 NTO d 869      63.737   0.937   7.778  0.00  0.00    -0.349 OA
ATOM     91  O34 NTO d 869      66.504   1.748   8.039  0.00  0.00    -0.254 OA
ATOM     92  H   NTO d 869      59.952  -0.697   8.157  0.00  0.00     0.231 HD
ATOM     93  H   NTO d 869      70.780   8.794  10.864  0.00  0.00     0.231 HD
ATOM     94  H   NTO d 869      60.752   3.298   5.221  0.00  0.00     0.104 H 
ATOM     95  H   NTO d 869      70.740   4.890  14.262  0.00  0.00     0.089 H 
ATOM     96  H   NTO d 869      55.433   7.296   3.624  0.00  0.00     0.140 HD
ATOM     97  H   NTO d 869      69.882   6.509  11.501  0.00  0.00     0.140 HD
ATOM     98  H   NTO d 869      62.259  -1.525   8.420  0.00  0.00     0.231 HD
ATOM     99  H   NTO d 869      52.645   5.567   2.095  0.00  0.00     0.066 H 
ATOM    100  H   NTO d 869      52.495   6.375   3.636  0.00  0.00     0.066 H 
ATOM    101  H   NTO d 869      52.396   4.632   3.550  0.00  0.00     0.066 H 
ATOM    102  H   NTO d 869      67.659   3.196  12.184  0.00  0.00     0.104 H 
ATOM    103  H   NTO d 869      68.281   5.128  10.832  0.00  0.00     0.091 H 
ATOM    104  H   NTO d 869      56.900   3.614   6.236  0.00  0.00     0.091 H 
ATOM    105  H   NTO d 869      60.077   1.575   4.245  0.00  0.00     0.097 H 
ATOM    106  H   NTO d 869      60.055   0.112   6.879  0.00  0.00     0.091 H 
ATOM    107  H   NTO d 869      60.547   0.749  10.156  0.00  0.00     0.140 HD
ATOM    108  H   NTO d 869      62.334   1.800   6.117  0.00  0.00     0.092 H 
ATOM    109  H   NTO d 869      57.607   9.089   5.664  0.00  0.00     0.231 HD
ATOM    110  H   NTO d 869      66.530   5.845  13.170  0.00  0.00     0.092 H 
ATOM    111  H   NTO d 869      54.286   1.349   5.060  0.00  0.00     0.080 H 
ATOM    112  H   NTO d 869      56.017   1.079   5.126  0.00  0.00     0.080 H 
ATOM    113  H   NTO d 869      61.917   0.071   4.714  0.00  0.00     0.210 HD
ATOM    114  H   NTO d 869      55.869   9.943   4.144  0.00  0.00     0.231 HD
ATOM    115  H   NTO d 869      66.495   3.336  10.159  0.00  0.00     0.133 H 
ATOM    116  H   NTO d 869      71.535   6.867   9.575  0.00  0.00     0.231 HD
ATOM    117  H   NTO d 869      70.959   7.216  16.156  0.00  0.00     0.091 H 
ATOM    118  H   NTO d 869      70.724   7.833  13.615  0.00  0.00     0.076 H 
ATOM    119  H   NTO d 869      68.634   5.354  15.799  0.00  0.00     0.090 H 
ATOM    120  H   NTO d 869      65.404   6.031  10.914  0.00  0.00     0.094 H 
ATOM    121  H   NTO d 869      63.359   2.938   7.814  0.00  0.00     0.090 H 
ATOM    122  H   NTO d 869      63.310  -0.166  10.137  0.00  0.00     0.076 H 
ATOM    123  H   NTO d 869      54.939   7.159   6.906  0.00  0.00     0.231 HD
ATOM    124  H   NTO d 869      56.009   6.031   6.121  0.00  0.00     0.076 H 
ATOM    125  H   NTO d 869      72.702   6.936  14.598  0.00  0.00     0.210 HD
ATOM    126  H   NTO d 869      53.820   5.914   5.227  0.00  0.00     0.131 H 
ATOM    127  H   NTO d 869      65.000   1.795  10.062  0.00  0.00     0.091 H 
ATOM    128  H   NTO d 869      67.074   5.182   8.756  0.00  0.00     0.210 HD
ATOM    129  H   NTO d 869      62.138  -0.345   7.896  0.00  0.00     0.131 H 
ATOM    130  H   NTO d 869      57.875   1.528   6.292  0.00  0.00     0.133 H 
ATOM    131  H   NTO d 869      69.095   7.841  17.474  0.00  0.00     0.080 H 
ATOM    132  H   NTO d 869      68.941   6.200  18.085  0.00  0.00     0.080 H 
ATOM    133  H   NTO d 869      55.431   3.057   3.691  0.00  0.00     0.090 H 
ATOM    134  H   NTO d 869      60.133  -3.127  10.699  0.00  0.00     0.231 HD
ATOM    135  H   NTO d 869      70.632   4.394  16.540  0.00  0.00     0.210 HD
ATOM    136  H   NTO d 869      57.043   4.959   3.515  0.00  0.00     0.089 H 
ATOM    137  H   NTO d 869      67.049   7.579  11.617  0.00  0.00     0.210 HD
ATOM    138  H   NTO d 869      58.311   5.529   6.015  0.00  0.00     0.210 HD
ATOM    139  H   NTO d 869      72.878   7.427  13.340  0.00  0.00     0.231 HD
ATOM    140  H   NTO d 869      65.721   3.623   7.801  0.00  0.00     0.080 H 
ATOM    141  H   NTO d 869      65.403   2.487   6.492  0.00  0.00     0.080 H 
ATOM    142  H   NTO d 869      62.116   2.603  10.066  0.00  0.00     0.092 H 
ATOM    143  H   NTO d 869      68.333   7.382  12.931  0.00  0.00     0.131 H 
ENDROOT
TORSDOF 46
ENDMDL
MODEL 30
REMARK VINA RESULT:      -7.1      4.150      5.356
REMARK  0 active torsions:
REMARK  status: ('A' for Active; 'I' for Inactive)
REMARK       I    between atoms: O3I_1  and  S3H_51 
REMARK       I    between atoms: O1I_2  and  S1G_48 
REMARK       I    between atoms: O54_3  and  C53_28 
REMARK       I    between atoms: O54_3  and  S55_64 
REMARK       I    between atoms: C41_5  and  C43_30 
REMARK       I    between atoms: C1B_6  and  O1C_53 
REMARK       I    between atoms: O4G_7  and  C4F_62 
REMARK       I    between atoms: O4G_7  and  C50_15 
REMARK       I    between atoms: N5G_8  and  C5F_50 
REMARK       I    between atoms: N5G_8  and  S5H_47 
REMARK       I    between atoms: N1F_9  and  C1E_41 
REMARK       I    between atoms: N1F_9  and  S1G_48 
REMARK       I    between atoms: O3K_10  and  S3H_51 
REMARK       I    between atoms: C5N_11  and  O5M_87 
REMARK       I    between atoms: C21_12  and  C23_57 
REMARK       I    between atoms: C26_13  and  O27_73 
REMARK       I    between atoms: C49_16  and  O4A_21 
REMARK       I    between atoms: O2D_17  and  C2C_35 
REMARK       I    between atoms: O2D_17  and  C30_56 
REMARK       I    between atoms: O1L_18  and  C1K_89 
REMARK       I    between atoms: O1L_18  and  C20_27 
REMARK       I    between atoms: C46_20  and  O47_33 
REMARK       I    between atoms: O4A_21  and  S4B_39 
REMARK       I    between atoms: N3G_22  and  C3F_46 
REMARK       I    between atoms: N3G_22  and  S3H_51 
REMARK       I    between atoms: C40_25  and  O3M_29 
REMARK       I    between atoms: O5I_26  and  S5H_47 
REMARK       I    between atoms: C53_28  and  C51_66 
REMARK       I    between atoms: O3M_29  and  C3L_61 
REMARK       I    between atoms: S17_31  and  O16_86 
REMARK       I    between atoms: O5K_34  and  S5H_47 
REMARK       I    between atoms: O1J_37  and  S1G_48 
REMARK       I    between atoms: C12_38  and  O10_70 
REMARK       I    between atoms: C13_42  and  C15_63 
REMARK       I    between atoms: C29_43  and  O2A_60 
REMARK       I    between atoms: C31_45  and  C33_81 
REMARK       I    between atoms: S5H_47  and  O5J_49 
REMARK       I    between atoms: S1G_48  and  O1H_78 
REMARK       I    between atoms: S3H_51  and  O3J_68 
REMARK       I    between atoms: O3A_54  and  C39_85 
REMARK       I    between atoms: O3A_54  and  S3B_83 
REMARK       I    between atoms: C5L_55  and  O5M_87 
REMARK       I    between atoms: C15_63  and  O16_86 
REMARK       I    between atoms: C59_71  and  O5A_75 
REMARK       I    between atoms: C33_81  and  O34_91 
REMARK       I    between atoms: S35_82  and  O34_91 
ROOT
ATOM      1  O3I NTO d 869      64.431   5.487  14.538  0.00  0.00    -0.296 OA
ATOM      2  O1I NTO d 869      63.713  -6.787   4.788  0.00  0.00    -0.296 OA
ATOM      3  O54 NTO d 869      66.829   3.633  19.532  0.00  0.00    -0.254 OA
ATOM      4  O18 NTO d 869      56.965  -7.384   9.743  0.00  0.00    -0.572 OA
ATOM      5  C41 NTO d 869      67.715   1.507  14.397  0.00  0.00     0.152 C 
ATOM      6  C1B NTO d 869      60.296  -4.428   4.767  0.00  0.00     0.083 C 
ATOM      7  O4G NTO d 869      69.192   2.598  17.068  0.00  0.00    -0.348 OA
ATOM      8  N5G NTO d 869      70.031  -1.393  19.692  0.00  0.00    -0.210 NA
ATOM      9  N1F NTO d 869      62.706  -4.474   5.179  0.00  0.00    -0.210 NA
ATOM     10  O3K NTO d 869      64.109   5.809  12.129  0.00  0.00    -0.296 OA
ATOM     11  C5N NTO d 869      70.952   1.091  22.500  0.00  0.00     0.007 C 
ATOM     12  C21 NTO d 869      61.618  -1.314   8.389  0.00  0.00     0.152 C 
ATOM     13  C26 NTO d 869      63.340  -3.060   8.203  0.00  0.00     0.092 C 
ATOM     14  O4E NTO d 869      70.777   6.618  16.018  0.00  0.00    -0.572 OA
ATOM     15  C50 NTO d 869      68.773   1.879  18.237  0.00  0.00     0.095 C 
ATOM     16  C49 NTO d 869      68.603   3.843  15.096  0.00  0.00     0.134 C 
ATOM     17  O2D NTO d 869      64.231  -0.461  10.781  0.00  0.00    -0.348 OA
ATOM     18  O1L NTO d 869      61.132  -3.307   7.155  0.00  0.00    -0.348 OA
ATOM     19  O19 NTO d 869      55.212  -6.091   8.616  0.00  0.00    -0.572 OA
ATOM     20  C46 NTO d 869      67.536   3.973  14.008  0.00  0.00     0.094 C 
ATOM     21  O4A NTO d 869      68.965   5.135  15.588  0.00  0.00    -0.244 OA
ATOM     22  N3G NTO d 869      63.190   3.674  13.227  0.00  0.00    -0.210 NA
ATOM     23  O36 NTO d 869      65.418   0.008   6.533  0.00  0.00    -0.572 OA
ATOM     24  O57 NTO d 869      66.497   5.968  19.928  0.00  0.00    -0.572 OA
ATOM     25  C40 NTO d 869      67.223   2.588  13.445  0.00  0.00     0.103 C 
ATOM     26  O5I NTO d 869      68.457  -3.325  19.150  0.00  0.00    -0.296 OA
ATOM     27  C20 NTO d 869      61.835  -2.817   8.305  0.00  0.00     0.103 C 
ATOM     28  C53 NTO d 869      68.219   3.957  19.475  0.00  0.00     0.067 C 
ATOM     29  O3M NTO d 869      65.802   2.491  13.289  0.00  0.00    -0.348 OA
ATOM     30  C43 NTO d 869      67.069   0.190  13.996  0.00  0.00     0.206 C 
ATOM     31  S17 NTO d 869      56.458  -6.004   9.447  0.00  0.00     0.251 S 
ATOM     32  O45 NTO d 869      65.823   0.157  13.883  0.00  0.00    -0.646 OA
ATOM     33  O47 NTO d 869      68.028   4.811  12.959  0.00  0.00    -0.390 OA
ATOM     34  O5K NTO d 869      70.035  -3.590  21.009  0.00  0.00    -0.296 OA
ATOM     35  C2C NTO d 869      63.666  -0.964   9.559  0.00  0.00     0.160 C 
ATOM     36  O38 NTO d 869      66.386   2.228   6.200  0.00  0.00    -0.572 OA
ATOM     37  O1J NTO d 869      64.727  -4.855   3.672  0.00  0.00    -0.296 OA
ATOM     38  C12 NTO d 869      58.941  -4.905   5.296  0.00  0.00     0.089 C 
ATOM     39  S4B NTO d 869      70.296   5.471  15.184  0.00  0.00     0.252 S 
ATOM     40  O4D NTO d 869      70.300   5.856  13.734  0.00  0.00    -0.572 OA
ATOM     41  C1E NTO d 869      61.422  -5.059   5.586  0.00  0.00     0.081 C 
ATOM     42  C13 NTO d 869      58.844  -4.700   6.810  0.00  0.00     0.090 C 
ATOM     43  C29 NTO d 869      64.025  -2.447   9.426  0.00  0.00     0.110 C 
ATOM     44  O42 NTO d 869      67.355   1.835  15.751  0.00  0.00    -0.340 OA
ATOM     45  C31 NTO d 869      65.807   1.353  10.850  0.00  0.00     0.091 C 
ATOM     46  C3F NTO d 869      63.857   3.081  12.054  0.00  0.00     0.083 C 
ATOM     47  S5H NTO d 869      69.143  -2.625  20.285  0.00  0.00     0.156 S 
ATOM     48  S1G NTO d 869      63.435  -5.473   4.118  0.00  0.00     0.156 S 
ATOM     49  O5J NTO d 869      68.116  -2.102  21.244  0.00  0.00    -0.296 OA
ATOM     50  C5F NTO d 869      69.201  -0.185  19.574  0.00  0.00     0.081 C 
ATOM     51  S3H NTO d 869      63.494   5.272  13.386  0.00  0.00     0.156 S 
ATOM     52  O25 NTO d 869      59.543  -1.014   7.265  0.00  0.00    -0.646 OA
ATOM     53  O1C NTO d 869      60.432  -4.802   3.394  0.00  0.00    -0.391 OA
ATOM     54  O3A NTO d 869      62.176   1.339  11.845  0.00  0.00    -0.247 OA
ATOM     55  C5L NTO d 869      69.403   0.702  20.804  0.00  0.00     0.149 C 
ATOM     56  C30 NTO d 869      64.333   0.972  10.786  0.00  0.00     0.096 C 
ATOM     57  C23 NTO d 869      60.120  -1.053   8.377  0.00  0.00     0.206 C 
ATOM     58  O3E NTO d 869      62.331  -0.564  13.305  0.00  0.00    -0.572 OA
ATOM     59  O14 NTO d 869      59.953  -5.319   7.481  0.00  0.00    -0.349 OA
ATOM     60  O2A NTO d 869      65.440  -2.587   9.295  0.00  0.00    -0.388 OA
ATOM     61  C3L NTO d 869      65.369   3.270  12.166  0.00  0.00     0.150 C 
ATOM     62  C4F NTO d 869      68.080   2.973  16.242  0.00  0.00     0.161 C 
ATOM     63  C15 NTO d 869      57.563  -5.370   7.313  0.00  0.00     0.067 C 
ATOM     64  S55 NTO d 869      65.837   4.664  19.589  0.00  0.00     0.251 S 
ATOM     65  O58 NTO d 869      64.833   4.319  20.646  0.00  0.00    -0.572 OA
ATOM     66  C51 NTO d 869      69.065   2.682  19.496  0.00  0.00     0.091 C 
ATOM     67  O56 NTO d 869      65.149   4.789  18.262  0.00  0.00    -0.572 OA
ATOM     68  O3J NTO d 869      62.210   6.004  13.643  0.00  0.00    -0.296 OA
ATOM     69  O44 NTO d 869      67.817  -0.800  13.790  0.00  0.00    -0.646 OA
ATOM     70  O10 NTO d 869      57.908  -4.147   4.662  0.00  0.00    -0.390 OA
ATOM     71  C59 NTO d 869      69.564   0.573  18.296  0.00  0.00     0.083 C 
ATOM     72  O52 NTO d 869      68.699   1.949  20.676  0.00  0.00    -0.349 OA
ATOM     73  O27 NTO d 869      63.606  -4.465   8.171  0.00  0.00    -0.390 OA
ATOM     74  O1A NTO d 869      56.159  -5.300  10.735  0.00  0.00    -0.572 OA
ATOM     75  O5A NTO d 869      69.216  -0.217  17.154  0.00  0.00    -0.391 OA
ATOM     76  O37 NTO d 869      67.735   0.434   7.193  0.00  0.00    -0.572 OA
ATOM     77  O24 NTO d 869      59.536  -0.908   9.478  0.00  0.00    -0.646 OA
ATOM     78  O1H NTO d 869      62.535  -5.687   2.938  0.00  0.00    -0.296 OA
ATOM     79  O22 NTO d 869      62.242  -0.775   9.569  0.00  0.00    -0.340 OA
ATOM     80  O3D NTO d 869      60.175   0.507  12.857  0.00  0.00    -0.572 OA
ATOM     81  C33 NTO d 869      66.503   0.855   9.580  0.00  0.00     0.067 C 
ATOM     82  S35 NTO d 869      66.360   1.028   7.099  0.00  0.00     0.251 S 
ATOM     83  S3B NTO d 869      61.645   0.743  13.033  0.00  0.00     0.252 S 
ATOM     84  O4C NTO d 869      71.199   4.292  15.397  0.00  0.00    -0.572 OA
ATOM     85  C39 NTO d 869      63.582   1.578  11.977  0.00  0.00     0.108 C 
ATOM     86  O16 NTO d 869      57.461  -5.271   8.735  0.00  0.00    -0.254 OA
ATOM     87  O5M NTO d 869      70.794   0.885  21.093  0.00  0.00    -0.364 OA
ATOM     88  O3C NTO d 869      61.855   1.662  14.199  0.00  0.00    -0.572 OA
ATOM     89  C1K NTO d 869      61.198  -4.737   7.064  0.00  0.00     0.150 C 
ATOM     90  O32 NTO d 869      65.983   2.773  10.966  0.00  0.00    -0.349 OA
ATOM     91  O34 NTO d 869      65.922   1.427   8.404  0.00  0.00    -0.254 OA
ATOM     92  H   NTO d 869      65.261   5.014  14.373  0.00  0.00     0.231 HD
ATOM     93  H   NTO d 869      64.296  -6.644   5.550  0.00  0.00     0.231 HD
ATOM     94  H   NTO d 869      68.781   1.431  14.341  0.00  0.00     0.104 H 
ATOM     95  H   NTO d 869      60.354  -3.363   4.853  0.00  0.00     0.089 H 
ATOM     96  H   NTO d 869      70.812  -1.206  20.321  0.00  0.00     0.140 HD
ATOM     97  H   NTO d 869      63.301  -4.353   5.999  0.00  0.00     0.140 HD
ATOM     98  H   NTO d 869      64.941   5.344  11.951  0.00  0.00     0.231 HD
ATOM     99  H   NTO d 869      71.989   1.229  22.726  0.00  0.00     0.066 H 
ATOM    100  H   NTO d 869      70.582   0.239  23.030  0.00  0.00     0.066 H 
ATOM    101  H   NTO d 869      70.404   1.962  22.796  0.00  0.00     0.066 H 
ATOM    102  H   NTO d 869      62.072  -0.824   7.552  0.00  0.00     0.104 H 
ATOM    103  H   NTO d 869      63.713  -2.611   7.307  0.00  0.00     0.091 H 
ATOM    104  H   NTO d 869      67.720   1.695  18.185  0.00  0.00     0.091 H 
ATOM    105  H   NTO d 869      69.470   3.378  14.675  0.00  0.00     0.097 H 
ATOM    106  H   NTO d 869      66.648   4.403  14.423  0.00  0.00     0.091 H 
ATOM    107  H   NTO d 869      63.518   3.195  14.066  0.00  0.00     0.140 HD
ATOM    108  H   NTO d 869      67.715   2.452  12.505  0.00  0.00     0.092 H 
ATOM    109  H   NTO d 869      69.121  -3.664  18.530  0.00  0.00     0.231 HD
ATOM    110  H   NTO d 869      61.461  -3.332   9.166  0.00  0.00     0.092 H 
ATOM    111  H   NTO d 869      68.474   4.563  20.319  0.00  0.00     0.080 H 
ATOM    112  H   NTO d 869      68.415   4.489  18.568  0.00  0.00     0.080 H 
ATOM    113  H   NTO d 869      68.833   4.420  12.583  0.00  0.00     0.210 HD
ATOM    114  H   NTO d 869      70.704  -3.935  20.396  0.00  0.00     0.231 HD
ATOM    115  H   NTO d 869      64.062  -0.434   8.719  0.00  0.00     0.133 H 
ATOM    116  H   NTO d 869      65.303  -4.720   4.441  0.00  0.00     0.231 HD
ATOM    117  H   NTO d 869      58.835  -5.948   5.083  0.00  0.00     0.091 H 
ATOM    118  H   NTO d 869      61.432  -6.117   5.427  0.00  0.00     0.076 H 
ATOM    119  H   NTO d 869      58.846  -3.649   7.011  0.00  0.00     0.090 H 
ATOM    120  H   NTO d 869      63.688  -2.959  10.303  0.00  0.00     0.094 H 
ATOM    121  H   NTO d 869      66.235   0.897  11.718  0.00  0.00     0.090 H 
ATOM    122  H   NTO d 869      63.475   3.566  11.180  0.00  0.00     0.076 H 
ATOM    123  H   NTO d 869      67.534  -1.477  20.786  0.00  0.00     0.231 HD
ATOM    124  H   NTO d 869      68.170  -0.465  19.519  0.00  0.00     0.076 H 
ATOM    125  H   NTO d 869      60.380  -5.768   3.316  0.00  0.00     0.210 HD
ATOM    126  H   NTO d 869      68.976   0.196  21.645  0.00  0.00     0.131 H 
ATOM    127  H   NTO d 869      63.888   1.358   9.893  0.00  0.00     0.091 H 
ATOM    128  H   NTO d 869      65.740  -2.122   8.499  0.00  0.00     0.210 HD
ATOM    129  H   NTO d 869      65.632   4.300  12.293  0.00  0.00     0.131 H 
ATOM    130  H   NTO d 869      67.380   3.528  16.831  0.00  0.00     0.133 H 
ATOM    131  H   NTO d 869      57.574  -6.403   7.034  0.00  0.00     0.080 H 
ATOM    132  H   NTO d 869      56.722  -4.875   6.874  0.00  0.00     0.080 H 
ATOM    133  H   NTO d 869      70.113   2.898  19.517  0.00  0.00     0.090 H 
ATOM    134  H   NTO d 869      62.391   6.952  13.737  0.00  0.00     0.231 HD
ATOM    135  H   NTO d 869      58.025  -3.206   4.869  0.00  0.00     0.210 HD
ATOM    136  H   NTO d 869      70.615   0.776  18.296  0.00  0.00     0.089 H 
ATOM    137  H   NTO d 869      63.269  -4.877   8.983  0.00  0.00     0.210 HD
ATOM    138  H   NTO d 869      68.263  -0.395  17.163  0.00  0.00     0.210 HD
ATOM    139  H   NTO d 869      61.702  -6.086   3.234  0.00  0.00     0.231 HD
ATOM    140  H   NTO d 869      66.415  -0.209   9.529  0.00  0.00     0.080 H 
ATOM    141  H   NTO d 869      67.531   1.151   9.623  0.00  0.00     0.080 H 
ATOM    142  H   NTO d 869      63.926   1.115  12.878  0.00  0.00     0.092 H 
ATOM    143  H   NTO d 869      61.976  -5.126   7.688  0.00  0.00     0.131 H 
ENDROOT
TORSDOF 46
ENDMDL
MODEL 31
REMARK VINA RESULT:      -7.1      3.463     13.983
REMARK  0 active torsions:
REMARK  status: ('A' for Active; 'I' for Inactive)
REMARK       I    between atoms: O3I_1  and  S3H_51 
REMARK       I    between atoms: O1I_2  and  S1G_48 
REMARK       I    between atoms: O54_3  and  C53_28 
REMARK       I    between atoms: O54_3  and  S55_64 
REMARK       I    between atoms: C41_5  and  C43_30 
REMARK       I    between atoms: C1B_6  and  O1C_53 
REMARK       I    between atoms: O4G_7  and  C4F_62 
REMARK       I    between atoms: O4G_7  and  C50_15 
REMARK       I    between atoms: N5G_8  and  C5F_50 
REMARK       I    between atoms: N5G_8  and  S5H_47 
REMARK       I    between atoms: N1F_9  and  C1E_41 
REMARK       I    between atoms: N1F_9  and  S1G_48 
REMARK       I    between atoms: O3K_10  and  S3H_51 
REMARK       I    between atoms: C5N_11  and  O5M_87 
REMARK       I    between atoms: C21_12  and  C23_57 
REMARK       I    between atoms: C26_13  and  O27_73 
REMARK       I    between atoms: C49_16  and  O4A_21 
REMARK       I    between atoms: O2D_17  and  C2C_35 
REMARK       I    between atoms: O2D_17  and  C30_56 
REMARK       I    between atoms: O1L_18  and  C1K_89 
REMARK       I    between atoms: O1L_18  and  C20_27 
REMARK       I    between atoms: C46_20  and  O47_33 
REMARK       I    between atoms: O4A_21  and  S4B_39 
REMARK       I    between atoms: N3G_22  and  C3F_46 
REMARK       I    between atoms: N3G_22  and  S3H_51 
REMARK       I    between atoms: C40_25  and  O3M_29 
REMARK       I    between atoms: O5I_26  and  S5H_47 
REMARK       I    between atoms: C53_28  and  C51_66 
REMARK       I    between atoms: O3M_29  and  C3L_61 
REMARK       I    between atoms: S17_31  and  O16_86 
REMARK       I    between atoms: O5K_34  and  S5H_47 
REMARK       I    between atoms: O1J_37  and  S1G_48 
REMARK       I    between atoms: C12_38  and  O10_70 
REMARK       I    between atoms: C13_42  and  C15_63 
REMARK       I    between atoms: C29_43  and  O2A_60 
REMARK       I    between atoms: C31_45  and  C33_81 
REMARK       I    between atoms: S5H_47  and  O5J_49 
REMARK       I    between atoms: S1G_48  and  O1H_78 
REMARK       I    between atoms: S3H_51  and  O3J_68 
REMARK       I    between atoms: O3A_54  and  C39_85 
REMARK       I    between atoms: O3A_54  and  S3B_83 
REMARK       I    between atoms: C5L_55  and  O5M_87 
REMARK       I    between atoms: C15_63  and  O16_86 
REMARK       I    between atoms: C59_71  and  O5A_75 
REMARK       I    between atoms: C33_81  and  O34_91 
REMARK       I    between atoms: S35_82  and  O34_91 
ROOT
ATOM      1  O3I NTO d 869      64.684  -0.868   7.470  0.00  0.00    -0.296 OA
ATOM      2  O1I NTO d 869      70.220   0.858  22.050  0.00  0.00    -0.296 OA
ATOM      3  O54 NTO d 869      59.511   1.834   7.217  0.00  0.00    -0.254 OA
ATOM      4  O18 NTO d 869      64.934  -5.655  22.349  0.00  0.00    -0.572 OA
ATOM      5  C41 NTO d 869      63.808   3.132  10.611  0.00  0.00     0.152 C 
ATOM      6  C1B NTO d 869      70.754  -2.955  20.496  0.00  0.00     0.083 C 
ATOM      7  O4G NTO d 869      61.680   4.359   8.496  0.00  0.00    -0.348 OA
ATOM      8  N5G NTO d 869      58.028   5.958  11.258  0.00  0.00    -0.210 NA
ATOM      9  N1F NTO d 869      70.487  -0.584  19.961  0.00  0.00    -0.210 NA
ATOM     10  O3K NTO d 869      67.056  -1.241   7.969  0.00  0.00    -0.296 OA
ATOM     11  C5N NTO d 869      56.158   6.367   7.905  0.00  0.00     0.007 C 
ATOM     12  C21 NTO d 869      68.322  -2.278  16.230  0.00  0.00     0.152 C 
ATOM     13  C26 NTO d 869      68.072  -0.248  17.594  0.00  0.00     0.092 C 
ATOM     14  O4E NTO d 869      63.983   5.129   4.771  0.00  0.00    -0.572 OA
ATOM     15  C50 NTO d 869      60.326   4.087   8.887  0.00  0.00     0.095 C 
ATOM     16  C49 NTO d 869      63.899   3.543   8.051  0.00  0.00     0.134 C 
ATOM     17  O2D NTO d 869      66.455   0.111  14.211  0.00  0.00    -0.348 OA
ATOM     18  O1L NTO d 869      68.868  -2.361  18.560  0.00  0.00    -0.348 OA
ATOM     19  O19 NTO d 869      66.296  -7.624  21.818  0.00  0.00    -0.572 OA
ATOM     20  C46 NTO d 869      64.911   2.474   8.464  0.00  0.00     0.094 C 
ATOM     21  O4A NTO d 869      63.841   3.644   6.627  0.00  0.00    -0.244 OA
ATOM     22  N3G NTO d 869      65.313  -1.727   9.796  0.00  0.00    -0.210 NA
ATOM     23  O36 NTO d 869      70.707   1.193  14.855  0.00  0.00    -0.572 OA
ATOM     24  O57 NTO d 869      59.819   1.050   4.979  0.00  0.00    -0.572 OA
ATOM     25  C40 NTO d 869      65.011   2.440   9.987  0.00  0.00     0.103 C 
ATOM     26  O5I NTO d 869      57.870   4.795  13.522  0.00  0.00    -0.296 OA
ATOM     27  C20 NTO d 869      67.961  -1.771  17.618  0.00  0.00     0.103 C 
ATOM     28  C53 NTO d 869      59.743   3.133   6.672  0.00  0.00     0.067 C 
ATOM     29  O3M NTO d 869      65.049   1.067  10.392  0.00  0.00    -0.348 OA
ATOM     30  C43 NTO d 869      63.755   2.758  12.084  0.00  0.00     0.206 C 
ATOM     31  S17 NTO d 869      65.602  -6.422  21.249  0.00  0.00     0.251 S 
ATOM     32  O45 NTO d 869      63.781   1.542  12.384  0.00  0.00    -0.646 OA
ATOM     33  O47 NTO d 869      66.191   2.795   7.911  0.00  0.00    -0.390 OA
ATOM     34  O5K NTO d 869      56.112   6.389  12.903  0.00  0.00    -0.296 OA
ATOM     35  C2C NTO d 869      67.433  -0.342  15.161  0.00  0.00     0.160 C 
ATOM     36  O38 NTO d 869      71.749   1.709  12.705  0.00  0.00    -0.572 OA
ATOM     37  O1J NTO d 869      71.923   1.477  20.401  0.00  0.00    -0.296 OA
ATOM     38  C12 NTO d 869      70.028  -4.192  21.032  0.00  0.00     0.089 C 
ATOM     39  S4B NTO d 869      64.404   4.884   6.188  0.00  0.00     0.252 S 
ATOM     40  O4D NTO d 869      65.900   4.816   6.273  0.00  0.00    -0.572 OA
ATOM     41  C1E NTO d 869      69.849  -1.729  20.622  0.00  0.00     0.081 C 
ATOM     42  C13 NTO d 869      68.644  -4.331  20.394  0.00  0.00     0.090 C 
ATOM     43  C29 NTO d 869      67.133   0.301  16.518  0.00  0.00     0.110 C 
ATOM     44  O42 NTO d 869      62.597   2.712   9.957  0.00  0.00    -0.340 OA
ATOM     45  C31 NTO d 869      67.027   1.300  12.202  0.00  0.00     0.091 C 
ATOM     46  C3F NTO d 869      66.289  -0.954  10.585  0.00  0.00     0.083 C 
ATOM     47  S5H NTO d 869      57.040   5.327  12.392  0.00  0.00     0.156 S 
ATOM     48  S1G NTO d 869      71.238   0.329  21.082  0.00  0.00     0.156 S 
ATOM     49  O5J NTO d 869      56.226   4.215  11.801  0.00  0.00    -0.296 OA
ATOM     50  C5F NTO d 869      58.457   4.908  10.323  0.00  0.00     0.081 C 
ATOM     51  S3H NTO d 869      65.661  -1.742   8.200  0.00  0.00     0.156 S 
ATOM     52  O25 NTO d 869      69.363  -4.369  16.684  0.00  0.00    -0.646 OA
ATOM     53  O1C NTO d 869      71.955  -2.745  21.241  0.00  0.00    -0.391 OA
ATOM     54  O3A NTO d 869      65.866  -2.260  12.590  0.00  0.00    -0.247 OA
ATOM     55  C5L NTO d 869      57.565   4.928   9.080  0.00  0.00     0.149 C 
ATOM     56  C30 NTO d 869      66.887  -0.070  12.853  0.00  0.00     0.096 C 
ATOM     57  C23 NTO d 869      68.326  -3.799  16.271  0.00  0.00     0.206 C 
ATOM     58  O3E NTO d 869      63.911  -1.738  13.887  0.00  0.00    -0.572 OA
ATOM     59  O14 NTO d 869      67.882  -3.124  20.559  0.00  0.00    -0.349 OA
ATOM     60  O2A NTO d 869      67.297   1.717  16.424  0.00  0.00    -0.388 OA
ATOM     61  C3L NTO d 869      66.327   0.491  10.091  0.00  0.00     0.150 C 
ATOM     62  C4F NTO d 869      62.515   3.198   8.609  0.00  0.00     0.161 C 
ATOM     63  C15 NTO d 869      67.888  -5.458  21.105  0.00  0.00     0.067 C 
ATOM     64  S55 NTO d 869      59.711   0.658   6.423  0.00  0.00     0.251 S 
ATOM     65  O58 NTO d 869      58.542  -0.261   6.609  0.00  0.00    -0.572 OA
ATOM     66  C51 NTO d 869      59.388   4.213   7.697  0.00  0.00     0.091 C 
ATOM     67  O56 NTO d 869      60.971  -0.038   6.843  0.00  0.00    -0.572 OA
ATOM     68  O3J NTO d 869      65.564  -3.146   7.678  0.00  0.00    -0.296 OA
ATOM     69  O44 NTO d 869      63.696   3.686  12.932  0.00  0.00    -0.646 OA
ATOM     70  O10 NTO d 869      70.801  -5.351  20.713  0.00  0.00    -0.390 OA
ATOM     71  C59 NTO d 869      59.923   5.118   9.940  0.00  0.00     0.083 C 
ATOM     72  O52 NTO d 869      58.022   3.995   8.087  0.00  0.00    -0.349 OA
ATOM     73  O27 NTO d 869      67.694   0.289  18.866  0.00  0.00    -0.390 OA
ATOM     74  O1A NTO d 869      64.572  -6.857  20.251  0.00  0.00    -0.572 OA
ATOM     75  O5A NTO d 869      60.751   4.935  11.092  0.00  0.00    -0.391 OA
ATOM     76  O37 NTO d 869      70.341   3.380  13.822  0.00  0.00    -0.572 OA
ATOM     77  O24 NTO d 869      67.288  -4.403  15.908  0.00  0.00    -0.646 OA
ATOM     78  O1H NTO d 869      72.244  -0.508  21.813  0.00  0.00    -0.296 OA
ATOM     79  O22 NTO d 869      67.398  -1.775  15.249  0.00  0.00    -0.340 OA
ATOM     80  O3D NTO d 869      64.537  -4.062  13.429  0.00  0.00    -0.572 OA
ATOM     81  C33 NTO d 869      68.126   2.084  12.926  0.00  0.00     0.067 C 
ATOM     82  S35 NTO d 869      70.531   1.916  13.554  0.00  0.00     0.251 S 
ATOM     83  S3B NTO d 869      64.524  -2.667  12.880  0.00  0.00     0.252 S 
ATOM     84  O4C NTO d 869      63.897   6.000   7.054  0.00  0.00    -0.572 OA
ATOM     85  C39 NTO d 869      65.894  -0.928  12.063  0.00  0.00     0.108 C 
ATOM     86  O16 NTO d 869      66.559  -5.580  20.595  0.00  0.00    -0.254 OA
ATOM     87  O5M NTO d 869      57.426   6.256   8.560  0.00  0.00    -0.364 OA
ATOM     88  O3C NTO d 869      63.704  -2.644  11.625  0.00  0.00    -0.572 OA
ATOM     89  C1K NTO d 869      68.526  -2.016  19.910  0.00  0.00     0.150 C 
ATOM     90  O32 NTO d 869      67.355   1.195  10.808  0.00  0.00    -0.349 OA
ATOM     91  O34 NTO d 869      69.383   1.404  12.863  0.00  0.00    -0.254 OA
ATOM     92  H   NTO d 869      64.747   0.039   7.806  0.00  0.00     0.231 HD
ATOM     93  H   NTO d 869      69.571   1.399  21.574  0.00  0.00     0.231 HD
ATOM     94  H   NTO d 869      63.900   4.193  10.500  0.00  0.00     0.104 H 
ATOM     95  H   NTO d 869      70.997  -3.108  19.465  0.00  0.00     0.089 H 
ATOM     96  H   NTO d 869      57.531   6.685  10.744  0.00  0.00     0.140 HD
ATOM     97  H   NTO d 869      69.778  -0.026  19.485  0.00  0.00     0.140 HD
ATOM     98  H   NTO d 869      67.133  -0.333   8.302  0.00  0.00     0.231 HD
ATOM     99  H   NTO d 869      56.044   7.357   7.513  0.00  0.00     0.066 H 
ATOM    100  H   NTO d 869      55.375   6.170   8.607  0.00  0.00     0.066 H 
ATOM    101  H   NTO d 869      56.107   5.659   7.105  0.00  0.00     0.066 H 
ATOM    102  H   NTO d 869      69.293  -1.927  15.946  0.00  0.00     0.104 H 
ATOM    103  H   NTO d 869      69.082   0.033  17.381  0.00  0.00     0.091 H 
ATOM    104  H   NTO d 869      60.260   3.090   9.272  0.00  0.00     0.091 H 
ATOM    105  H   NTO d 869      64.209   4.486   8.452  0.00  0.00     0.097 H 
ATOM    106  H   NTO d 869      64.595   1.519   8.101  0.00  0.00     0.091 H 
ATOM    107  H   NTO d 869      64.389  -1.314   9.924  0.00  0.00     0.140 HD
ATOM    108  H   NTO d 869      65.893   2.952  10.311  0.00  0.00     0.092 H 
ATOM    109  H   NTO d 869      58.396   5.514  13.904  0.00  0.00     0.231 HD
ATOM    110  H   NTO d 869      66.966  -2.039  17.904  0.00  0.00     0.092 H 
ATOM    111  H   NTO d 869      59.138   3.262   5.799  0.00  0.00     0.080 H 
ATOM    112  H   NTO d 869      60.778   3.224   6.417  0.00  0.00     0.080 H 
ATOM    113  H   NTO d 869      66.477   3.662   8.241  0.00  0.00     0.210 HD
ATOM    114  H   NTO d 869      56.630   7.114  13.288  0.00  0.00     0.231 HD
ATOM    115  H   NTO d 869      68.415  -0.055  14.850  0.00  0.00     0.133 H 
ATOM    116  H   NTO d 869      71.266   2.013  19.931  0.00  0.00     0.231 HD
ATOM    117  H   NTO d 869      69.910  -4.091  22.091  0.00  0.00     0.091 H 
ATOM    118  H   NTO d 869      69.682  -1.512  21.657  0.00  0.00     0.076 H 
ATOM    119  H   NTO d 869      68.769  -4.535  19.352  0.00  0.00     0.090 H 
ATOM    120  H   NTO d 869      66.124   0.069  16.790  0.00  0.00     0.094 H 
ATOM    121  H   NTO d 869      66.088   1.807  12.280  0.00  0.00     0.090 H 
ATOM    122  H   NTO d 869      67.245  -1.421  10.472  0.00  0.00     0.076 H 
ATOM    123  H   NTO d 869      56.817   3.523  11.468  0.00  0.00     0.231 HD
ATOM    124  H   NTO d 869      58.364   3.952  10.794  0.00  0.00     0.076 H 
ATOM    125  H   NTO d 869      71.735  -2.606  22.176  0.00  0.00     0.210 HD
ATOM    126  H   NTO d 869      56.588   4.607   9.373  0.00  0.00     0.131 H 
ATOM    127  H   NTO d 869      67.828  -0.580  12.851  0.00  0.00     0.091 H 
ATOM    128  H   NTO d 869      68.212   1.921  16.179  0.00  0.00     0.210 HD
ATOM    129  H   NTO d 869      66.532   0.547   9.042  0.00  0.00     0.131 H 
ATOM    130  H   NTO d 869      62.081   2.402   8.041  0.00  0.00     0.133 H 
ATOM    131  H   NTO d 869      67.843  -5.243  22.152  0.00  0.00     0.080 H 
ATOM    132  H   NTO d 869      68.407  -6.378  20.935  0.00  0.00     0.080 H 
ATOM    133  H   NTO d 869      59.493   5.198   7.293  0.00  0.00     0.090 H 
ATOM    134  H   NTO d 869      65.770  -3.154   6.731  0.00  0.00     0.231 HD
ATOM    135  H   NTO d 869      70.894  -5.422  19.750  0.00  0.00     0.210 HD
ATOM    136  H   NTO d 869      60.044   6.109   9.553  0.00  0.00     0.089 H 
ATOM    137  H   NTO d 869      66.778   0.037  19.064  0.00  0.00     0.210 HD
ATOM    138  H   NTO d 869      60.633   4.035  11.434  0.00  0.00     0.210 HD
ATOM    139  H   NTO d 869      71.793  -1.248  22.251  0.00  0.00     0.231 HD
ATOM    140  H   NTO d 869      67.848   2.206  13.952  0.00  0.00     0.080 H 
ATOM    141  H   NTO d 869      68.233   3.033  12.444  0.00  0.00     0.080 H 
ATOM    142  H   NTO d 869      64.916  -0.503  12.154  0.00  0.00     0.092 H 
ATOM    143  H   NTO d 869      67.861  -1.179  19.936  0.00  0.00     0.131 H 
ENDROOT
TORSDOF 46
ENDMDL
MODEL 32
REMARK VINA RESULT:      -7.1      3.772     14.381
REMARK  0 active torsions:
REMARK  status: ('A' for Active; 'I' for Inactive)
REMARK       I    between atoms: O3I_1  and  S3H_51 
REMARK       I    between atoms: O1I_2  and  S1G_48 
REMARK       I    between atoms: O54_3  and  C53_28 
REMARK       I    between atoms: O54_3  and  S55_64 
REMARK       I    between atoms: C41_5  and  C43_30 
REMARK       I    between atoms: C1B_6  and  O1C_53 
REMARK       I    between atoms: O4G_7  and  C4F_62 
REMARK       I    between atoms: O4G_7  and  C50_15 
REMARK       I    between atoms: N5G_8  and  C5F_50 
REMARK       I    between atoms: N5G_8  and  S5H_47 
REMARK       I    between atoms: N1F_9  and  C1E_41 
REMARK       I    between atoms: N1F_9  and  S1G_48 
REMARK       I    between atoms: O3K_10  and  S3H_51 
REMARK       I    between atoms: C5N_11  and  O5M_87 
REMARK       I    between atoms: C21_12  and  C23_57 
REMARK       I    between atoms: C26_13  and  O27_73 
REMARK       I    between atoms: C49_16  and  O4A_21 
REMARK       I    between atoms: O2D_17  and  C2C_35 
REMARK       I    between atoms: O2D_17  and  C30_56 
REMARK       I    between atoms: O1L_18  and  C1K_89 
REMARK       I    between atoms: O1L_18  and  C20_27 
REMARK       I    between atoms: C46_20  and  O47_33 
REMARK       I    between atoms: O4A_21  and  S4B_39 
REMARK       I    between atoms: N3G_22  and  C3F_46 
REMARK       I    between atoms: N3G_22  and  S3H_51 
REMARK       I    between atoms: C40_25  and  O3M_29 
REMARK       I    between atoms: O5I_26  and  S5H_47 
REMARK       I    between atoms: C53_28  and  C51_66 
REMARK       I    between atoms: O3M_29  and  C3L_61 
REMARK       I    between atoms: S17_31  and  O16_86 
REMARK       I    between atoms: O5K_34  and  S5H_47 
REMARK       I    between atoms: O1J_37  and  S1G_48 
REMARK       I    between atoms: C12_38  and  O10_70 
REMARK       I    between atoms: C13_42  and  C15_63 
REMARK       I    between atoms: C29_43  and  O2A_60 
REMARK       I    between atoms: C31_45  and  C33_81 
REMARK       I    between atoms: S5H_47  and  O5J_49 
REMARK       I    between atoms: S1G_48  and  O1H_78 
REMARK       I    between atoms: S3H_51  and  O3J_68 
REMARK       I    between atoms: O3A_54  and  C39_85 
REMARK       I    between atoms: O3A_54  and  S3B_83 
REMARK       I    between atoms: C5L_55  and  O5M_87 
REMARK       I    between atoms: C15_63  and  O16_86 
REMARK       I    between atoms: C59_71  and  O5A_75 
REMARK       I    between atoms: C33_81  and  O34_91 
REMARK       I    between atoms: S35_82  and  O34_91 
ROOT
ATOM      1  O3I NTO d 869      58.740   4.354  12.077  0.00  0.00    -0.296 OA
ATOM      2  O1I NTO d 869      73.122  -1.192  15.013  0.00  0.00    -0.296 OA
ATOM      3  O54 NTO d 869      58.979   7.288   7.032  0.00  0.00    -0.254 OA
ATOM      4  O18 NTO d 869      73.120   6.753  17.718  0.00  0.00    -0.572 OA
ATOM      5  C41 NTO d 869      62.254   2.974   8.557  0.00  0.00     0.152 C 
ATOM      6  C1B NTO d 869      71.219   0.383  18.351  0.00  0.00     0.083 C 
ATOM      7  O4G NTO d 869      60.362   4.112   6.184  0.00  0.00    -0.348 OA
ATOM      8  N5G NTO d 869      63.428   6.360   3.175  0.00  0.00    -0.210 NA
ATOM      9  N1F NTO d 869      70.905  -0.657  16.160  0.00  0.00    -0.210 NA
ATOM     10  O3K NTO d 869      59.087   2.548  13.700  0.00  0.00    -0.296 OA
ATOM     11  C5N NTO d 869      60.221   7.711   1.504  0.00  0.00     0.007 C 
ATOM     12  C21 NTO d 869      67.154   2.062  16.066  0.00  0.00     0.152 C 
ATOM     13  C26 NTO d 869      68.699   1.197  14.360  0.00  0.00     0.092 C 
ATOM     14  O4E NTO d 869      56.607   1.738   6.389  0.00  0.00    -0.572 OA
ATOM     15  C50 NTO d 869      60.794   5.404   5.734  0.00  0.00     0.095 C 
ATOM     16  C49 NTO d 869      59.738   2.668   8.005  0.00  0.00     0.134 C 
ATOM     17  O2D NTO d 869      65.444   2.360  12.863  0.00  0.00    -0.348 OA
ATOM     18  O1L NTO d 869      69.439   1.654  16.657  0.00  0.00    -0.348 OA
ATOM     19  O19 NTO d 869      72.354   6.650  20.045  0.00  0.00    -0.572 OA
ATOM     20  C46 NTO d 869      60.006   2.383   9.483  0.00  0.00     0.094 C 
ATOM     21  O4A NTO d 869      58.332   2.658   7.748  0.00  0.00    -0.244 OA
ATOM     22  N3G NTO d 869      60.949   4.288  13.365  0.00  0.00    -0.210 NA
ATOM     23  O36 NTO d 869      65.967  -1.811  14.273  0.00  0.00    -0.572 OA
ATOM     24  O57 NTO d 869      56.669   7.437   7.632  0.00  0.00    -0.572 OA
ATOM     25  C40 NTO d 869      61.514   2.323   9.717  0.00  0.00     0.103 C 
ATOM     26  O5I NTO d 869      65.589   7.124   4.296  0.00  0.00    -0.296 OA
ATOM     27  C20 NTO d 869      68.597   2.103  15.586  0.00  0.00     0.103 C 
ATOM     28  C53 NTO d 869      58.536   6.397   6.007  0.00  0.00     0.067 C 
ATOM     29  O3M NTO d 869      61.797   3.025  10.933  0.00  0.00    -0.348 OA
ATOM     30  C43 NTO d 869      63.690   3.225   8.991  0.00  0.00     0.206 C 
ATOM     31  S17 NTO d 869      71.925   6.593  18.609  0.00  0.00     0.251 S 
ATOM     32  O45 NTO d 869      63.882   3.852  10.057  0.00  0.00    -0.646 OA
ATOM     33  O47 NTO d 869      59.420   1.127   9.838  0.00  0.00    -0.390 OA
ATOM     34  O5K NTO d 869      65.198   7.758   1.959  0.00  0.00    -0.296 OA
ATOM     35  C2C NTO d 869      66.302   1.778  13.858  0.00  0.00     0.160 C 
ATOM     36  O38 NTO d 869      63.820  -2.976  14.179  0.00  0.00    -0.572 OA
ATOM     37  O1J NTO d 869      71.449  -2.969  15.232  0.00  0.00    -0.296 OA
ATOM     38  C12 NTO d 869      71.683   1.659  19.060  0.00  0.00     0.089 C 
ATOM     39  S4B NTO d 869      57.975   1.519   6.959  0.00  0.00     0.252 S 
ATOM     40  O4D NTO d 869      57.979   0.290   7.819  0.00  0.00    -0.572 OA
ATOM     41  C1E NTO d 869      71.496   0.495  16.852  0.00  0.00     0.081 C 
ATOM     42  C13 NTO d 869      71.105   2.901  18.379  0.00  0.00     0.090 C 
ATOM     43  C29 NTO d 869      67.723   1.695  13.292  0.00  0.00     0.110 C 
ATOM     44  O42 NTO d 869      61.628   4.220   8.204  0.00  0.00    -0.340 OA
ATOM     45  C31 NTO d 869      63.519   1.235  11.966  0.00  0.00     0.091 C 
ATOM     46  C3F NTO d 869      61.753   3.054  13.311  0.00  0.00     0.083 C 
ATOM     47  S5H NTO d 869      64.552   7.537   3.295  0.00  0.00     0.156 S 
ATOM     48  S1G NTO d 869      72.062  -1.775  15.902  0.00  0.00     0.156 S 
ATOM     49  O5J NTO d 869      63.909   8.816   3.740  0.00  0.00    -0.296 OA
ATOM     50  C5F NTO d 869      62.386   6.554   4.194  0.00  0.00     0.081 C 
ATOM     51  S3H NTO d 869      59.342   3.996  13.404  0.00  0.00     0.156 S 
ATOM     52  O25 NTO d 869      67.374   2.299  18.424  0.00  0.00    -0.646 OA
ATOM     53  O1C NTO d 869      71.920  -0.742  18.886  0.00  0.00    -0.391 OA
ATOM     54  O3A NTO d 869      63.656   4.116  14.384  0.00  0.00    -0.247 OA
ATOM     55  C5L NTO d 869      61.195   7.292   3.579  0.00  0.00     0.149 C 
ATOM     56  C30 NTO d 869      64.056   2.086  13.110  0.00  0.00     0.096 C 
ATOM     57  C23 NTO d 869      67.064   2.870  17.352  0.00  0.00     0.206 C 
ATOM     58  O3E NTO d 869      65.089   5.497  13.037  0.00  0.00    -0.572 OA
ATOM     59  O14 NTO d 869      71.410   2.903  16.975  0.00  0.00    -0.349 OA
ATOM     60  O2A NTO d 869      67.743   0.801  12.179  0.00  0.00    -0.388 OA
ATOM     61  C3L NTO d 869      61.383   2.249  12.065  0.00  0.00     0.150 C 
ATOM     62  C4F NTO d 869      60.332   4.025   7.616  0.00  0.00     0.161 C 
ATOM     63  C15 NTO d 869      71.752   4.144  18.996  0.00  0.00     0.067 C 
ATOM     64  S55 NTO d 869      58.077   7.743   8.048  0.00  0.00     0.251 S 
ATOM     65  O58 NTO d 869      58.240   9.223   8.220  0.00  0.00    -0.572 OA
ATOM     66  C51 NTO d 869      59.667   6.126   5.012  0.00  0.00     0.091 C 
ATOM     67  O56 NTO d 869      58.372   7.050   9.344  0.00  0.00    -0.572 OA
ATOM     68  O3J NTO d 869      58.707   4.824  14.481  0.00  0.00    -0.296 OA
ATOM     69  O44 NTO d 869      64.617   2.783   8.262  0.00  0.00    -0.646 OA
ATOM     70  O10 NTO d 869      71.226   1.622  20.414  0.00  0.00    -0.390 OA
ATOM     71  C59 NTO d 869      61.950   5.200   4.756  0.00  0.00     0.083 C 
ATOM     72  O52 NTO d 869      60.104   7.399   4.509  0.00  0.00    -0.349 OA
ATOM     73  O27 NTO d 869      70.029   1.236  13.834  0.00  0.00    -0.390 OA
ATOM     74  O1A NTO d 869      70.947   7.692  18.328  0.00  0.00    -0.572 OA
ATOM     75  O5A NTO d 869      63.040   4.602   5.465  0.00  0.00    -0.391 OA
ATOM     76  O37 NTO d 869      65.145  -2.672  12.136  0.00  0.00    -0.572 OA
ATOM     77  O24 NTO d 869      66.702   4.068  17.273  0.00  0.00    -0.646 OA
ATOM     78  O1H NTO d 869      72.667  -2.177  17.214  0.00  0.00    -0.296 OA
ATOM     79  O22 NTO d 869      66.267   2.572  15.055  0.00  0.00    -0.340 OA
ATOM     80  O3D NTO d 869      64.402   6.205  15.279  0.00  0.00    -0.572 OA
ATOM     81  C33 NTO d 869      64.252  -0.110  11.962  0.00  0.00     0.067 C 
ATOM     82  S35 NTO d 869      64.743  -2.053  13.442  0.00  0.00     0.251 S 
ATOM     83  S3B NTO d 869      63.976   5.469  14.044  0.00  0.00     0.252 S 
ATOM     84  O4C NTO d 869      58.957   1.356   5.837  0.00  0.00    -0.572 OA
ATOM     85  C39 NTO d 869      63.245   3.380  13.226  0.00  0.00     0.108 C 
ATOM     86  O16 NTO d 869      71.300   5.332  18.343  0.00  0.00    -0.254 OA
ATOM     87  O5M NTO d 869      60.799   6.700   2.336  0.00  0.00    -0.364 OA
ATOM     88  O3C NTO d 869      62.770   6.146  13.464  0.00  0.00    -0.572 OA
ATOM     89  C1K NTO d 869      70.829   1.765  16.320  0.00  0.00     0.150 C 
ATOM     90  O32 NTO d 869      62.107   1.008  12.090  0.00  0.00    -0.349 OA
ATOM     91  O34 NTO d 869      64.068  -0.812  13.195  0.00  0.00    -0.254 OA
ATOM     92  H   NTO d 869      59.150   3.818  11.380  0.00  0.00     0.231 HD
ATOM     93  H   NTO d 869      72.726  -0.934  14.166  0.00  0.00     0.231 HD
ATOM     94  H   NTO d 869      62.230   2.331   7.703  0.00  0.00     0.104 H 
ATOM     95  H   NTO d 869      70.168   0.255  18.506  0.00  0.00     0.089 H 
ATOM     96  H   NTO d 869      63.004   6.391   2.248  0.00  0.00     0.140 HD
ATOM     97  H   NTO d 869      70.515  -0.357  15.267  0.00  0.00     0.140 HD
ATOM     98  H   NTO d 869      59.493   2.000  13.009  0.00  0.00     0.231 HD
ATOM     99  H   NTO d 869      59.922   7.278   0.572  0.00  0.00     0.066 H 
ATOM    100  H   NTO d 869      60.941   8.481   1.325  0.00  0.00     0.066 H 
ATOM    101  H   NTO d 869      59.366   8.129   1.994  0.00  0.00     0.066 H 
ATOM    102  H   NTO d 869      66.853   1.053  16.258  0.00  0.00     0.104 H 
ATOM    103  H   NTO d 869      68.461   0.192  14.639  0.00  0.00     0.091 H 
ATOM    104  H   NTO d 869      61.094   5.993   6.576  0.00  0.00     0.091 H 
ATOM    105  H   NTO d 869      60.202   1.905   7.416  0.00  0.00     0.097 H 
ATOM    106  H   NTO d 869      59.579   3.159  10.084  0.00  0.00     0.091 H 
ATOM    107  H   NTO d 869      61.158   4.850  12.539  0.00  0.00     0.140 HD
ATOM    108  H   NTO d 869      61.836   1.305   9.786  0.00  0.00     0.092 H 
ATOM    109  H   NTO d 869      66.005   6.296   4.007  0.00  0.00     0.231 HD
ATOM    110  H   NTO d 869      68.908   3.089  15.311  0.00  0.00     0.092 H 
ATOM    111  H   NTO d 869      57.709   6.837   5.490  0.00  0.00     0.080 H 
ATOM    112  H   NTO d 869      58.239   5.472   6.455  0.00  0.00     0.080 H 
ATOM    113  H   NTO d 869      59.809   0.424   9.293  0.00  0.00     0.210 HD
ATOM    114  H   NTO d 869      65.618   6.935   1.662  0.00  0.00     0.231 HD
ATOM    115  H   NTO d 869      65.969   0.793  14.107  0.00  0.00     0.133 H 
ATOM    116  H   NTO d 869      71.061  -2.701  14.385  0.00  0.00     0.231 HD
ATOM    117  H   NTO d 869      72.751   1.709  19.018  0.00  0.00     0.091 H 
ATOM    118  H   NTO d 869      72.552   0.525  16.683  0.00  0.00     0.076 H 
ATOM    119  H   NTO d 869      70.043   2.900  18.514  0.00  0.00     0.090 H 
ATOM    120  H   NTO d 869      68.023   2.673  12.979  0.00  0.00     0.094 H 
ATOM    121  H   NTO d 869      63.687   1.759  11.049  0.00  0.00     0.090 H 
ATOM    122  H   NTO d 869      61.552   2.494  14.200  0.00  0.00     0.076 H 
ATOM    123  H   NTO d 869      63.488   8.684   4.603  0.00  0.00     0.231 HD
ATOM    124  H   NTO d 869      62.777   7.143   4.996  0.00  0.00     0.076 H 
ATOM    125  H   NTO d 869      72.873  -0.626  18.746  0.00  0.00     0.210 HD
ATOM    126  H   NTO d 869      61.508   8.291   3.360  0.00  0.00     0.131 H 
ATOM    127  H   NTO d 869      63.963   1.562  14.038  0.00  0.00     0.091 H 
ATOM    128  H   NTO d 869      67.471  -0.084  12.468  0.00  0.00     0.210 HD
ATOM    129  H   NTO d 869      60.334   2.042  12.023  0.00  0.00     0.131 H 
ATOM    130  H   NTO d 869      59.720   4.815   8.000  0.00  0.00     0.133 H 
ATOM    131  H   NTO d 869      72.815   4.072  18.896  0.00  0.00     0.080 H 
ATOM    132  H   NTO d 869      71.478   4.195  20.029  0.00  0.00     0.080 H 
ATOM    133  H   NTO d 869      59.345   5.510   4.198  0.00  0.00     0.090 H 
ATOM    134  H   NTO d 869      57.753   4.650  14.503  0.00  0.00     0.231 HD
ATOM    135  H   NTO d 869      70.258   1.576  20.427  0.00  0.00     0.210 HD
ATOM    136  H   NTO d 869      61.645   4.567   3.949  0.00  0.00     0.089 H 
ATOM    137  H   NTO d 869      70.250   2.146  13.580  0.00  0.00     0.210 HD
ATOM    138  H   NTO d 869      63.309   5.182   6.194  0.00  0.00     0.210 HD
ATOM    139  H   NTO d 869      73.061  -1.400  17.640  0.00  0.00     0.231 HD
ATOM    140  H   NTO d 869      65.297   0.064  11.814  0.00  0.00     0.080 H 
ATOM    141  H   NTO d 869      63.849  -0.709  11.172  0.00  0.00     0.080 H 
ATOM    142  H   NTO d 869      63.421   3.981  12.358  0.00  0.00     0.092 H 
ATOM    143  H   NTO d 869      70.959   1.881  15.264  0.00  0.00     0.131 H 
ENDROOT
TORSDOF 46
ENDMDL
MODEL 33
REMARK VINA RESULT:      -7.1      4.043     14.162
REMARK  0 active torsions:
REMARK  status: ('A' for Active; 'I' for Inactive)
REMARK       I    between atoms: O3I_1  and  S3H_51 
REMARK       I    between atoms: O1I_2  and  S1G_48 
REMARK       I    between atoms: O54_3  and  C53_28 
REMARK       I    between atoms: O54_3  and  S55_64 
REMARK       I    between atoms: C41_5  and  C43_30 
REMARK       I    between atoms: C1B_6  and  O1C_53 
REMARK       I    between atoms: O4G_7  and  C4F_62 
REMARK       I    between atoms: O4G_7  and  C50_15 
REMARK       I    between atoms: N5G_8  and  C5F_50 
REMARK       I    between atoms: N5G_8  and  S5H_47 
REMARK       I    between atoms: N1F_9  and  C1E_41 
REMARK       I    between atoms: N1F_9  and  S1G_48 
REMARK       I    between atoms: O3K_10  and  S3H_51 
REMARK       I    between atoms: C5N_11  and  O5M_87 
REMARK       I    between atoms: C21_12  and  C23_57 
REMARK       I    between atoms: C26_13  and  O27_73 
REMARK       I    between atoms: C49_16  and  O4A_21 
REMARK       I    between atoms: O2D_17  and  C2C_35 
REMARK       I    between atoms: O2D_17  and  C30_56 
REMARK       I    between atoms: O1L_18  and  C1K_89 
REMARK       I    between atoms: O1L_18  and  C20_27 
REMARK       I    between atoms: C46_20  and  O47_33 
REMARK       I    between atoms: O4A_21  and  S4B_39 
REMARK       I    between atoms: N3G_22  and  C3F_46 
REMARK       I    between atoms: N3G_22  and  S3H_51 
REMARK       I    between atoms: C40_25  and  O3M_29 
REMARK       I    between atoms: O5I_26  and  S5H_47 
REMARK       I    between atoms: C53_28  and  C51_66 
REMARK       I    between atoms: O3M_29  and  C3L_61 
REMARK       I    between atoms: S17_31  and  O16_86 
REMARK       I    between atoms: O5K_34  and  S5H_47 
REMARK       I    between atoms: O1J_37  and  S1G_48 
REMARK       I    between atoms: C12_38  and  O10_70 
REMARK       I    between atoms: C13_42  and  C15_63 
REMARK       I    between atoms: C29_43  and  O2A_60 
REMARK       I    between atoms: C31_45  and  C33_81 
REMARK       I    between atoms: S5H_47  and  O5J_49 
REMARK       I    between atoms: S1G_48  and  O1H_78 
REMARK       I    between atoms: S3H_51  and  O3J_68 
REMARK       I    between atoms: O3A_54  and  C39_85 
REMARK       I    between atoms: O3A_54  and  S3B_83 
REMARK       I    between atoms: C5L_55  and  O5M_87 
REMARK       I    between atoms: C15_63  and  O16_86 
REMARK       I    between atoms: C59_71  and  O5A_75 
REMARK       I    between atoms: C33_81  and  O34_91 
REMARK       I    between atoms: S35_82  and  O34_91 
ROOT
ATOM      1  O3I NTO d 869      56.625  -2.652   7.901  0.00  0.00    -0.296 OA
ATOM      2  O1I NTO d 869      71.996  -1.568  10.867  0.00  0.00    -0.296 OA
ATOM      3  O54 NTO d 869      54.544   2.781   7.378  0.00  0.00    -0.254 OA
ATOM      4  O18 NTO d 869      68.147  -0.552  18.256  0.00  0.00    -0.572 OA
ATOM      5  C41 NTO d 869      59.792   1.081   6.264  0.00  0.00     0.152 C 
ATOM      6  C1B NTO d 869      70.044  -4.427  13.160  0.00  0.00     0.083 C 
ATOM      7  O4G NTO d 869      57.269   2.735   5.078  0.00  0.00    -0.348 OA
ATOM      8  N5G NTO d 869      58.202   7.349   6.244  0.00  0.00    -0.210 NA
ATOM      9  N1F NTO d 869      70.024  -3.179  11.057  0.00  0.00    -0.210 NA
ATOM     10  O3K NTO d 869      58.107  -4.581   7.591  0.00  0.00    -0.296 OA
ATOM     11  C5N NTO d 869      54.569   7.987   5.105  0.00  0.00     0.007 C 
ATOM     12  C21 NTO d 869      65.433  -3.494  11.600  0.00  0.00     0.152 C 
ATOM     13  C26 NTO d 869      66.940  -1.828  10.600  0.00  0.00     0.092 C 
ATOM     14  O4E NTO d 869      55.430   0.098   2.006  0.00  0.00    -0.572 OA
ATOM     15  C50 NTO d 869      56.878   3.805   5.952  0.00  0.00     0.095 C 
ATOM     16  C49 NTO d 869      57.777   0.403   4.778  0.00  0.00     0.134 C 
ATOM     17  O2D NTO d 869      63.392  -1.428   9.401  0.00  0.00    -0.348 OA
ATOM     18  O1L NTO d 869      67.640  -3.231  12.491  0.00  0.00    -0.348 OA
ATOM     19  O19 NTO d 869      67.893  -2.811  19.176  0.00  0.00    -0.572 OA
ATOM     20  C46 NTO d 869      58.362  -0.819   5.485  0.00  0.00     0.094 C 
ATOM     21  O4A NTO d 869      56.573   0.047   4.094  0.00  0.00    -0.244 OA
ATOM     22  N3G NTO d 869      58.686  -2.852   9.403  0.00  0.00    -0.210 NA
ATOM     23  O36 NTO d 869      66.251  -4.076   7.285  0.00  0.00    -0.572 OA
ATOM     24  O57 NTO d 869      52.623   1.425   6.944  0.00  0.00    -0.572 OA
ATOM     25  C40 NTO d 869      59.686  -0.432   6.142  0.00  0.00     0.103 C 
ATOM     26  O5I NTO d 869      59.758   7.605   8.250  0.00  0.00    -0.296 OA
ATOM     27  C20 NTO d 869      66.547  -2.506  11.912  0.00  0.00     0.103 C 
ATOM     28  C53 NTO d 869      54.504   3.082   5.982  0.00  0.00     0.067 C 
ATOM     29  O3M NTO d 869      59.720  -1.031   7.443  0.00  0.00    -0.348 OA
ATOM     30  C43 NTO d 869      60.918   1.402   7.235  0.00  0.00     0.206 C 
ATOM     31  S17 NTO d 869      67.362  -1.826  18.177  0.00  0.00     0.251 S 
ATOM     32  O45 NTO d 869      60.895   0.859   8.363  0.00  0.00    -0.646 OA
ATOM     33  O47 NTO d 869      58.594  -1.856   4.527  0.00  0.00    -0.390 OA
ATOM     34  O5K NTO d 869      58.761   9.625   7.280  0.00  0.00    -0.296 OA
ATOM     35  C2C NTO d 869      64.560  -2.138   9.844  0.00  0.00     0.160 C 
ATOM     36  O38 NTO d 869      65.067  -5.332   5.554  0.00  0.00    -0.572 OA
ATOM     37  O1J NTO d 869      71.578  -3.141   9.036  0.00  0.00    -0.296 OA
ATOM     38  C12 NTO d 869      69.852  -4.304  14.674  0.00  0.00     0.089 C 
ATOM     39  S4B NTO d 869      56.770   0.088   2.678  0.00  0.00     0.252 S 
ATOM     40  O4D NTO d 869      57.550  -1.117   2.243  0.00  0.00    -0.572 OA
ATOM     41  C1E NTO d 869      70.002  -3.040  12.519  0.00  0.00     0.081 C 
ATOM     42  C13 NTO d 869      68.611  -3.470  15.000  0.00  0.00     0.090 C 
ATOM     43  C29 NTO d 869      65.709  -1.139  10.009  0.00  0.00     0.110 C 
ATOM     44  O42 NTO d 869      58.555   1.629   6.755  0.00  0.00    -0.340 OA
ATOM     45  C31 NTO d 869      62.259  -1.920   7.340  0.00  0.00     0.091 C 
ATOM     46  C3F NTO d 869      60.007  -2.989   8.762  0.00  0.00     0.083 C 
ATOM     47  S5H NTO d 869      58.530   8.180   7.610  0.00  0.00     0.156 S 
ATOM     48  S1G NTO d 869      71.548  -2.959  10.525  0.00  0.00     0.156 S 
ATOM     49  O5J NTO d 869      57.375   8.079   8.561  0.00  0.00    -0.296 OA
ATOM     50  C5F NTO d 869      57.375   6.175   6.556  0.00  0.00     0.081 C 
ATOM     51  S3H NTO d 869      57.507  -3.646   8.598  0.00  0.00     0.156 S 
ATOM     52  O25 NTO d 869      65.826  -5.245  13.163  0.00  0.00    -0.646 OA
ATOM     53  O1C NTO d 869      71.304  -5.045  12.887  0.00  0.00    -0.391 OA
ATOM     54  O3A NTO d 869      61.181  -2.676  10.866  0.00  0.00    -0.247 OA
ATOM     55  C5L NTO d 869      55.900   6.503   6.312  0.00  0.00     0.149 C 
ATOM     56  C30 NTO d 869      62.415  -2.297   8.807  0.00  0.00     0.096 C 
ATOM     57  C23 NTO d 869      65.110  -4.256  12.876  0.00  0.00     0.206 C 
ATOM     58  O3E NTO d 869      61.450  -0.434  11.689  0.00  0.00    -0.572 OA
ATOM     59  O14 NTO d 869      68.665  -2.195  14.340  0.00  0.00    -0.349 OA
ATOM     60  O2A NTO d 869      66.044  -0.581   8.737  0.00  0.00    -0.388 OA
ATOM     61  C3L NTO d 869      59.950  -2.443   7.337  0.00  0.00     0.150 C 
ATOM     62  C4F NTO d 869      57.494   1.513   5.795  0.00  0.00     0.161 C 
ATOM     63  C15 NTO d 869      68.577  -3.211  16.509  0.00  0.00     0.067 C 
ATOM     64  S55 NTO d 869      53.694   1.772   7.935  0.00  0.00     0.251 S 
ATOM     65  O58 NTO d 869      53.066   2.299   9.190  0.00  0.00    -0.572 OA
ATOM     66  C51 NTO d 869      55.450   4.241   5.660  0.00  0.00     0.091 C 
ATOM     67  O56 NTO d 869      54.494   0.543   8.250  0.00  0.00    -0.572 OA
ATOM     68  O3J NTO d 869      56.689  -4.447   9.568  0.00  0.00    -0.296 OA
ATOM     69  O44 NTO d 869      61.822   2.191   6.856  0.00  0.00    -0.646 OA
ATOM     70  O10 NTO d 869      69.683  -5.613  15.223  0.00  0.00    -0.390 OA
ATOM     71  C59 NTO d 869      57.812   4.987   5.698  0.00  0.00     0.083 C 
ATOM     72  O52 NTO d 869      55.065   5.348   6.492  0.00  0.00    -0.349 OA
ATOM     73  O27 NTO d 869      67.955  -0.848  10.843  0.00  0.00    -0.390 OA
ATOM     74  O1A NTO d 869      65.920  -1.539  18.466  0.00  0.00    -0.572 OA
ATOM     75  O5A NTO d 869      59.141   4.597   6.060  0.00  0.00    -0.391 OA
ATOM     76  O37 NTO d 869      65.720  -3.001   5.152  0.00  0.00    -0.572 OA
ATOM     77  O24 NTO d 869      64.158  -3.848  13.584  0.00  0.00    -0.646 OA
ATOM     78  O1H NTO d 869      72.454  -3.958  11.181  0.00  0.00    -0.296 OA
ATOM     79  O22 NTO d 869      64.278  -2.811  11.082  0.00  0.00    -0.340 OA
ATOM     80  O3D NTO d 869      60.818  -2.261  13.193  0.00  0.00    -0.572 OA
ATOM     81  C33 NTO d 869      63.586  -2.171   6.618  0.00  0.00     0.067 C 
ATOM     82  S35 NTO d 869      65.241  -3.982   6.181  0.00  0.00     0.251 S 
ATOM     83  S3B NTO d 869      60.680  -1.717  11.803  0.00  0.00     0.252 S 
ATOM     84  O4C NTO d 869      57.517   1.336   2.309  0.00  0.00    -0.572 OA
ATOM     85  C39 NTO d 869      61.066  -2.189   9.524  0.00  0.00     0.108 C 
ATOM     86  O16 NTO d 869      67.474  -2.372  16.857  0.00  0.00    -0.254 OA
ATOM     87  O5M NTO d 869      55.709   7.125   5.035  0.00  0.00    -0.364 OA
ATOM     88  O3C NTO d 869      59.230  -1.448  11.527  0.00  0.00    -0.572 OA
ATOM     89  C1K NTO d 869      68.693  -2.354  12.913  0.00  0.00     0.150 C 
ATOM     90  O32 NTO d 869      61.218  -2.680   6.704  0.00  0.00    -0.349 OA
ATOM     91  O34 NTO d 869      63.982  -3.543   6.709  0.00  0.00    -0.254 OA
ATOM     92  H   NTO d 869      57.154  -2.134   7.274  0.00  0.00     0.231 HD
ATOM     93  H   NTO d 869      71.408  -0.926  10.440  0.00  0.00     0.231 HD
ATOM     94  H   NTO d 869      59.993   1.511   5.305  0.00  0.00     0.104 H 
ATOM     95  H   NTO d 869      69.258  -5.027  12.752  0.00  0.00     0.089 H 
ATOM     96  H   NTO d 869      57.700   7.953   5.594  0.00  0.00     0.140 HD
ATOM     97  H   NTO d 869      69.412  -2.479  10.639  0.00  0.00     0.140 HD
ATOM     98  H   NTO d 869      58.640  -4.075   6.957  0.00  0.00     0.231 HD
ATOM     99  H   NTO d 869      54.418   8.457   4.156  0.00  0.00     0.066 H 
ATOM    100  H   NTO d 869      54.734   8.737   5.851  0.00  0.00     0.066 H 
ATOM    101  H   NTO d 869      53.703   7.414   5.362  0.00  0.00     0.066 H 
ATOM    102  H   NTO d 869      65.747  -4.183  10.843  0.00  0.00     0.104 H 
ATOM    103  H   NTO d 869      67.316  -2.562   9.919  0.00  0.00     0.091 H 
ATOM    104  H   NTO d 869      56.934   3.474   6.967  0.00  0.00     0.091 H 
ATOM    105  H   NTO d 869      58.487   0.761   4.062  0.00  0.00     0.097 H 
ATOM    106  H   NTO d 869      57.678  -1.167   6.231  0.00  0.00     0.091 H 
ATOM    107  H   NTO d 869      58.444  -1.861   9.443  0.00  0.00     0.140 HD
ATOM    108  H   NTO d 869      60.507  -0.775   5.548  0.00  0.00     0.092 H 
ATOM    109  H   NTO d 869      60.504   7.671   7.635  0.00  0.00     0.231 HD
ATOM    110  H   NTO d 869      66.242  -1.754  12.609  0.00  0.00     0.092 H 
ATOM    111  H   NTO d 869      53.506   3.355   5.709  0.00  0.00     0.080 H 
ATOM    112  H   NTO d 869      54.813   2.219   5.431  0.00  0.00     0.080 H 
ATOM    113  H   NTO d 869      59.214  -1.540   3.852  0.00  0.00     0.210 HD
ATOM    114  H   NTO d 869      59.508   9.701   6.664  0.00  0.00     0.231 HD
ATOM    115  H   NTO d 869      64.842  -2.877   9.125  0.00  0.00     0.133 H 
ATOM    116  H   NTO d 869      70.990  -2.492   8.619  0.00  0.00     0.231 HD
ATOM    117  H   NTO d 869      70.710  -3.822  15.093  0.00  0.00     0.091 H 
ATOM    118  H   NTO d 869      70.843  -2.467  12.848  0.00  0.00     0.076 H 
ATOM    119  H   NTO d 869      67.745  -4.006  14.671  0.00  0.00     0.090 H 
ATOM    120  H   NTO d 869      65.394  -0.364  10.675  0.00  0.00     0.094 H 
ATOM    121  H   NTO d 869      61.989  -0.886   7.285  0.00  0.00     0.090 H 
ATOM    122  H   NTO d 869      60.264  -4.028   8.763  0.00  0.00     0.076 H 
ATOM    123  H   NTO d 869      57.217   7.147   8.780  0.00  0.00     0.231 HD
ATOM    124  H   NTO d 869      57.501   5.913   7.586  0.00  0.00     0.076 H 
ATOM    125  H   NTO d 869      72.017  -4.501  13.257  0.00  0.00     0.210 HD
ATOM    126  H   NTO d 869      55.598   7.216   7.051  0.00  0.00     0.131 H 
ATOM    127  H   NTO d 869      62.749  -3.310   8.896  0.00  0.00     0.091 H 
ATOM    128  H   NTO d 869      66.329  -1.289   8.138  0.00  0.00     0.210 HD
ATOM    129  H   NTO d 869      59.179  -2.912   6.761  0.00  0.00     0.131 H 
ATOM    130  H   NTO d 869      56.618   1.275   6.360  0.00  0.00     0.133 H 
ATOM    131  H   NTO d 869      69.488  -2.733  16.803  0.00  0.00     0.080 H 
ATOM    132  H   NTO d 869      68.468  -4.148  17.014  0.00  0.00     0.080 H 
ATOM    133  H   NTO d 869      55.394   4.529   4.631  0.00  0.00     0.090 H 
ATOM    134  H   NTO d 869      55.989  -4.918   9.089  0.00  0.00     0.231 HD
ATOM    135  H   NTO d 869      68.901  -6.030  14.829  0.00  0.00     0.210 HD
ATOM    136  H   NTO d 869      57.780   5.270   4.666  0.00  0.00     0.089 H 
ATOM    137  H   NTO d 869      67.618  -0.180  11.461  0.00  0.00     0.210 HD
ATOM    138  H   NTO d 869      59.160   4.343   6.995  0.00  0.00     0.210 HD
ATOM    139  H   NTO d 869      72.429  -3.834  12.143  0.00  0.00     0.231 HD
ATOM    140  H   NTO d 869      64.344  -1.561   7.061  0.00  0.00     0.080 H 
ATOM    141  H   NTO d 869      63.456  -1.928   5.583  0.00  0.00     0.080 H 
ATOM    142  H   NTO d 869      60.769  -1.162   9.556  0.00  0.00     0.092 H 
ATOM    143  H   NTO d 869      68.590  -1.387  12.465  0.00  0.00     0.131 H 
ENDROOT
TORSDOF 46
ENDMDL
MODEL 34
REMARK VINA RESULT:      -7.0      3.307      4.535
REMARK  0 active torsions:
REMARK  status: ('A' for Active; 'I' for Inactive)
REMARK       I    between atoms: O3I_1  and  S3H_51 
REMARK       I    between atoms: O1I_2  and  S1G_48 
REMARK       I    between atoms: O54_3  and  C53_28 
REMARK       I    between atoms: O54_3  and  S55_64 
REMARK       I    between atoms: C41_5  and  C43_30 
REMARK       I    between atoms: C1B_6  and  O1C_53 
REMARK       I    between atoms: O4G_7  and  C4F_62 
REMARK       I    between atoms: O4G_7  and  C50_15 
REMARK       I    between atoms: N5G_8  and  C5F_50 
REMARK       I    between atoms: N5G_8  and  S5H_47 
REMARK       I    between atoms: N1F_9  and  C1E_41 
REMARK       I    between atoms: N1F_9  and  S1G_48 
REMARK       I    between atoms: O3K_10  and  S3H_51 
REMARK       I    between atoms: C5N_11  and  O5M_87 
REMARK       I    between atoms: C21_12  and  C23_57 
REMARK       I    between atoms: C26_13  and  O27_73 
REMARK       I    between atoms: C49_16  and  O4A_21 
REMARK       I    between atoms: O2D_17  and  C2C_35 
REMARK       I    between atoms: O2D_17  and  C30_56 
REMARK       I    between atoms: O1L_18  and  C1K_89 
REMARK       I    between atoms: O1L_18  and  C20_27 
REMARK       I    between atoms: C46_20  and  O47_33 
REMARK       I    between atoms: O4A_21  and  S4B_39 
REMARK       I    between atoms: N3G_22  and  C3F_46 
REMARK       I    between atoms: N3G_22  and  S3H_51 
REMARK       I    between atoms: C40_25  and  O3M_29 
REMARK       I    between atoms: O5I_26  and  S5H_47 
REMARK       I    between atoms: C53_28  and  C51_66 
REMARK       I    between atoms: O3M_29  and  C3L_61 
REMARK       I    between atoms: S17_31  and  O16_86 
REMARK       I    between atoms: O5K_34  and  S5H_47 
REMARK       I    between atoms: O1J_37  and  S1G_48 
REMARK       I    between atoms: C12_38  and  O10_70 
REMARK       I    between atoms: C13_42  and  C15_63 
REMARK       I    between atoms: C29_43  and  O2A_60 
REMARK       I    between atoms: C31_45  and  C33_81 
REMARK       I    between atoms: S5H_47  and  O5J_49 
REMARK       I    between atoms: S1G_48  and  O1H_78 
REMARK       I    between atoms: S3H_51  and  O3J_68 
REMARK       I    between atoms: O3A_54  and  C39_85 
REMARK       I    between atoms: O3A_54  and  S3B_83 
REMARK       I    between atoms: C5L_55  and  O5M_87 
REMARK       I    between atoms: C15_63  and  O16_86 
REMARK       I    between atoms: C59_71  and  O5A_75 
REMARK       I    between atoms: C33_81  and  O34_91 
REMARK       I    between atoms: S35_82  and  O34_91 
ROOT
ATOM      1  O3I NTO d 869      68.848   2.044   9.729  0.00  0.00    -0.296 OA
ATOM      2  O1I NTO d 869      53.394   0.355   7.595  0.00  0.00    -0.296 OA
ATOM      3  O54 NTO d 869      70.355  -1.204  14.344  0.00  0.00    -0.254 OA
ATOM      4  O18 NTO d 869      54.272   6.221  13.533  0.00  0.00    -0.572 OA
ATOM      5  C41 NTO d 869      66.056  -2.153  10.839  0.00  0.00     0.152 C 
ATOM      6  C1B NTO d 869      54.728   4.263   7.165  0.00  0.00     0.083 C 
ATOM      7  O4G NTO d 869      68.631  -3.523  12.253  0.00  0.00    -0.348 OA
ATOM      8  N5G NTO d 869      66.836  -5.629  16.235  0.00  0.00    -0.210 NA
ATOM      9  N1F NTO d 869      55.342   1.901   7.019  0.00  0.00    -0.210 NA
ATOM     10  O3K NTO d 869      67.795   2.658   7.601  0.00  0.00    -0.296 OA
ATOM     11  C5N NTO d 869      70.542  -6.107  17.207  0.00  0.00     0.007 C 
ATOM     12  C21 NTO d 869      59.457   3.493   8.434  0.00  0.00     0.152 C 
ATOM     13  C26 NTO d 869      58.218   1.394   8.756  0.00  0.00     0.092 C 
ATOM     14  O4E NTO d 869      71.714  -3.879   9.068  0.00  0.00    -0.572 OA
ATOM     15  C50 NTO d 869      68.569  -3.418  13.683  0.00  0.00     0.095 C 
ATOM     16  C49 NTO d 869      68.527  -2.447  10.104  0.00  0.00     0.134 C 
ATOM     17  O2D NTO d 869      61.893   0.995   9.482  0.00  0.00    -0.348 OA
ATOM     18  O1L NTO d 869      57.063   3.542   8.463  0.00  0.00    -0.348 OA
ATOM     19  O19 NTO d 869      54.439   8.350  12.327  0.00  0.00    -0.572 OA
ATOM     20  C46 NTO d 869      67.872  -1.290   9.349  0.00  0.00     0.094 C 
ATOM     21  O4A NTO d 869      69.926  -2.496   9.814  0.00  0.00    -0.244 OA
ATOM     22  N3G NTO d 869      66.428   2.872   9.767  0.00  0.00    -0.210 NA
ATOM     23  O36 NTO d 869      60.272   0.367   5.402  0.00  0.00    -0.572 OA
ATOM     24  O57 NTO d 869      72.446  -0.300  13.615  0.00  0.00    -0.572 OA
ATOM     25  C40 NTO d 869      66.368  -1.307   9.613  0.00  0.00     0.103 C 
ATOM     26  O5I NTO d 869      64.659  -4.582  17.055  0.00  0.00    -0.296 OA
ATOM     27  C20 NTO d 869      58.201   2.894   9.048  0.00  0.00     0.103 C 
ATOM     28  C53 NTO d 869      70.847  -2.446  13.839  0.00  0.00     0.067 C 
ATOM     29  O3M NTO d 869      65.948   0.045   9.833  0.00  0.00    -0.348 OA
ATOM     30  C43 NTO d 869      64.633  -1.847  11.279  0.00  0.00     0.206 C 
ATOM     31  S17 NTO d 869      55.173   7.102  12.721  0.00  0.00     0.251 S 
ATOM     32  O45 NTO d 869      64.320  -0.649  11.467  0.00  0.00    -0.646 OA
ATOM     33  O47 NTO d 869      68.109  -1.444   7.946  0.00  0.00    -0.390 OA
ATOM     34  O5K NTO d 869      65.698  -6.336  18.419  0.00  0.00    -0.296 OA
ATOM     35  C2C NTO d 869      60.731   1.515   8.814  0.00  0.00     0.160 C 
ATOM     36  O38 NTO d 869      62.120   0.059   3.833  0.00  0.00    -0.572 OA
ATOM     37  O1J NTO d 869      54.601  -0.003   5.493  0.00  0.00    -0.296 OA
ATOM     38  C12 NTO d 869      54.362   5.389   8.137  0.00  0.00     0.089 C 
ATOM     39  S4B NTO d 869      70.234  -3.647   9.023  0.00  0.00     0.252 S 
ATOM     40  O4D NTO d 869      69.797  -3.417   7.606  0.00  0.00    -0.572 OA
ATOM     41  C1E NTO d 869      54.836   2.940   7.924  0.00  0.00     0.081 C 
ATOM     42  C13 NTO d 869      55.308   5.399   9.340  0.00  0.00     0.090 C 
ATOM     43  C29 NTO d 869      59.493   0.788   9.346  0.00  0.00     0.110 C 
ATOM     44  O42 NTO d 869      66.973  -1.844  11.903  0.00  0.00    -0.340 OA
ATOM     45  C31 NTO d 869      63.723  -0.040   8.320  0.00  0.00     0.091 C 
ATOM     46  C3F NTO d 869      65.439   2.181   8.919  0.00  0.00     0.083 C 
ATOM     47  S5H NTO d 869      65.960  -5.158  17.528  0.00  0.00     0.156 S 
ATOM     48  S1G NTO d 869      54.086   1.032   6.449  0.00  0.00     0.156 S 
ATOM     49  O5J NTO d 869      66.713  -4.120  18.307  0.00  0.00    -0.296 OA
ATOM     50  C5F NTO d 869      67.629  -4.500  15.726  0.00  0.00     0.081 C 
ATOM     51  S3H NTO d 869      67.895   2.991   9.059  0.00  0.00     0.156 S 
ATOM     52  O25 NTO d 869      58.741   5.667   7.782  0.00  0.00    -0.646 OA
ATOM     53  O1C NTO d 869      53.721   4.158   6.156  0.00  0.00    -0.391 OA
ATOM     54  O3A NTO d 869      63.576   3.350   9.950  0.00  0.00    -0.247 OA
ATOM     55  C5L NTO d 869      69.048  -4.569  16.294  0.00  0.00     0.149 C 
ATOM     56  C30 NTO d 869      63.106   1.278   8.769  0.00  0.00     0.096 C 
ATOM     57  C23 NTO d 869      59.396   5.002   8.619  0.00  0.00     0.206 C 
ATOM     58  O3E NTO d 869      62.786   2.562  12.079  0.00  0.00    -0.572 OA
ATOM     59  O14 NTO d 869      55.345   4.109   9.971  0.00  0.00    -0.349 OA
ATOM     60  O2A NTO d 869      59.564  -0.596   8.999  0.00  0.00    -0.388 OA
ATOM     61  C3L NTO d 869      65.930   0.771   8.596  0.00  0.00     0.150 C 
ATOM     62  C4F NTO d 869      68.309  -2.281  11.610  0.00  0.00     0.161 C 
ATOM     63  C15 NTO d 869      54.782   6.404  10.368  0.00  0.00     0.067 C 
ATOM     64  S55 NTO d 869      71.064   0.017  14.104  0.00  0.00     0.251 S 
ATOM     65  O58 NTO d 869      71.149   0.793  15.383  0.00  0.00    -0.572 OA
ATOM     66  C51 NTO d 869      69.950  -3.599  14.295  0.00  0.00     0.091 C 
ATOM     67  O56 NTO d 869      70.348   0.832  13.068  0.00  0.00    -0.572 OA
ATOM     68  O3J NTO d 869      68.407   4.395   9.197  0.00  0.00    -0.296 OA
ATOM     69  O44 NTO d 869      63.836  -2.810  11.425  0.00  0.00    -0.646 OA
ATOM     70  O10 NTO d 869      54.474   6.639   7.453  0.00  0.00    -0.390 OA
ATOM     71  C59 NTO d 869      67.656  -4.530  14.197  0.00  0.00     0.083 C 
ATOM     72  O52 NTO d 869      69.892  -3.551  15.730  0.00  0.00    -0.349 OA
ATOM     73  O27 NTO d 869      57.079   0.768   9.355  0.00  0.00    -0.390 OA
ATOM     74  O1A NTO d 869      56.380   7.459  13.533  0.00  0.00    -0.572 OA
ATOM     75  O5A NTO d 869      66.338  -4.303  13.690  0.00  0.00    -0.391 OA
ATOM     76  O37 NTO d 869      61.392  -1.803   5.256  0.00  0.00    -0.572 OA
ATOM     77  O24 NTO d 869      59.987   5.501   9.606  0.00  0.00    -0.646 OA
ATOM     78  O1H NTO d 869      53.127   1.946   5.747  0.00  0.00    -0.296 OA
ATOM     79  O22 NTO d 869      60.636   2.931   9.037  0.00  0.00    -0.340 OA
ATOM     80  O3D NTO d 869      63.052   4.958  11.642  0.00  0.00    -0.572 OA
ATOM     81  C33 NTO d 869      62.770  -0.725   7.337  0.00  0.00     0.067 C 
ATOM     82  S35 NTO d 869      61.588  -0.317   5.182  0.00  0.00     0.251 S 
ATOM     83  S3B NTO d 869      63.606   3.593  11.361  0.00  0.00     0.252 S 
ATOM     84  O4C NTO d 869      69.528  -4.846   9.582  0.00  0.00    -0.572 OA
ATOM     85  C39 NTO d 869      64.098   2.052   9.644  0.00  0.00     0.108 C 
ATOM     86  O16 NTO d 869      55.592   6.399  11.546  0.00  0.00    -0.254 OA
ATOM     87  O5M NTO d 869      69.604  -5.882  16.150  0.00  0.00    -0.364 OA
ATOM     88  O3C NTO d 869      65.020   3.529  11.856  0.00  0.00    -0.572 OA
ATOM     89  C1K NTO d 869      55.837   3.107   9.067  0.00  0.00     0.150 C 
ATOM     90  O32 NTO d 869      64.999   0.158   7.690  0.00  0.00    -0.349 OA
ATOM     91  O34 NTO d 869      62.524   0.092   6.188  0.00  0.00    -0.254 OA
ATOM     92  H   NTO d 869      68.518   1.137   9.640  0.00  0.00     0.231 HD
ATOM     93  H   NTO d 869      54.018  -0.236   8.046  0.00  0.00     0.231 HD
ATOM     94  H   NTO d 869      66.157  -3.191  10.599  0.00  0.00     0.104 H 
ATOM     95  H   NTO d 869      55.669   4.484   6.707  0.00  0.00     0.089 H 
ATOM     96  H   NTO d 869      67.463  -6.385  16.509  0.00  0.00     0.140 HD
ATOM     97  H   NTO d 869      55.979   1.287   7.526  0.00  0.00     0.140 HD
ATOM     98  H   NTO d 869      67.465   1.752   7.498  0.00  0.00     0.231 HD
ATOM     99  H   NTO d 869      70.962  -7.086  17.109  0.00  0.00     0.066 H 
ATOM    100  H   NTO d 869      70.043  -6.026  18.150  0.00  0.00     0.066 H 
ATOM    101  H   NTO d 869      71.322  -5.376  17.153  0.00  0.00     0.066 H 
ATOM    102  H   NTO d 869      59.507   3.265   7.389  0.00  0.00     0.104 H 
ATOM    103  H   NTO d 869      58.189   1.237   7.698  0.00  0.00     0.091 H 
ATOM    104  H   NTO d 869      68.198  -2.452  13.954  0.00  0.00     0.091 H 
ATOM    105  H   NTO d 869      68.077  -3.365   9.787  0.00  0.00     0.097 H 
ATOM    106  H   NTO d 869      68.286  -0.361   9.681  0.00  0.00     0.091 H 
ATOM    107  H   NTO d 869      66.528   2.354  10.640  0.00  0.00     0.140 HD
ATOM    108  H   NTO d 869      65.851  -1.730   8.777  0.00  0.00     0.092 H 
ATOM    109  H   NTO d 869      64.173  -5.254  16.552  0.00  0.00     0.231 HD
ATOM    110  H   NTO d 869      58.155   3.037  10.107  0.00  0.00     0.092 H 
ATOM    111  H   NTO d 869      71.840  -2.607  14.204  0.00  0.00     0.080 H 
ATOM    112  H   NTO d 869      70.850  -2.411  12.770  0.00  0.00     0.080 H 
ATOM    113  H   NTO d 869      67.733  -2.286   7.646  0.00  0.00     0.210 HD
ATOM    114  H   NTO d 869      65.211  -7.014  17.924  0.00  0.00     0.231 HD
ATOM    115  H   NTO d 869      60.804   1.352   7.759  0.00  0.00     0.133 H 
ATOM    116  H   NTO d 869      55.220  -0.590   5.955  0.00  0.00     0.231 HD
ATOM    117  H   NTO d 869      53.363   5.233   8.486  0.00  0.00     0.091 H 
ATOM    118  H   NTO d 869      53.873   2.664   8.301  0.00  0.00     0.076 H 
ATOM    119  H   NTO d 869      56.289   5.658   8.999  0.00  0.00     0.090 H 
ATOM    120  H   NTO d 869      59.465   0.895  10.410  0.00  0.00     0.094 H 
ATOM    121  H   NTO d 869      63.877  -0.651   9.185  0.00  0.00     0.090 H 
ATOM    122  H   NTO d 869      65.317   2.756   8.025  0.00  0.00     0.076 H 
ATOM    123  H   NTO d 869      66.887  -3.353  17.740  0.00  0.00     0.231 HD
ATOM    124  H   NTO d 869      67.181  -3.580  16.038  0.00  0.00     0.076 H 
ATOM    125  H   NTO d 869      52.867   3.958   6.570  0.00  0.00     0.210 HD
ATOM    126  H   NTO d 869      68.991  -4.371  17.343  0.00  0.00     0.131 H 
ATOM    127  H   NTO d 869      62.879   1.889   7.920  0.00  0.00     0.091 H 
ATOM    128  H   NTO d 869      59.588  -0.686   8.034  0.00  0.00     0.210 HD
ATOM    129  H   NTO d 869      66.901   0.780   8.147  0.00  0.00     0.131 H 
ATOM    130  H   NTO d 869      68.953  -1.515  11.990  0.00  0.00     0.133 H 
ATOM    131  H   NTO d 869      53.779   6.144  10.632  0.00  0.00     0.080 H 
ATOM    132  H   NTO d 869      54.812   7.383   9.936  0.00  0.00     0.080 H 
ATOM    133  H   NTO d 869      70.330  -4.550  13.983  0.00  0.00     0.090 H 
ATOM    134  H   NTO d 869      69.278   4.464   8.776  0.00  0.00     0.231 HD
ATOM    135  H   NTO d 869      55.386   6.759   7.145  0.00  0.00     0.210 HD
ATOM    136  H   NTO d 869      68.016  -5.484  13.873  0.00  0.00     0.089 H 
ATOM    137  H   NTO d 869      57.101   0.908  10.315  0.00  0.00     0.210 HD
ATOM    138  H   NTO d 869      66.021  -3.436  13.989  0.00  0.00     0.210 HD
ATOM    139  H   NTO d 869      52.799   2.612   6.372  0.00  0.00     0.231 HD
ATOM    140  H   NTO d 869      61.841  -0.919   7.831  0.00  0.00     0.080 H 
ATOM    141  H   NTO d 869      63.225  -1.637   7.009  0.00  0.00     0.080 H 
ATOM    142  H   NTO d 869      64.247   1.517  10.558  0.00  0.00     0.092 H 
ATOM    143  H   NTO d 869      55.981   2.200   9.617  0.00  0.00     0.131 H 
ENDROOT
TORSDOF 46
ENDMDL
MODEL 35
REMARK VINA RESULT:      -7.0      4.087     14.362
REMARK  0 active torsions:
REMARK  status: ('A' for Active; 'I' for Inactive)
REMARK       I    between atoms: O3I_1  and  S3H_51 
REMARK       I    between atoms: O1I_2  and  S1G_48 
REMARK       I    between atoms: O54_3  and  C53_28 
REMARK       I    between atoms: O54_3  and  S55_64 
REMARK       I    between atoms: C41_5  and  C43_30 
REMARK       I    between atoms: C1B_6  and  O1C_53 
REMARK       I    between atoms: O4G_7  and  C4F_62 
REMARK       I    between atoms: O4G_7  and  C50_15 
REMARK       I    between atoms: N5G_8  and  C5F_50 
REMARK       I    between atoms: N5G_8  and  S5H_47 
REMARK       I    between atoms: N1F_9  and  C1E_41 
REMARK       I    between atoms: N1F_9  and  S1G_48 
REMARK       I    between atoms: O3K_10  and  S3H_51 
REMARK       I    between atoms: C5N_11  and  O5M_87 
REMARK       I    between atoms: C21_12  and  C23_57 
REMARK       I    between atoms: C26_13  and  O27_73 
REMARK       I    between atoms: C49_16  and  O4A_21 
REMARK       I    between atoms: O2D_17  and  C2C_35 
REMARK       I    between atoms: O2D_17  and  C30_56 
REMARK       I    between atoms: O1L_18  and  C1K_89 
REMARK       I    between atoms: O1L_18  and  C20_27 
REMARK       I    between atoms: C46_20  and  O47_33 
REMARK       I    between atoms: O4A_21  and  S4B_39 
REMARK       I    between atoms: N3G_22  and  C3F_46 
REMARK       I    between atoms: N3G_22  and  S3H_51 
REMARK       I    between atoms: C40_25  and  O3M_29 
REMARK       I    between atoms: O5I_26  and  S5H_47 
REMARK       I    between atoms: C53_28  and  C51_66 
REMARK       I    between atoms: O3M_29  and  C3L_61 
REMARK       I    between atoms: S17_31  and  O16_86 
REMARK       I    between atoms: O5K_34  and  S5H_47 
REMARK       I    between atoms: O1J_37  and  S1G_48 
REMARK       I    between atoms: C12_38  and  O10_70 
REMARK       I    between atoms: C13_42  and  C15_63 
REMARK       I    between atoms: C29_43  and  O2A_60 
REMARK       I    between atoms: C31_45  and  C33_81 
REMARK       I    between atoms: S5H_47  and  O5J_49 
REMARK       I    between atoms: S1G_48  and  O1H_78 
REMARK       I    between atoms: S3H_51  and  O3J_68 
REMARK       I    between atoms: O3A_54  and  C39_85 
REMARK       I    between atoms: O3A_54  and  S3B_83 
REMARK       I    between atoms: C5L_55  and  O5M_87 
REMARK       I    between atoms: C15_63  and  O16_86 
REMARK       I    between atoms: C59_71  and  O5A_75 
REMARK       I    between atoms: C33_81  and  O34_91 
REMARK       I    between atoms: S35_82  and  O34_91 
ROOT
ATOM      1  O3I NTO d 869      57.746  -0.645  10.126  0.00  0.00    -0.296 OA
ATOM      2  O1I NTO d 869      71.833   6.153   8.878  0.00  0.00    -0.296 OA
ATOM      3  O54 NTO d 869      53.847   2.905   7.613  0.00  0.00    -0.254 OA
ATOM      4  O18 NTO d 869      68.187   9.625  15.593  0.00  0.00    -0.572 OA
ATOM      5  C41 NTO d 869      59.305   2.465   6.313  0.00  0.00     0.152 C 
ATOM      6  C1B NTO d 869      71.125   4.434  12.591  0.00  0.00     0.083 C 
ATOM      7  O4G NTO d 869      56.312   2.482   5.069  0.00  0.00    -0.348 OA
ATOM      8  N5G NTO d 869      55.589   7.090   3.741  0.00  0.00    -0.210 NA
ATOM      9  N1F NTO d 869      70.574   4.375  10.209  0.00  0.00    -0.210 NA
ATOM     10  O3K NTO d 869      59.803  -1.945  10.432  0.00  0.00    -0.296 OA
ATOM     11  C5N NTO d 869      51.922   5.987   3.246  0.00  0.00     0.007 C 
ATOM     12  C21 NTO d 869      66.423   3.077  11.807  0.00  0.00     0.152 C 
ATOM     13  C26 NTO d 869      67.195   4.355   9.854  0.00  0.00     0.092 C 
ATOM     14  O4E NTO d 869      55.405  -1.747   4.039  0.00  0.00    -0.572 OA
ATOM     15  C50 NTO d 869      55.602   3.682   5.411  0.00  0.00     0.095 C 
ATOM     16  C49 NTO d 869      57.603   0.581   5.779  0.00  0.00     0.134 C 
ATOM     17  O2D NTO d 869      63.690   3.053   9.398  0.00  0.00    -0.348 OA
ATOM     18  O1L NTO d 869      68.427   4.376  11.978  0.00  0.00    -0.348 OA
ATOM     19  O19 NTO d 869      68.793   8.184  17.483  0.00  0.00    -0.572 OA
ATOM     20  C46 NTO d 869      58.615   0.115   6.828  0.00  0.00     0.094 C 
ATOM     21  O4A NTO d 869      56.577  -0.401   5.614  0.00  0.00    -0.244 OA
ATOM     22  N3G NTO d 869      59.804   0.546  11.068  0.00  0.00    -0.210 NA
ATOM     23  O36 NTO d 869      67.214   0.648   8.187  0.00  0.00    -0.572 OA
ATOM     24  O57 NTO d 869      52.519   1.032   8.278  0.00  0.00    -0.572 OA
ATOM     25  C40 NTO d 869      59.740   1.143   6.929  0.00  0.00     0.103 C 
ATOM     26  O5I NTO d 869      57.034   8.762   5.015  0.00  0.00    -0.296 OA
ATOM     27  C20 NTO d 869      67.124   4.357  11.380  0.00  0.00     0.103 C 
ATOM     28  C53 NTO d 869      53.644   2.429   6.281  0.00  0.00     0.067 C 
ATOM     29  O3M NTO d 869      60.039   1.327   8.318  0.00  0.00    -0.348 OA
ATOM     30  C43 NTO d 869      60.283   3.542   6.758  0.00  0.00     0.206 C 
ATOM     31  S17 NTO d 869      67.905   8.324  16.282  0.00  0.00     0.251 S 
ATOM     32  O45 NTO d 869      60.502   3.666   7.984  0.00  0.00    -0.646 OA
ATOM     33  O47 NTO d 869      59.159  -1.147   6.432  0.00  0.00    -0.390 OA
ATOM     34  O5K NTO d 869      55.344   9.625   3.461  0.00  0.00    -0.296 OA
ATOM     35  C2C NTO d 869      65.052   3.036   9.857  0.00  0.00     0.160 C 
ATOM     36  O38 NTO d 869      66.483  -1.591   7.532  0.00  0.00    -0.572 OA
ATOM     37  O1J NTO d 869      71.927   3.825   8.119  0.00  0.00    -0.296 OA
ATOM     38  C12 NTO d 869      70.965   5.248  13.878  0.00  0.00     0.089 C 
ATOM     39  S4B NTO d 869      56.687  -1.030   4.334  0.00  0.00     0.252 S 
ATOM     40  O4D NTO d 869      57.826  -2.006   4.349  0.00  0.00    -0.572 OA
ATOM     41  C1E NTO d 869      70.565   5.223  11.408  0.00  0.00     0.081 C 
ATOM     42  C13 NTO d 869      69.523   5.735  14.040  0.00  0.00     0.090 C 
ATOM     43  C29 NTO d 869      65.776   4.260   9.291  0.00  0.00     0.110 C 
ATOM     44  O42 NTO d 869      57.976   2.804   6.748  0.00  0.00    -0.340 OA
ATOM     45  C31 NTO d 869      62.721   1.281   8.095  0.00  0.00     0.091 C 
ATOM     46  C3F NTO d 869      61.059   0.489  10.297  0.00  0.00     0.083 C 
ATOM     47  S5H NTO d 869      55.656   8.552   4.462  0.00  0.00     0.156 S 
ATOM     48  S1G NTO d 869      71.897   4.720   9.322  0.00  0.00     0.156 S 
ATOM     49  O5J NTO d 869      54.654   8.621   5.575  0.00  0.00    -0.296 OA
ATOM     50  C5F NTO d 869      55.247   6.057   4.730  0.00  0.00     0.081 C 
ATOM     51  S3H NTO d 869      58.952  -0.846  10.996  0.00  0.00     0.156 S 
ATOM     52  O25 NTO d 869      67.478   2.561  13.876  0.00  0.00    -0.646 OA
ATOM     53  O1C NTO d 869      72.509   4.155  12.371  0.00  0.00    -0.391 OA
ATOM     54  O3A NTO d 869      62.132   2.148  11.710  0.00  0.00    -0.247 OA
ATOM     55  C5L NTO d 869      53.744   5.777   4.685  0.00  0.00     0.149 C 
ATOM     56  C30 NTO d 869      63.063   1.764   9.498  0.00  0.00     0.096 C 
ATOM     57  C23 NTO d 869      66.446   3.012  13.327  0.00  0.00     0.206 C 
ATOM     58  O3E NTO d 869      61.619   4.464  11.325  0.00  0.00    -0.572 OA
ATOM     59  O14 NTO d 869      69.092   6.451  12.871  0.00  0.00    -0.349 OA
ATOM     60  O2A NTO d 869      65.836   4.165   7.867  0.00  0.00    -0.388 OA
ATOM     61  C3L NTO d 869      60.752   0.192   8.830  0.00  0.00     0.150 C 
ATOM     62  C4F NTO d 869      56.987   1.918   6.203  0.00  0.00     0.161 C 
ATOM     63  C15 NTO d 869      69.462   6.701  15.226  0.00  0.00     0.067 C 
ATOM     64  S55 NTO d 869      53.436   2.124   8.741  0.00  0.00     0.251 S 
ATOM     65  O58 NTO d 869      52.715   3.009   9.712  0.00  0.00    -0.572 OA
ATOM     66  C51 NTO d 869      54.101   3.479   5.265  0.00  0.00     0.091 C 
ATOM     67  O56 NTO d 869      54.634   1.515   9.408  0.00  0.00    -0.572 OA
ATOM     68  O3J NTO d 869      58.514  -1.239  12.375  0.00  0.00    -0.296 OA
ATOM     69  O44 NTO d 869      60.830   4.249   5.873  0.00  0.00    -0.646 OA
ATOM     70  O10 NTO d 869      71.297   4.414  14.991  0.00  0.00    -0.390 OA
ATOM     71  C59 NTO d 869      56.043   4.782   4.446  0.00  0.00     0.083 C 
ATOM     72  O52 NTO d 869      53.383   4.690   5.553  0.00  0.00    -0.349 OA
ATOM     73  O27 NTO d 869      67.803   5.565   9.392  0.00  0.00    -0.390 OA
ATOM     74  O1A NTO d 869      66.469   8.290  16.708  0.00  0.00    -0.572 OA
ATOM     75  O5A NTO d 869      57.437   5.030   4.652  0.00  0.00    -0.391 OA
ATOM     76  O37 NTO d 869      66.246   0.286   5.969  0.00  0.00    -0.572 OA
ATOM     77  O24 NTO d 869      65.442   3.430  13.952  0.00  0.00    -0.646 OA
ATOM     78  O1H NTO d 869      73.125   4.502  10.154  0.00  0.00    -0.296 OA
ATOM     79  O22 NTO d 869      65.079   3.037  11.294  0.00  0.00    -0.340 OA
ATOM     80  O3D NTO d 869      61.742   3.562  13.599  0.00  0.00    -0.572 OA
ATOM     81  C33 NTO d 869      64.019   1.091   7.305  0.00  0.00     0.067 C 
ATOM     82  S35 NTO d 869      66.191  -0.126   7.411  0.00  0.00     0.251 S 
ATOM     83  S3B NTO d 869      61.361   3.259  12.181  0.00  0.00     0.252 S 
ATOM     84  O4C NTO d 869      56.925   0.010   3.280  0.00  0.00    -0.572 OA
ATOM     85  C39 NTO d 869      61.794   1.829  10.355  0.00  0.00     0.108 C 
ATOM     86  O16 NTO d 869      68.149   7.243  15.375  0.00  0.00    -0.254 OA
ATOM     87  O5M NTO d 869      53.291   5.578   3.340  0.00  0.00    -0.364 OA
ATOM     88  O3C NTO d 869      59.901   2.921  12.130  0.00  0.00    -0.572 OA
ATOM     89  C1K NTO d 869      69.116   5.605  11.711  0.00  0.00     0.150 C 
ATOM     90  O32 NTO d 869      61.994   0.043   8.122  0.00  0.00    -0.349 OA
ATOM     91  O34 NTO d 869      64.881   0.137   7.933  0.00  0.00    -0.254 OA
ATOM     92  H   NTO d 869      58.029  -0.391   9.234  0.00  0.00     0.231 HD
ATOM     93  H   NTO d 869      71.038   6.289   8.340  0.00  0.00     0.231 HD
ATOM     94  H   NTO d 869      59.299   2.385   5.246  0.00  0.00     0.104 H 
ATOM     95  H   NTO d 869      70.587   3.514  12.686  0.00  0.00     0.089 H 
ATOM     96  H   NTO d 869      54.878   7.106   3.010  0.00  0.00     0.140 HD
ATOM     97  H   NTO d 869      69.736   4.555   9.657  0.00  0.00     0.140 HD
ATOM     98  H   NTO d 869      60.094  -1.703   9.538  0.00  0.00     0.231 HD
ATOM     99  H   NTO d 869      51.574   5.843   2.245  0.00  0.00     0.066 H 
ATOM    100  H   NTO d 869      51.841   7.022   3.506  0.00  0.00     0.066 H 
ATOM    101  H   NTO d 869      51.329   5.403   3.918  0.00  0.00     0.066 H 
ATOM    102  H   NTO d 869      66.930   2.223  11.407  0.00  0.00     0.104 H 
ATOM    103  H   NTO d 869      67.779   3.521   9.526  0.00  0.00     0.091 H 
ATOM    104  H   NTO d 869      55.815   3.945   6.426  0.00  0.00     0.091 H 
ATOM    105  H   NTO d 869      58.109   0.712   4.845  0.00  0.00     0.097 H 
ATOM    106  H   NTO d 869      58.131   0.015   7.776  0.00  0.00     0.091 H 
ATOM    107  H   NTO d 869      59.227   1.302  10.697  0.00  0.00     0.140 HD
ATOM    108  H   NTO d 869      60.603   0.798   6.400  0.00  0.00     0.092 H 
ATOM    109  H   NTO d 869      57.681   8.718   4.295  0.00  0.00     0.231 HD
ATOM    110  H   NTO d 869      66.601   5.235  11.698  0.00  0.00     0.092 H 
ATOM    111  H   NTO d 869      52.604   2.226   6.134  0.00  0.00     0.080 H 
ATOM    112  H   NTO d 869      54.217   1.537   6.140  0.00  0.00     0.080 H 
ATOM    113  H   NTO d 869      59.598  -1.055   5.572  0.00  0.00     0.210 HD
ATOM    114  H   NTO d 869      55.988   9.589   2.736  0.00  0.00     0.231 HD
ATOM    115  H   NTO d 869      65.548   2.151   9.519  0.00  0.00     0.133 H 
ATOM    116  H   NTO d 869      71.130   3.972   7.586  0.00  0.00     0.231 HD
ATOM    117  H   NTO d 869      71.612   6.098  13.832  0.00  0.00     0.091 H 
ATOM    118  H   NTO d 869      71.160   6.098  11.246  0.00  0.00     0.076 H 
ATOM    119  H   NTO d 869      68.892   4.884  14.190  0.00  0.00     0.090 H 
ATOM    120  H   NTO d 869      65.233   5.138   9.573  0.00  0.00     0.094 H 
ATOM    121  H   NTO d 869      62.099   2.016   7.628  0.00  0.00     0.090 H 
ATOM    122  H   NTO d 869      61.669  -0.281  10.722  0.00  0.00     0.076 H 
ATOM    123  H   NTO d 869      54.847   7.931   6.228  0.00  0.00     0.231 HD
ATOM    124  H   NTO d 869      55.501   6.403   5.710  0.00  0.00     0.076 H 
ATOM    125  H   NTO d 869      72.997   4.990  12.285  0.00  0.00     0.210 HD
ATOM    126  H   NTO d 869      53.239   6.644   5.056  0.00  0.00     0.131 H 
ATOM    127  H   NTO d 869      63.739   1.083   9.972  0.00  0.00     0.091 H 
ATOM    128  H   NTO d 869      66.330   3.368   7.617  0.00  0.00     0.210 HD
ATOM    129  H   NTO d 869      60.175  -0.702   8.716  0.00  0.00     0.131 H 
ATOM    130  H   NTO d 869      56.277   1.760   6.987  0.00  0.00     0.133 H 
ATOM    131  H   NTO d 869      70.155   7.500  15.063  0.00  0.00     0.080 H 
ATOM    132  H   NTO d 869      69.715   6.165  16.117  0.00  0.00     0.080 H 
ATOM    133  H   NTO d 869      53.904   3.174   4.259  0.00  0.00     0.090 H 
ATOM    134  H   NTO d 869      58.008  -2.066  12.331  0.00  0.00     0.231 HD
ATOM    135  H   NTO d 869      70.699   3.651  15.013  0.00  0.00     0.210 HD
ATOM    136  H   NTO d 869      55.869   4.478   3.435  0.00  0.00     0.089 H 
ATOM    137  H   NTO d 869      67.277   6.325   9.687  0.00  0.00     0.210 HD
ATOM    138  H   NTO d 869      57.584   5.304   5.570  0.00  0.00     0.210 HD
ATOM    139  H   NTO d 869      73.098   5.085  10.930  0.00  0.00     0.231 HD
ATOM    140  H   NTO d 869      64.528   2.030   7.242  0.00  0.00     0.080 H 
ATOM    141  H   NTO d 869      63.769   0.727   6.331  0.00  0.00     0.080 H 
ATOM    142  H   NTO d 869      61.153   2.595   9.972  0.00  0.00     0.092 H 
ATOM    143  H   NTO d 869      68.656   6.133  10.901  0.00  0.00     0.131 H 
ENDROOT
TORSDOF 46
ENDMDL
MODEL 36
REMARK VINA RESULT:      -6.8      3.781     14.249
REMARK  0 active torsions:
REMARK  status: ('A' for Active; 'I' for Inactive)
REMARK       I    between atoms: O3I_1  and  S3H_51 
REMARK       I    between atoms: O1I_2  and  S1G_48 
REMARK       I    between atoms: O54_3  and  C53_28 
REMARK       I    between atoms: O54_3  and  S55_64 
REMARK       I    between atoms: C41_5  and  C43_30 
REMARK       I    between atoms: C1B_6  and  O1C_53 
REMARK       I    between atoms: O4G_7  and  C4F_62 
REMARK       I    between atoms: O4G_7  and  C50_15 
REMARK       I    between atoms: N5G_8  and  C5F_50 
REMARK       I    between atoms: N5G_8  and  S5H_47 
REMARK       I    between atoms: N1F_9  and  C1E_41 
REMARK       I    between atoms: N1F_9  and  S1G_48 
REMARK       I    between atoms: O3K_10  and  S3H_51 
REMARK       I    between atoms: C5N_11  and  O5M_87 
REMARK       I    between atoms: C21_12  and  C23_57 
REMARK       I    between atoms: C26_13  and  O27_73 
REMARK       I    between atoms: C49_16  and  O4A_21 
REMARK       I    between atoms: O2D_17  and  C2C_35 
REMARK       I    between atoms: O2D_17  and  C30_56 
REMARK       I    between atoms: O1L_18  and  C1K_89 
REMARK       I    between atoms: O1L_18  and  C20_27 
REMARK       I    between atoms: C46_20  and  O47_33 
REMARK       I    between atoms: O4A_21  and  S4B_39 
REMARK       I    between atoms: N3G_22  and  C3F_46 
REMARK       I    between atoms: N3G_22  and  S3H_51 
REMARK       I    between atoms: C40_25  and  O3M_29 
REMARK       I    between atoms: O5I_26  and  S5H_47 
REMARK       I    between atoms: C53_28  and  C51_66 
REMARK       I    between atoms: O3M_29  and  C3L_61 
REMARK       I    between atoms: S17_31  and  O16_86 
REMARK       I    between atoms: O5K_34  and  S5H_47 
REMARK       I    between atoms: O1J_37  and  S1G_48 
REMARK       I    between atoms: C12_38  and  O10_70 
REMARK       I    between atoms: C13_42  and  C15_63 
REMARK       I    between atoms: C29_43  and  O2A_60 
REMARK       I    between atoms: C31_45  and  C33_81 
REMARK       I    between atoms: S5H_47  and  O5J_49 
REMARK       I    between atoms: S1G_48  and  O1H_78 
REMARK       I    between atoms: S3H_51  and  O3J_68 
REMARK       I    between atoms: O3A_54  and  C39_85 
REMARK       I    between atoms: O3A_54  and  S3B_83 
REMARK       I    between atoms: C5L_55  and  O5M_87 
REMARK       I    between atoms: C15_63  and  O16_86 
REMARK       I    between atoms: C59_71  and  O5A_75 
REMARK       I    between atoms: C33_81  and  O34_91 
REMARK       I    between atoms: S35_82  and  O34_91 
ROOT
ATOM      1  O3I NTO d 869      59.989   0.427   4.650  0.00  0.00    -0.296 OA
ATOM      2  O1I NTO d 869      70.890   7.166  13.704  0.00  0.00    -0.296 OA
ATOM      3  O54 NTO d 869      54.760   1.900   6.795  0.00  0.00    -0.254 OA
ATOM      4  O18 NTO d 869      68.669   0.098  17.648  0.00  0.00    -0.572 OA
ATOM      5  C41 NTO d 869      59.508   4.894   7.190  0.00  0.00     0.152 C 
ATOM      6  C1B NTO d 869      71.777   3.249  12.648  0.00  0.00     0.083 C 
ATOM      7  O4G NTO d 869      56.376   5.051   6.372  0.00  0.00    -0.348 OA
ATOM      8  N5G NTO d 869      54.161   6.616  10.392  0.00  0.00    -0.210 NA
ATOM      9  N1F NTO d 869      70.573   5.281  12.012  0.00  0.00    -0.210 NA
ATOM     10  O3K NTO d 869      62.301   0.673   3.867  0.00  0.00    -0.296 OA
ATOM     11  C5N NTO d 869      50.912   5.709   8.514  0.00  0.00     0.007 C 
ATOM     12  C21 NTO d 869      67.552   2.234  10.264  0.00  0.00     0.152 C 
ATOM     13  C26 NTO d 869      67.360   4.474  11.258  0.00  0.00     0.092 C 
ATOM     14  O4E NTO d 869      56.292   5.187   1.928  0.00  0.00    -0.572 OA
ATOM     15  C50 NTO d 869      55.524   4.641   7.452  0.00  0.00     0.095 C 
ATOM     16  C49 NTO d 869      58.253   4.588   4.941  0.00  0.00     0.134 C 
ATOM     17  O2D NTO d 869      64.321   3.561   9.227  0.00  0.00    -0.348 OA
ATOM     18  O1L NTO d 869      69.124   2.907  11.940  0.00  0.00    -0.348 OA
ATOM     19  O19 NTO d 869      70.152  -1.640  16.756  0.00  0.00    -0.572 OA
ATOM     20  C46 NTO d 869      59.614   3.892   4.900  0.00  0.00     0.094 C 
ATOM     21  O4A NTO d 869      57.505   4.277   3.763  0.00  0.00    -0.244 OA
ATOM     22  N3G NTO d 869      61.868   0.386   6.386  0.00  0.00    -0.210 NA
ATOM     23  O36 NTO d 869      67.806   5.580   7.372  0.00  0.00    -0.572 OA
ATOM     24  O57 NTO d 869      54.204   0.601   4.866  0.00  0.00    -0.572 OA
ATOM     25  C40 NTO d 869      60.424   4.302   6.128  0.00  0.00     0.103 C 
ATOM     26  O5I NTO d 869      55.454   6.118  12.534  0.00  0.00    -0.296 OA
ATOM     27  C20 NTO d 869      67.749   3.026  11.547  0.00  0.00     0.103 C 
ATOM     28  C53 NTO d 869      54.294   3.017   6.036  0.00  0.00     0.067 C 
ATOM     29  O3M NTO d 869      61.068   3.129   6.638  0.00  0.00    -0.348 OA
ATOM     30  C43 NTO d 869      60.272   4.940   8.504  0.00  0.00     0.206 C 
ATOM     31  S17 NTO d 869      68.940  -0.801  16.479  0.00  0.00     0.251 S 
ATOM     32  O45 NTO d 869      60.809   3.884   8.910  0.00  0.00    -0.646 OA
ATOM     33  O47 NTO d 869      60.314   4.289   3.716  0.00  0.00    -0.390 OA
ATOM     34  O5K NTO d 869      53.217   7.107  12.723  0.00  0.00    -0.296 OA
ATOM     35  C2C NTO d 869      65.717   3.588   9.570  0.00  0.00     0.160 C 
ATOM     36  O38 NTO d 869      67.499   5.670   4.949  0.00  0.00    -0.572 OA
ATOM     37  O1J NTO d 869      71.332   7.620  11.337  0.00  0.00    -0.296 OA
ATOM     38  C12 NTO d 869      71.810   2.094  13.652  0.00  0.00     0.089 C 
ATOM     39  S4B NTO d 869      57.381   5.431   2.928  0.00  0.00     0.252 S 
ATOM     40  O4D NTO d 869      58.679   5.680   2.218  0.00  0.00    -0.572 OA
ATOM     41  C1E NTO d 869      70.710   4.263  13.061  0.00  0.00     0.081 C 
ATOM     42  C13 NTO d 869      70.409   1.519  13.868  0.00  0.00     0.090 C 
ATOM     43  C29 NTO d 869      65.908   4.511  10.776  0.00  0.00     0.110 C 
ATOM     44  O42 NTO d 869      58.330   4.083   7.340  0.00  0.00    -0.340 OA
ATOM     45  C31 NTO d 869      63.483   4.233   7.078  0.00  0.00     0.091 C 
ATOM     46  C3F NTO d 869      62.808   1.521   6.425  0.00  0.00     0.083 C 
ATOM     47  S5H NTO d 869      54.072   6.145  11.952  0.00  0.00     0.156 S 
ATOM     48  S1G NTO d 869      71.440   6.597  12.429  0.00  0.00     0.156 S 
ATOM     49  O5J NTO d 869      53.464   4.778  12.041  0.00  0.00    -0.296 OA
ATOM     50  C5F NTO d 869      54.400   5.451   9.528  0.00  0.00     0.081 C 
ATOM     51  S3H NTO d 869      61.411  -0.004   4.866  0.00  0.00     0.156 S 
ATOM     52  O25 NTO d 869      69.270   0.592  10.385  0.00  0.00    -0.646 OA
ATOM     53  O1C NTO d 869      73.056   3.886  12.609  0.00  0.00    -0.391 OA
ATOM     54  O3A NTO d 869      63.803   0.766   8.508  0.00  0.00    -0.247 OA
ATOM     55  C5L NTO d 869      53.072   4.953   8.954  0.00  0.00     0.149 C 
ATOM     56  C30 NTO d 869      64.096   3.097   7.886  0.00  0.00     0.096 C 
ATOM     57  C23 NTO d 869      68.043   0.814  10.507  0.00  0.00     0.206 C 
ATOM     58  O3E NTO d 869      62.636   1.239  10.555  0.00  0.00    -0.572 OA
ATOM     59  O14 NTO d 869      69.484   2.553  14.240  0.00  0.00    -0.349 OA
ATOM     60  O2A NTO d 869      65.563   5.849  10.415  0.00  0.00    -0.388 OA
ATOM     61  C3L NTO d 869      62.161   2.751   5.790  0.00  0.00     0.150 C 
ATOM     62  C4F NTO d 869      57.477   4.151   6.186  0.00  0.00     0.161 C 
ATOM     63  C15 NTO d 869      70.465   0.510  15.018  0.00  0.00     0.067 C 
ATOM     64  S55 NTO d 869      54.914   0.612   6.187  0.00  0.00     0.251 S 
ATOM     65  O58 NTO d 869      54.318  -0.428   7.087  0.00  0.00    -0.572 OA
ATOM     66  C51 NTO d 869      54.149   4.248   6.933  0.00  0.00     0.091 C 
ATOM     67  O56 NTO d 869      56.368   0.317   5.970  0.00  0.00    -0.572 OA
ATOM     68  O3J NTO d 869      61.517  -1.488   4.675  0.00  0.00    -0.296 OA
ATOM     69  O44 NTO d 869      60.336   6.037   9.117  0.00  0.00    -0.646 OA
ATOM     70  O10 NTO d 869      72.657   1.064  13.137  0.00  0.00    -0.390 OA
ATOM     71  C59 NTO d 869      55.367   5.826   8.404  0.00  0.00     0.083 C 
ATOM     72  O52 NTO d 869      53.271   3.887   8.011  0.00  0.00    -0.349 OA
ATOM     73  O27 NTO d 869      67.479   5.259  12.448  0.00  0.00    -0.390 OA
ATOM     74  O1A NTO d 869      67.753  -1.685  16.248  0.00  0.00    -0.572 OA
ATOM     75  O5A NTO d 869      56.650   6.133   8.958  0.00  0.00    -0.391 OA
ATOM     76  O37 NTO d 869      66.344   7.281   6.396  0.00  0.00    -0.572 OA
ATOM     77  O24 NTO d 869      67.200  -0.055  10.834  0.00  0.00    -0.646 OA
ATOM     78  O1H NTO d 869      72.874   6.206  12.626  0.00  0.00    -0.296 OA
ATOM     79  O22 NTO d 869      66.171   2.256   9.860  0.00  0.00    -0.340 OA
ATOM     80  O3D NTO d 869      63.655  -0.954  10.163  0.00  0.00    -0.572 OA
ATOM     81  C33 NTO d 869      64.490   5.384   6.995  0.00  0.00     0.067 C 
ATOM     82  S35 NTO d 869      66.826   5.865   6.274  0.00  0.00     0.251 S 
ATOM     83  S3B NTO d 869      62.956   0.205   9.516  0.00  0.00     0.252 S 
ATOM     84  O4C NTO d 869      57.025   6.624   3.765  0.00  0.00    -0.572 OA
ATOM     85  C39 NTO d 869      63.168   1.879   7.868  0.00  0.00     0.108 C 
ATOM     86  O16 NTO d 869      69.164  -0.004  15.309  0.00  0.00    -0.254 OA
ATOM     87  O5M NTO d 869      52.302   6.032   8.409  0.00  0.00    -0.364 OA
ATOM     88  O3C NTO d 869      61.680  -0.281   8.895  0.00  0.00    -0.572 OA
ATOM     89  C1K NTO d 869      69.370   3.540  13.203  0.00  0.00     0.150 C 
ATOM     90  O32 NTO d 869      63.131   3.811   5.751  0.00  0.00    -0.349 OA
ATOM     91  O34 NTO d 869      65.710   4.970   6.372  0.00  0.00    -0.254 OA
ATOM     92  H   NTO d 869      59.920   1.386   4.773  0.00  0.00     0.231 HD
ATOM     93  H   NTO d 869      69.963   7.418  13.573  0.00  0.00     0.231 HD
ATOM     94  H   NTO d 869      59.205   5.879   6.902  0.00  0.00     0.104 H 
ATOM     95  H   NTO d 869      71.540   2.867  11.677  0.00  0.00     0.089 H 
ATOM     96  H   NTO d 869      53.284   7.061  10.124  0.00  0.00     0.140 HD
ATOM     97  H   NTO d 869      69.591   5.537  11.911  0.00  0.00     0.140 HD
ATOM     98  H   NTO d 869      62.241   1.635   3.980  0.00  0.00     0.231 HD
ATOM     99  H   NTO d 869      50.329   6.510   8.109  0.00  0.00     0.066 H 
ATOM    100  H   NTO d 869      50.656   5.567   9.543  0.00  0.00     0.066 H 
ATOM    101  H   NTO d 869      50.712   4.810   7.969  0.00  0.00     0.066 H 
ATOM    102  H   NTO d 869      68.112   2.672   9.465  0.00  0.00     0.104 H 
ATOM    103  H   NTO d 869      68.008   4.874  10.507  0.00  0.00     0.091 H 
ATOM    104  H   NTO d 869      55.958   3.797   7.947  0.00  0.00     0.091 H 
ATOM    105  H   NTO d 869      58.407   5.647   4.982  0.00  0.00     0.097 H 
ATOM    106  H   NTO d 869      59.477   2.831   4.895  0.00  0.00     0.091 H 
ATOM    107  H   NTO d 869      61.037   0.632   6.924  0.00  0.00     0.140 HD
ATOM    108  H   NTO d 869      61.147   5.044   5.863  0.00  0.00     0.092 H 
ATOM    109  H   NTO d 869      55.846   7.003  12.477  0.00  0.00     0.231 HD
ATOM    110  H   NTO d 869      67.143   2.661  12.350  0.00  0.00     0.092 H 
ATOM    111  H   NTO d 869      53.344   2.779   5.607  0.00  0.00     0.080 H 
ATOM    112  H   NTO d 869      55.003   3.231   5.263  0.00  0.00     0.080 H 
ATOM    113  H   NTO d 869      60.438   5.251   3.722  0.00  0.00     0.210 HD
ATOM    114  H   NTO d 869      53.603   7.996  12.672  0.00  0.00     0.231 HD
ATOM    115  H   NTO d 869      66.294   3.961   8.751  0.00  0.00     0.133 H 
ATOM    116  H   NTO d 869      70.402   7.867  11.217  0.00  0.00     0.231 HD
ATOM    117  H   NTO d 869      72.180   2.460  14.587  0.00  0.00     0.091 H 
ATOM    118  H   NTO d 869      70.991   4.722  13.987  0.00  0.00     0.076 H 
ATOM    119  H   NTO d 869      70.085   1.061  12.956  0.00  0.00     0.090 H 
ATOM    120  H   NTO d 869      65.273   4.173  11.568  0.00  0.00     0.094 H 
ATOM    121  H   NTO d 869      62.587   4.551   7.569  0.00  0.00     0.090 H 
ATOM    122  H   NTO d 869      63.690   1.234   5.889  0.00  0.00     0.076 H 
ATOM    123  H   NTO d 869      54.010   4.148  11.545  0.00  0.00     0.231 HD
ATOM    124  H   NTO d 869      54.840   4.664  10.104  0.00  0.00     0.076 H 
ATOM    125  H   NTO d 869      73.271   4.234  13.489  0.00  0.00     0.210 HD
ATOM    126  H   NTO d 869      52.501   4.543   9.761  0.00  0.00     0.131 H 
ATOM    127  H   NTO d 869      65.030   2.799   7.459  0.00  0.00     0.091 H 
ATOM    128  H   NTO d 869      66.142   6.150   9.697  0.00  0.00     0.210 HD
ATOM    129  H   NTO d 869      61.820   2.553   4.795  0.00  0.00     0.131 H 
ATOM    130  H   NTO d 869      57.097   3.160   6.050  0.00  0.00     0.133 H 
ATOM    131  H   NTO d 869      70.854   0.993  15.890  0.00  0.00     0.080 H 
ATOM    132  H   NTO d 869      71.098  -0.304  14.729  0.00  0.00     0.080 H 
ATOM    133  H   NTO d 869      53.743   5.084   6.402  0.00  0.00     0.090 H 
ATOM    134  H   NTO d 869      61.245  -1.719   3.773  0.00  0.00     0.231 HD
ATOM    135  H   NTO d 869      72.303   0.748  12.291  0.00  0.00     0.210 HD
ATOM    136  H   NTO d 869      54.980   6.674   7.879  0.00  0.00     0.089 H 
ATOM    137  H   NTO d 869      66.893   4.900  13.133  0.00  0.00     0.210 HD
ATOM    138  H   NTO d 869      56.992   5.359   9.431  0.00  0.00     0.210 HD
ATOM    139  H   NTO d 869      72.935   5.544  13.333  0.00  0.00     0.231 HD
ATOM    140  H   NTO d 869      64.705   5.729   7.984  0.00  0.00     0.080 H 
ATOM    141  H   NTO d 869      64.060   6.165   6.403  0.00  0.00     0.080 H 
ATOM    142  H   NTO d 869      62.271   2.115   8.401  0.00  0.00     0.092 H 
ATOM    143  H   NTO d 869      68.573   4.207  13.460  0.00  0.00     0.131 H 
ENDROOT
TORSDOF 46
ENDMDL
MODEL 37
REMARK VINA RESULT:      -6.8      5.627     10.415
REMARK  0 active torsions:
REMARK  status: ('A' for Active; 'I' for Inactive)
REMARK       I    between atoms: O3I_1  and  S3H_51 
REMARK       I    between atoms: O1I_2  and  S1G_48 
REMARK       I    between atoms: O54_3  and  C53_28 
REMARK       I    between atoms: O54_3  and  S55_64 
REMARK       I    between atoms: C41_5  and  C43_30 
REMARK       I    between atoms: C1B_6  and  O1C_53 
REMARK       I    between atoms: O4G_7  and  C4F_62 
REMARK       I    between atoms: O4G_7  and  C50_15 
REMARK       I    between atoms: N5G_8  and  C5F_50 
REMARK       I    between atoms: N5G_8  and  S5H_47 
REMARK       I    between atoms: N1F_9  and  C1E_41 
REMARK       I    between atoms: N1F_9  and  S1G_48 
REMARK       I    between atoms: O3K_10  and  S3H_51 
REMARK       I    between atoms: C5N_11  and  O5M_87 
REMARK       I    between atoms: C21_12  and  C23_57 
REMARK       I    between atoms: C26_13  and  O27_73 
REMARK       I    between atoms: C49_16  and  O4A_21 
REMARK       I    between atoms: O2D_17  and  C2C_35 
REMARK       I    between atoms: O2D_17  and  C30_56 
REMARK       I    between atoms: O1L_18  and  C1K_89 
REMARK       I    between atoms: O1L_18  and  C20_27 
REMARK       I    between atoms: C46_20  and  O47_33 
REMARK       I    between atoms: O4A_21  and  S4B_39 
REMARK       I    between atoms: N3G_22  and  C3F_46 
REMARK       I    between atoms: N3G_22  and  S3H_51 
REMARK       I    between atoms: C40_25  and  O3M_29 
REMARK       I    between atoms: O5I_26  and  S5H_47 
REMARK       I    between atoms: C53_28  and  C51_66 
REMARK       I    between atoms: O3M_29  and  C3L_61 
REMARK       I    between atoms: S17_31  and  O16_86 
REMARK       I    between atoms: O5K_34  and  S5H_47 
REMARK       I    between atoms: O1J_37  and  S1G_48 
REMARK       I    between atoms: C12_38  and  O10_70 
REMARK       I    between atoms: C13_42  and  C15_63 
REMARK       I    between atoms: C29_43  and  O2A_60 
REMARK       I    between atoms: C31_45  and  C33_81 
REMARK       I    between atoms: S5H_47  and  O5J_49 
REMARK       I    between atoms: S1G_48  and  O1H_78 
REMARK       I    between atoms: S3H_51  and  O3J_68 
REMARK       I    between atoms: O3A_54  and  C39_85 
REMARK       I    between atoms: O3A_54  and  S3B_83 
REMARK       I    between atoms: C5L_55  and  O5M_87 
REMARK       I    between atoms: C15_63  and  O16_86 
REMARK       I    between atoms: C59_71  and  O5A_75 
REMARK       I    between atoms: C33_81  and  O34_91 
REMARK       I    between atoms: S35_82  and  O34_91 
ROOT
ATOM      1  O3I NTO d 869      63.489  -6.535   6.917  0.00  0.00    -0.296 OA
ATOM      2  O1I NTO d 869      56.886   6.995  11.339  0.00  0.00    -0.296 OA
ATOM      3  O54 NTO d 869      68.170  -5.235   3.673  0.00  0.00    -0.254 OA
ATOM      4  O18 NTO d 869      54.019   5.453   3.603  0.00  0.00    -0.572 OA
ATOM      5  C41 NTO d 869      65.946  -2.076   7.765  0.00  0.00     0.152 C 
ATOM      6  C1B NTO d 869      54.151   4.108  10.142  0.00  0.00     0.083 C 
ATOM      7  O4G NTO d 869      68.709  -3.359   6.658  0.00  0.00    -0.348 OA
ATOM      8  N5G NTO d 869      70.677   0.165   3.970  0.00  0.00    -0.210 NA
ATOM      9  N1F NTO d 869      56.378   4.508  11.072  0.00  0.00    -0.210 NA
ATOM     10  O3K NTO d 869      61.896  -6.461   8.780  0.00  0.00    -0.296 OA
ATOM     11  C5N NTO d 869      73.121  -2.588   2.809  0.00  0.00     0.007 C 
ATOM     12  C21 NTO d 869      57.412   0.668   8.694  0.00  0.00     0.152 C 
ATOM     13  C26 NTO d 869      58.653   2.697   9.314  0.00  0.00     0.092 C 
ATOM     14  O4E NTO d 869      69.630  -6.767   9.361  0.00  0.00    -0.572 OA
ATOM     15  C50 NTO d 869      68.978  -2.953   5.307  0.00  0.00     0.095 C 
ATOM     16  C49 NTO d 869      67.182  -4.303   8.258  0.00  0.00     0.134 C 
ATOM     17  O2D NTO d 869      60.950  -0.130   8.354  0.00  0.00    -0.348 OA
ATOM     18  O1L NTO d 869      56.227   2.735   8.933  0.00  0.00    -0.348 OA
ATOM     19  O19 NTO d 869      51.998   4.098   3.914  0.00  0.00    -0.572 OA
ATOM     20  C46 NTO d 869      65.697  -4.419   8.607  0.00  0.00     0.094 C 
ATOM     21  O4A NTO d 869      67.817  -5.578   8.377  0.00  0.00    -0.244 OA
ATOM     22  N3G NTO d 869      61.644  -4.764   6.865  0.00  0.00    -0.210 NA
ATOM     23  O36 NTO d 869      59.593   0.411  12.541  0.00  0.00    -0.572 OA
ATOM     24  O57 NTO d 869      68.225  -7.623   3.765  0.00  0.00    -0.572 OA
ATOM     25  C40 NTO d 869      65.059  -3.033   8.548  0.00  0.00     0.103 C 
ATOM     26  O5I NTO d 869      68.978   1.851   3.087  0.00  0.00    -0.296 OA
ATOM     27  C20 NTO d 869      57.473   2.174   8.497  0.00  0.00     0.103 C 
ATOM     28  C53 NTO d 869      69.306  -5.289   4.536  0.00  0.00     0.067 C 
ATOM     29  O3M NTO d 869      63.789  -3.164   7.899  0.00  0.00    -0.348 OA
ATOM     30  C43 NTO d 869      65.125  -0.845   7.416  0.00  0.00     0.206 C 
ATOM     31  S17 NTO d 869      53.498   4.083   3.922  0.00  0.00     0.251 S 
ATOM     32  O45 NTO d 869      64.026  -1.014   6.839  0.00  0.00    -0.646 OA
ATOM     33  O47 NTO d 869      65.561  -4.948   9.930  0.00  0.00    -0.390 OA
ATOM     34  O5K NTO d 869      71.309   2.047   2.350  0.00  0.00    -0.296 OA
ATOM     35  C2C NTO d 869      59.778   0.480   8.918  0.00  0.00     0.160 C 
ATOM     36  O38 NTO d 869      60.316  -1.499  13.883  0.00  0.00    -0.572 OA
ATOM     37  O1J NTO d 869      57.197   5.515  13.266  0.00  0.00    -0.296 OA
ATOM     38  C12 NTO d 869      53.299   4.230   8.876  0.00  0.00     0.089 C 
ATOM     39  S4B NTO d 869      68.712  -5.590   9.493  0.00  0.00     0.252 S 
ATOM     40  O4D NTO d 869      67.927  -5.695  10.767  0.00  0.00    -0.572 OA
ATOM     41  C1E NTO d 869      55.512   4.768   9.916  0.00  0.00     0.081 C 
ATOM     42  C13 NTO d 869      54.071   3.735   7.650  0.00  0.00     0.090 C 
ATOM     43  C29 NTO d 869      59.932   2.002   8.841  0.00  0.00     0.110 C 
ATOM     44  O42 NTO d 869      66.417  -2.706   6.560  0.00  0.00    -0.340 OA
ATOM     45  C31 NTO d 869      62.381  -1.614   9.589  0.00  0.00     0.091 C 
ATOM     46  C3F NTO d 869      61.516  -3.854   8.018  0.00  0.00     0.083 C 
ATOM     47  S5H NTO d 869      70.212   1.089   2.708  0.00  0.00     0.156 S 
ATOM     48  S1G NTO d 869      56.345   5.799  12.065  0.00  0.00     0.156 S 
ATOM     49  O5J NTO d 869      69.919   0.222   1.519  0.00  0.00    -0.296 OA
ATOM     50  C5F NTO d 869      69.980  -1.128   3.931  0.00  0.00     0.081 C 
ATOM     51  S3H NTO d 869      62.060  -6.283   7.300  0.00  0.00     0.156 S 
ATOM     52  O25 NTO d 869      55.079   0.214   8.581  0.00  0.00    -0.646 OA
ATOM     53  O1C NTO d 869      53.483   4.747  11.232  0.00  0.00    -0.391 OA
ATOM     54  O3A NTO d 869      59.923  -2.433   6.859  0.00  0.00    -0.247 OA
ATOM     55  C5L NTO d 869      70.873  -2.176   3.264  0.00  0.00     0.149 C 
ATOM     56  C30 NTO d 869      61.106  -1.498   8.765  0.00  0.00     0.096 C 
ATOM     57  C23 NTO d 869      56.174   0.150   7.976  0.00  0.00     0.206 C 
ATOM     58  O3E NTO d 869      60.775  -0.836   5.278  0.00  0.00    -0.572 OA
ATOM     59  O14 NTO d 869      55.335   4.408   7.537  0.00  0.00    -0.349 OA
ATOM     60  O2A NTO d 869      61.026   2.415   9.661  0.00  0.00    -0.388 OA
ATOM     61  C3L NTO d 869      62.841  -3.788   8.775  0.00  0.00     0.150 C 
ATOM     62  C4F NTO d 869      67.345  -3.767   6.833  0.00  0.00     0.161 C 
ATOM     63  C15 NTO d 869      53.257   4.061   6.395  0.00  0.00     0.067 C 
ATOM     64  S55 NTO d 869      67.427  -6.420   3.362  0.00  0.00     0.251 S 
ATOM     65  O58 NTO d 869      67.167  -6.460   1.886  0.00  0.00    -0.572 OA
ATOM     66  C51 NTO d 869      69.959  -3.910   4.645  0.00  0.00     0.091 C 
ATOM     67  O56 NTO d 869      66.124  -6.419   4.104  0.00  0.00    -0.572 OA
ATOM     68  O3J NTO d 869      61.173  -7.267   6.597  0.00  0.00    -0.296 OA
ATOM     69  O44 NTO d 869      65.584   0.285   7.729  0.00  0.00    -0.646 OA
ATOM     70  O10 NTO d 869      52.126   3.429   9.035  0.00  0.00    -0.390 OA
ATOM     71  C59 NTO d 869      69.605  -1.561   5.349  0.00  0.00     0.083 C 
ATOM     72  O52 NTO d 869      70.278  -3.483   3.310  0.00  0.00    -0.349 OA
ATOM     73  O27 NTO d 869      58.790   4.109   9.126  0.00  0.00    -0.390 OA
ATOM     74  O1A NTO d 869      54.001   3.112   2.898  0.00  0.00    -0.572 OA
ATOM     75  O5A NTO d 869      68.644  -0.649   5.891  0.00  0.00    -0.391 OA
ATOM     76  O37 NTO d 869      61.902   0.293  13.340  0.00  0.00    -0.572 OA
ATOM     77  O24 NTO d 869      56.309  -0.297   6.812  0.00  0.00    -0.646 OA
ATOM     78  O1H NTO d 869      54.931   6.063  12.491  0.00  0.00    -0.296 OA
ATOM     79  O22 NTO d 869      58.611   0.041   8.204  0.00  0.00    -0.340 OA
ATOM     80  O3D NTO d 869      58.787  -2.174   4.770  0.00  0.00    -0.572 OA
ATOM     81  C33 NTO d 869      62.229  -0.775  10.861  0.00  0.00     0.067 C 
ATOM     82  S35 NTO d 869      60.737  -0.510  12.839  0.00  0.00     0.251 S 
ATOM     83  S3B NTO d 869      60.116  -2.171   5.465  0.00  0.00     0.252 S 
ATOM     84  O4C NTO d 869      69.524  -4.328   9.501  0.00  0.00    -0.572 OA
ATOM     85  C39 NTO d 869      61.174  -2.437   7.556  0.00  0.00     0.108 C 
ATOM     86  O16 NTO d 869      53.969   3.685   5.214  0.00  0.00    -0.254 OA
ATOM     87  O5M NTO d 869      72.197  -2.157   3.813  0.00  0.00    -0.364 OA
ATOM     88  O3C NTO d 869      60.983  -3.236   4.863  0.00  0.00    -0.572 OA
ATOM     89  C1K NTO d 869      56.163   4.145   8.680  0.00  0.00     0.150 C 
ATOM     90  O32 NTO d 869      62.660  -2.977   9.947  0.00  0.00    -0.349 OA
ATOM     91  O34 NTO d 869      61.119  -1.214  11.650  0.00  0.00    -0.254 OA
ATOM     92  H   NTO d 869      64.063  -5.899   7.371  0.00  0.00     0.231 HD
ATOM     93  H   NTO d 869      57.800   6.821  11.065  0.00  0.00     0.231 HD
ATOM     94  H   NTO d 869      66.796  -1.802   8.355  0.00  0.00     0.104 H 
ATOM     95  H   NTO d 869      54.297   3.073  10.372  0.00  0.00     0.089 H 
ATOM     96  H   NTO d 869      71.683   0.008   3.920  0.00  0.00     0.140 HD
ATOM     97  H   NTO d 869      57.333   4.347  10.753  0.00  0.00     0.140 HD
ATOM     98  H   NTO d 869      62.465  -5.829   9.247  0.00  0.00     0.231 HD
ATOM     99  H   NTO d 869      74.114  -2.577   3.209  0.00  0.00     0.066 H 
ATOM    100  H   NTO d 869      73.069  -1.928   1.968  0.00  0.00     0.066 H 
ATOM    101  H   NTO d 869      72.873  -3.582   2.498  0.00  0.00     0.066 H 
ATOM    102  H   NTO d 869      57.345   0.430   9.735  0.00  0.00     0.104 H 
ATOM    103  H   NTO d 869      58.485   2.495  10.351  0.00  0.00     0.091 H 
ATOM    104  H   NTO d 869      68.067  -2.955   4.747  0.00  0.00     0.091 H 
ATOM    105  H   NTO d 869      67.645  -3.621   8.941  0.00  0.00     0.097 H 
ATOM    106  H   NTO d 869      65.212  -5.070   7.910  0.00  0.00     0.091 H 
ATOM    107  H   NTO d 869      62.360  -4.396   6.237  0.00  0.00     0.140 HD
ATOM    108  H   NTO d 869      64.938  -2.640   9.536  0.00  0.00     0.092 H 
ATOM    109  H   NTO d 869      69.168   2.412   3.856  0.00  0.00     0.231 HD
ATOM    110  H   NTO d 869      57.618   2.447   7.472  0.00  0.00     0.092 H 
ATOM    111  H   NTO d 869      70.016  -5.985   4.140  0.00  0.00     0.080 H 
ATOM    112  H   NTO d 869      68.989  -5.601   5.509  0.00  0.00     0.080 H 
ATOM    113  H   NTO d 869      66.001  -4.357  10.561  0.00  0.00     0.210 HD
ATOM    114  H   NTO d 869      71.506   2.613   3.113  0.00  0.00     0.231 HD
ATOM    115  H   NTO d 869      59.664   0.194   9.942  0.00  0.00     0.133 H 
ATOM    116  H   NTO d 869      58.109   5.346  12.982  0.00  0.00     0.231 HD
ATOM    117  H   NTO d 869      53.043   5.258   8.729  0.00  0.00     0.091 H 
ATOM    118  H   NTO d 869      55.381   5.822   9.783  0.00  0.00     0.076 H 
ATOM    119  H   NTO d 869      54.235   2.683   7.753  0.00  0.00     0.090 H 
ATOM    120  H   NTO d 869      60.116   2.275   7.823  0.00  0.00     0.094 H 
ATOM    121  H   NTO d 869      63.198  -1.257   8.998  0.00  0.00     0.090 H 
ATOM    122  H   NTO d 869      60.736  -4.231   8.646  0.00  0.00     0.076 H 
ATOM    123  H   NTO d 869      69.210  -0.401   1.740  0.00  0.00     0.231 HD
ATOM    124  H   NTO d 869      69.081  -1.032   3.358  0.00  0.00     0.076 H 
ATOM    125  H   NTO d 869      53.350   5.686  11.024  0.00  0.00     0.210 HD
ATOM    126  H   NTO d 869      70.964  -1.919   2.230  0.00  0.00     0.131 H 
ATOM    127  H   NTO d 869      60.258  -1.786   9.350  0.00  0.00     0.091 H 
ATOM    128  H   NTO d 869      60.853   2.165  10.582  0.00  0.00     0.210 HD
ATOM    129  H   NTO d 869      63.179  -4.760   9.072  0.00  0.00     0.131 H 
ATOM    130  H   NTO d 869      67.119  -4.537   6.125  0.00  0.00     0.133 H 
ATOM    131  H   NTO d 869      53.062   5.113   6.366  0.00  0.00     0.080 H 
ATOM    132  H   NTO d 869      52.339   3.513   6.431  0.00  0.00     0.080 H 
ATOM    133  H   NTO d 869      70.850  -3.934   5.237  0.00  0.00     0.090 H 
ATOM    134  H   NTO d 869      61.421  -8.168   6.856  0.00  0.00     0.231 HD
ATOM    135  H   NTO d 869      52.382   2.503   9.166  0.00  0.00     0.210 HD
ATOM    136  H   NTO d 869      70.486  -1.569   5.956  0.00  0.00     0.089 H 
ATOM    137  H   NTO d 869      58.942   4.297   8.187  0.00  0.00     0.210 HD
ATOM    138  H   NTO d 869      67.850  -0.649   5.334  0.00  0.00     0.210 HD
ATOM    139  H   NTO d 869      54.386   6.245  11.709  0.00  0.00     0.231 HD
ATOM    140  H   NTO d 869      62.076   0.248  10.587  0.00  0.00     0.080 H 
ATOM    141  H   NTO d 869      63.119  -0.885  11.445  0.00  0.00     0.080 H 
ATOM    142  H   NTO d 869      61.939  -2.094   6.891  0.00  0.00     0.092 H 
ATOM    143  H   NTO d 869      57.137   4.545   8.489  0.00  0.00     0.131 H 
ENDROOT
TORSDOF 46
ENDMDL
MODEL 38
REMARK VINA RESULT:      -6.8      4.343     14.130
REMARK  0 active torsions:
REMARK  status: ('A' for Active; 'I' for Inactive)
REMARK       I    between atoms: O3I_1  and  S3H_51 
REMARK       I    between atoms: O1I_2  and  S1G_48 
REMARK       I    between atoms: O54_3  and  C53_28 
REMARK       I    between atoms: O54_3  and  S55_64 
REMARK       I    between atoms: C41_5  and  C43_30 
REMARK       I    between atoms: C1B_6  and  O1C_53 
REMARK       I    between atoms: O4G_7  and  C4F_62 
REMARK       I    between atoms: O4G_7  and  C50_15 
REMARK       I    between atoms: N5G_8  and  C5F_50 
REMARK       I    between atoms: N5G_8  and  S5H_47 
REMARK       I    between atoms: N1F_9  and  C1E_41 
REMARK       I    between atoms: N1F_9  and  S1G_48 
REMARK       I    between atoms: O3K_10  and  S3H_51 
REMARK       I    between atoms: C5N_11  and  O5M_87 
REMARK       I    between atoms: C21_12  and  C23_57 
REMARK       I    between atoms: C26_13  and  O27_73 
REMARK       I    between atoms: C49_16  and  O4A_21 
REMARK       I    between atoms: O2D_17  and  C2C_35 
REMARK       I    between atoms: O2D_17  and  C30_56 
REMARK       I    between atoms: O1L_18  and  C1K_89 
REMARK       I    between atoms: O1L_18  and  C20_27 
REMARK       I    between atoms: C46_20  and  O47_33 
REMARK       I    between atoms: O4A_21  and  S4B_39 
REMARK       I    between atoms: N3G_22  and  C3F_46 
REMARK       I    between atoms: N3G_22  and  S3H_51 
REMARK       I    between atoms: C40_25  and  O3M_29 
REMARK       I    between atoms: O5I_26  and  S5H_47 
REMARK       I    between atoms: C53_28  and  C51_66 
REMARK       I    between atoms: O3M_29  and  C3L_61 
REMARK       I    between atoms: S17_31  and  O16_86 
REMARK       I    between atoms: O5K_34  and  S5H_47 
REMARK       I    between atoms: O1J_37  and  S1G_48 
REMARK       I    between atoms: C12_38  and  O10_70 
REMARK       I    between atoms: C13_42  and  C15_63 
REMARK       I    between atoms: C29_43  and  O2A_60 
REMARK       I    between atoms: C31_45  and  C33_81 
REMARK       I    between atoms: S5H_47  and  O5J_49 
REMARK       I    between atoms: S1G_48  and  O1H_78 
REMARK       I    between atoms: S3H_51  and  O3J_68 
REMARK       I    between atoms: O3A_54  and  C39_85 
REMARK       I    between atoms: O3A_54  and  S3B_83 
REMARK       I    between atoms: C5L_55  and  O5M_87 
REMARK       I    between atoms: C15_63  and  O16_86 
REMARK       I    between atoms: C59_71  and  O5A_75 
REMARK       I    between atoms: C33_81  and  O34_91 
REMARK       I    between atoms: S35_82  and  O34_91 
ROOT
ATOM      1  O3I NTO d 869      67.091   1.458   6.219  0.00  0.00    -0.296 OA
ATOM      2  O1I NTO d 869      69.016   3.036  21.713  0.00  0.00    -0.296 OA
ATOM      3  O54 NTO d 869      61.756   3.433   4.896  0.00  0.00    -0.254 OA
ATOM      4  O18 NTO d 869      64.812  -4.148  20.633  0.00  0.00    -0.572 OA
ATOM      5  C41 NTO d 869      64.974   5.101   9.201  0.00  0.00     0.152 C 
ATOM      6  C1B NTO d 869      70.431  -0.566  20.206  0.00  0.00     0.083 C 
ATOM      7  O4G NTO d 869      63.198   6.151   6.701  0.00  0.00    -0.348 OA
ATOM      8  N5G NTO d 869      58.839   7.060   8.621  0.00  0.00    -0.210 NA
ATOM      9  N1F NTO d 869      69.939   1.775  19.694  0.00  0.00    -0.210 NA
ATOM     10  O3K NTO d 869      69.327   1.385   7.225  0.00  0.00    -0.296 OA
ATOM     11  C5N NTO d 869      57.702   7.412   4.949  0.00  0.00     0.007 C 
ATOM     12  C21 NTO d 869      68.910   0.030  15.527  0.00  0.00     0.152 C 
ATOM     13  C26 NTO d 869      68.073   1.919  16.859  0.00  0.00     0.092 C 
ATOM     14  O4E NTO d 869      66.115   7.455   3.608  0.00  0.00    -0.572 OA
ATOM     15  C50 NTO d 869      61.847   5.671   6.771  0.00  0.00     0.095 C 
ATOM     16  C49 NTO d 869      65.556   5.676   6.739  0.00  0.00     0.134 C 
ATOM     17  O2D NTO d 869      67.193   2.258  13.211  0.00  0.00    -0.348 OA
ATOM     18  O1L NTO d 869      68.943  -0.119  17.916  0.00  0.00    -0.348 OA
ATOM     19  O19 NTO d 869      66.531  -5.876  20.362  0.00  0.00    -0.572 OA
ATOM     20  C46 NTO d 869      66.602   4.733   7.336  0.00  0.00     0.094 C 
ATOM     21  O4A NTO d 869      65.795   5.854   5.341  0.00  0.00    -0.244 OA
ATOM     22  N3G NTO d 869      67.321   0.554   8.602  0.00  0.00    -0.210 NA
ATOM     23  O36 NTO d 869      70.997   3.874  14.821  0.00  0.00    -0.572 OA
ATOM     24  O57 NTO d 869      62.654   2.837   2.762  0.00  0.00    -0.572 OA
ATOM     25  C40 NTO d 869      66.373   4.620   8.842  0.00  0.00     0.103 C 
ATOM     26  O5I NTO d 869      58.367   5.750  10.758  0.00  0.00    -0.296 OA
ATOM     27  C20 NTO d 869      68.186   0.397  16.813  0.00  0.00     0.103 C 
ATOM     28  C53 NTO d 869      61.906   4.783   4.454  0.00  0.00     0.067 C 
ATOM     29  O3M NTO d 869      66.524   3.243   9.205  0.00  0.00    -0.348 OA
ATOM     30  C43 NTO d 869      64.659   4.633  10.613  0.00  0.00     0.206 C 
ATOM     31  S17 NTO d 869      65.809  -4.748  19.688  0.00  0.00     0.251 S 
ATOM     32  O45 NTO d 869      64.798   3.417  10.875  0.00  0.00    -0.646 OA
ATOM     33  O47 NTO d 869      67.910   5.260   7.093  0.00  0.00    -0.390 OA
ATOM     34  O5K NTO d 869      56.570   7.122   9.808  0.00  0.00    -0.296 OA
ATOM     35  C2C NTO d 869      67.998   1.887  14.343  0.00  0.00     0.160 C 
ATOM     36  O38 NTO d 869      72.393   4.658  12.974  0.00  0.00    -0.572 OA
ATOM     37  O1J NTO d 869      70.925   3.982  20.504  0.00  0.00    -0.296 OA
ATOM     38  C12 NTO d 869      69.797  -1.921  20.531  0.00  0.00     0.089 C 
ATOM     39  S4B NTO d 869      66.250   7.185   5.076  0.00  0.00     0.252 S 
ATOM     40  O4D NTO d 869      67.685   7.318   5.490  0.00  0.00    -0.572 OA
ATOM     41  C1E NTO d 869      69.350   0.514  20.163  0.00  0.00     0.081 C 
ATOM     42  C13 NTO d 869      68.620  -2.210  19.596  0.00  0.00     0.090 C 
ATOM     43  C29 NTO d 869      67.319   2.398  15.616  0.00  0.00     0.110 C 
ATOM     44  O42 NTO d 869      64.010   4.559   8.281  0.00  0.00    -0.340 OA
ATOM     45  C31 NTO d 869      68.005   3.635  11.417  0.00  0.00     0.091 C 
ATOM     46  C3F NTO d 869      67.977   1.404   9.611  0.00  0.00     0.083 C 
ATOM     47  S5H NTO d 869      57.733   6.231   9.487  0.00  0.00     0.156 S 
ATOM     48  S1G NTO d 869      70.286   2.712  20.981  0.00  0.00     0.156 S 
ATOM     49  O5J NTO d 869      57.240   5.056   8.697  0.00  0.00    -0.296 OA
ATOM     50  C5F NTO d 869      59.611   6.138   7.775  0.00  0.00     0.081 C 
ATOM     51  S3H NTO d 869      68.005   0.684   7.124  0.00  0.00     0.156 S 
ATOM     52  O25 NTO d 869      70.124  -1.922  16.141  0.00  0.00    -0.646 OA
ATOM     53  O1C NTO d 869      71.397  -0.238  21.207  0.00  0.00    -0.391 OA
ATOM     54  O3A NTO d 869      67.327  -0.067  11.432  0.00  0.00    -0.247 OA
ATOM     55  C5L NTO d 869      59.017   6.111   6.366  0.00  0.00     0.149 C 
ATOM     56  C30 NTO d 869      67.932   2.222  11.980  0.00  0.00     0.096 C 
ATOM     57  C23 NTO d 869      69.129  -1.476  15.523  0.00  0.00     0.206 C 
ATOM     58  O3E NTO d 869      65.082   0.100  12.274  0.00  0.00    -0.572 OA
ATOM     59  O14 NTO d 869      67.671  -1.131  19.621  0.00  0.00    -0.349 OA
ATOM     60  O2A NTO d 869      67.288   3.826  15.603  0.00  0.00    -0.388 OA
ATOM     61  C3L NTO d 869      67.908   2.868   9.180  0.00  0.00     0.150 C 
ATOM     62  C4F NTO d 869      64.151   5.110   6.963  0.00  0.00     0.161 C 
ATOM     63  C15 NTO d 869      67.903  -3.471  20.087  0.00  0.00     0.067 C 
ATOM     64  S55 NTO d 869      62.294   2.347   4.133  0.00  0.00     0.251 S 
ATOM     65  O58 NTO d 869      61.262   1.266   4.026  0.00  0.00    -0.572 OA
ATOM     66  C51 NTO d 869      61.182   5.739   5.405  0.00  0.00     0.091 C 
ATOM     67  O56 NTO d 869      63.522   1.807   4.803  0.00  0.00    -0.572 OA
ATOM     68  O3J NTO d 869      68.231  -0.685   6.553  0.00  0.00    -0.296 OA
ATOM     69  O44 NTO d 869      64.281   5.491  11.453  0.00  0.00    -0.646 OA
ATOM     70  O10 NTO d 869      70.783  -2.941  20.359  0.00  0.00    -0.390 OA
ATOM     71  C59 NTO d 869      61.077   6.571   7.736  0.00  0.00     0.083 C 
ATOM     72  O52 NTO d 869      59.811   5.312   5.474  0.00  0.00    -0.349 OA
ATOM     73  O27 NTO d 869      67.353   2.320  18.028  0.00  0.00    -0.390 OA
ATOM     74  O1A NTO d 869      65.095  -5.258  18.473  0.00  0.00    -0.572 OA
ATOM     75  O5A NTO d 869      61.653   6.433   9.039  0.00  0.00    -0.391 OA
ATOM     76  O37 NTO d 869      70.546   6.048  13.796  0.00  0.00    -0.572 OA
ATOM     77  O24 NTO d 869      68.296  -2.193  14.920  0.00  0.00    -0.646 OA
ATOM     78  O1H NTO d 869      71.222   1.978  21.894  0.00  0.00    -0.296 OA
ATOM     79  O22 NTO d 869      68.157   0.460  14.379  0.00  0.00    -0.340 OA
ATOM     80  O3D NTO d 869      66.128  -2.084  11.900  0.00  0.00    -0.572 OA
ATOM     81  C33 NTO d 869      68.793   4.517  12.390  0.00  0.00     0.067 C 
ATOM     82  S35 NTO d 869      71.002   4.644  13.535  0.00  0.00     0.251 S 
ATOM     83  S3B NTO d 869      66.029  -0.672  11.403  0.00  0.00     0.252 S 
ATOM     84  O4C NTO d 869      65.409   8.165   5.838  0.00  0.00    -0.572 OA
ATOM     85  C39 NTO d 869      67.271   1.285  10.963  0.00  0.00     0.108 C 
ATOM     86  O16 NTO d 869      66.749  -3.744  19.289  0.00  0.00    -0.254 OA
ATOM     87  O5M NTO d 869      58.799   7.437   5.867  0.00  0.00    -0.364 OA
ATOM     88  O3C NTO d 869      65.506  -0.686   9.998  0.00  0.00    -0.572 OA
ATOM     89  C1K NTO d 869      68.270   0.092  19.165  0.00  0.00     0.150 C 
ATOM     90  O32 NTO d 869      68.640   3.661  10.129  0.00  0.00    -0.349 OA
ATOM     91  O34 NTO d 869      70.121   4.022  12.590  0.00  0.00    -0.254 OA
ATOM     92  H   NTO d 869      66.945   2.343   6.588  0.00  0.00     0.231 HD
ATOM     93  H   NTO d 869      68.413   3.511  21.119  0.00  0.00     0.231 HD
ATOM     94  H   NTO d 869      64.930   6.168   9.143  0.00  0.00     0.104 H 
ATOM     95  H   NTO d 869      70.912  -0.620  19.252  0.00  0.00     0.089 H 
ATOM     96  H   NTO d 869      58.364   7.742   8.030  0.00  0.00     0.140 HD
ATOM     97  H   NTO d 869      69.276   2.257  19.089  0.00  0.00     0.140 HD
ATOM     98  H   NTO d 869      69.195   2.273   7.594  0.00  0.00     0.231 HD
ATOM     99  H   NTO d 869      57.531   8.398   4.570  0.00  0.00     0.066 H 
ATOM    100  H   NTO d 869      56.823   7.066   5.452  0.00  0.00     0.066 H 
ATOM    101  H   NTO d 869      57.930   6.753   4.137  0.00  0.00     0.066 H 
ATOM    102  H   NTO d 869      69.856   0.527  15.477  0.00  0.00     0.104 H 
ATOM    103  H   NTO d 869      69.053   2.349  16.885  0.00  0.00     0.091 H 
ATOM    104  H   NTO d 869      61.847   4.653   7.102  0.00  0.00     0.091 H 
ATOM    105  H   NTO d 869      65.630   6.626   7.226  0.00  0.00     0.097 H 
ATOM    106  H   NTO d 869      66.516   3.767   6.885  0.00  0.00     0.091 H 
ATOM    107  H   NTO d 869      66.340   0.827   8.532  0.00  0.00     0.140 HD
ATOM    108  H   NTO d 869      67.078   5.227   9.369  0.00  0.00     0.092 H 
ATOM    109  H   NTO d 869      58.686   6.510  11.268  0.00  0.00     0.231 HD
ATOM    110  H   NTO d 869      67.202  -0.022  16.861  0.00  0.00     0.092 H 
ATOM    111  H   NTO d 869      61.492   4.881   3.473  0.00  0.00     0.080 H 
ATOM    112  H   NTO d 869      62.947   5.031   4.440  0.00  0.00     0.080 H 
ATOM    113  H   NTO d 869      67.986   6.136   7.503  0.00  0.00     0.210 HD
ATOM    114  H   NTO d 869      56.879   7.887  10.320  0.00  0.00     0.231 HD
ATOM    115  H   NTO d 869      68.971   2.325  14.268  0.00  0.00     0.133 H 
ATOM    116  H   NTO d 869      70.314   4.451  19.915  0.00  0.00     0.231 HD
ATOM    117  H   NTO d 869      69.439  -1.902  21.539  0.00  0.00     0.091 H 
ATOM    118  H   NTO d 869      68.932   0.643  21.140  0.00  0.00     0.076 H 
ATOM    119  H   NTO d 869      68.997  -2.331  18.602  0.00  0.00     0.090 H 
ATOM    120  H   NTO d 869      66.321   2.014  15.649  0.00  0.00     0.094 H 
ATOM    121  H   NTO d 869      67.008   4.002  11.298  0.00  0.00     0.090 H 
ATOM    122  H   NTO d 869      68.993   1.080   9.701  0.00  0.00     0.076 H 
ATOM    123  H   NTO d 869      57.985   4.473   8.485  0.00  0.00     0.231 HD
ATOM    124  H   NTO d 869      59.561   5.151   8.186  0.00  0.00     0.076 H 
ATOM    125  H   NTO d 869      70.962  -0.188  22.073  0.00  0.00     0.210 HD
ATOM    126  H   NTO d 869      58.058   5.642   6.424  0.00  0.00     0.131 H 
ATOM    127  H   NTO d 869      68.915   1.847  12.173  0.00  0.00     0.091 H 
ATOM    128  H   NTO d 869      68.195   4.169  15.574  0.00  0.00     0.210 HD
ATOM    129  H   NTO d 869      68.325   3.016   8.205  0.00  0.00     0.131 H 
ATOM    130  H   NTO d 869      63.973   4.298   6.290  0.00  0.00     0.133 H 
ATOM    131  H   NTO d 869      67.600  -3.329  21.103  0.00  0.00     0.080 H 
ATOM    132  H   NTO d 869      68.576  -4.299  20.010  0.00  0.00     0.080 H 
ATOM    133  H   NTO d 869      61.226   6.752   5.064  0.00  0.00     0.090 H 
ATOM    134  H   NTO d 869      68.638  -0.607   5.676  0.00  0.00     0.231 HD
ATOM    135  H   NTO d 869      71.093  -2.940  19.439  0.00  0.00     0.210 HD
ATOM    136  H   NTO d 869      61.132   7.590   7.415  0.00  0.00     0.089 H 
ATOM    137  H   NTO d 869      66.463   1.933  18.010  0.00  0.00     0.210 HD
ATOM    138  H   NTO d 869      61.599   5.507   9.320  0.00  0.00     0.210 HD
ATOM    139  H   NTO d 869      70.801   1.158  22.198  0.00  0.00     0.231 HD
ATOM    140  H   NTO d 869      68.285   4.536  13.331  0.00  0.00     0.080 H 
ATOM    141  H   NTO d 869      68.861   5.500  11.972  0.00  0.00     0.080 H 
ATOM    142  H   NTO d 869      66.245   1.565  10.846  0.00  0.00     0.092 H 
ATOM    143  H   NTO d 869      67.499   0.827  19.066  0.00  0.00     0.131 H 
ENDROOT
TORSDOF 46
ENDMDL
MODEL 39
REMARK VINA RESULT:      -6.8      5.764      7.439
REMARK  0 active torsions:
REMARK  status: ('A' for Active; 'I' for Inactive)
REMARK       I    between atoms: O3I_1  and  S3H_51 
REMARK       I    between atoms: O1I_2  and  S1G_48 
REMARK       I    between atoms: O54_3  and  C53_28 
REMARK       I    between atoms: O54_3  and  S55_64 
REMARK       I    between atoms: C41_5  and  C43_30 
REMARK       I    between atoms: C1B_6  and  O1C_53 
REMARK       I    between atoms: O4G_7  and  C4F_62 
REMARK       I    between atoms: O4G_7  and  C50_15 
REMARK       I    between atoms: N5G_8  and  C5F_50 
REMARK       I    between atoms: N5G_8  and  S5H_47 
REMARK       I    between atoms: N1F_9  and  C1E_41 
REMARK       I    between atoms: N1F_9  and  S1G_48 
REMARK       I    between atoms: O3K_10  and  S3H_51 
REMARK       I    between atoms: C5N_11  and  O5M_87 
REMARK       I    between atoms: C21_12  and  C23_57 
REMARK       I    between atoms: C26_13  and  O27_73 
REMARK       I    between atoms: C49_16  and  O4A_21 
REMARK       I    between atoms: O2D_17  and  C2C_35 
REMARK       I    between atoms: O2D_17  and  C30_56 
REMARK       I    between atoms: O1L_18  and  C1K_89 
REMARK       I    between atoms: O1L_18  and  C20_27 
REMARK       I    between atoms: C46_20  and  O47_33 
REMARK       I    between atoms: O4A_21  and  S4B_39 
REMARK       I    between atoms: N3G_22  and  C3F_46 
REMARK       I    between atoms: N3G_22  and  S3H_51 
REMARK       I    between atoms: C40_25  and  O3M_29 
REMARK       I    between atoms: O5I_26  and  S5H_47 
REMARK       I    between atoms: C53_28  and  C51_66 
REMARK       I    between atoms: O3M_29  and  C3L_61 
REMARK       I    between atoms: S17_31  and  O16_86 
REMARK       I    between atoms: O5K_34  and  S5H_47 
REMARK       I    between atoms: O1J_37  and  S1G_48 
REMARK       I    between atoms: C12_38  and  O10_70 
REMARK       I    between atoms: C13_42  and  C15_63 
REMARK       I    between atoms: C29_43  and  O2A_60 
REMARK       I    between atoms: C31_45  and  C33_81 
REMARK       I    between atoms: S5H_47  and  O5J_49 
REMARK       I    between atoms: S1G_48  and  O1H_78 
REMARK       I    between atoms: S3H_51  and  O3J_68 
REMARK       I    between atoms: O3A_54  and  C39_85 
REMARK       I    between atoms: O3A_54  and  S3B_83 
REMARK       I    between atoms: C5L_55  and  O5M_87 
REMARK       I    between atoms: C15_63  and  O16_86 
REMARK       I    between atoms: C59_71  and  O5A_75 
REMARK       I    between atoms: C33_81  and  O34_91 
REMARK       I    between atoms: S35_82  and  O34_91 
ROOT
ATOM      1  O3I NTO d 869      68.220   4.874   5.870  0.00  0.00    -0.296 OA
ATOM      2  O1I NTO d 869      53.190   0.515   7.028  0.00  0.00    -0.296 OA
ATOM      3  O54 NTO d 869      71.474   0.614   8.191  0.00  0.00    -0.254 OA
ATOM      4  O18 NTO d 869      55.205   3.838  14.467  0.00  0.00    -0.572 OA
ATOM      5  C41 NTO d 869      66.431   0.034   5.762  0.00  0.00     0.152 C 
ATOM      6  C1B NTO d 869      53.854   4.506   7.962  0.00  0.00     0.083 C 
ATOM      7  O4G NTO d 869      69.462  -1.114   5.807  0.00  0.00    -0.348 OA
ATOM      8  N5G NTO d 869      69.273  -4.886   8.849  0.00  0.00    -0.210 NA
ATOM      9  N1F NTO d 869      54.662   2.575   6.698  0.00  0.00    -0.210 NA
ATOM     10  O3K NTO d 869      66.486   5.958   4.516  0.00  0.00    -0.296 OA
ATOM     11  C5N NTO d 869      73.125  -4.805   8.605  0.00  0.00     0.007 C 
ATOM     12  C21 NTO d 869      58.798   4.456   7.609  0.00  0.00     0.152 C 
ATOM     13  C26 NTO d 869      57.977   2.156   7.313  0.00  0.00     0.092 C 
ATOM     14  O4E NTO d 869      71.402   0.449   2.124  0.00  0.00    -0.572 OA
ATOM     15  C50 NTO d 869      69.842  -1.557   7.118  0.00  0.00     0.095 C 
ATOM     16  C49 NTO d 869      68.560   0.615   4.399  0.00  0.00     0.134 C 
ATOM     17  O2D NTO d 869      61.714   2.392   6.896  0.00  0.00    -0.348 OA
ATOM     18  O1L NTO d 869      56.547   3.929   8.233  0.00  0.00    -0.348 OA
ATOM     19  O19 NTO d 869      54.734   6.236  14.260  0.00  0.00    -0.572 OA
ATOM     20  C46 NTO d 869      67.570   1.781   4.380  0.00  0.00     0.094 C 
ATOM     21  O4A NTO d 869      69.791   1.005   3.787  0.00  0.00    -0.244 OA
ATOM     22  N3G NTO d 869      65.856   5.040   6.834  0.00  0.00    -0.210 NA
ATOM     23  O36 NTO d 869      58.975   2.937   3.451  0.00  0.00    -0.572 OA
ATOM     24  O57 NTO d 869      73.108   2.184   7.425  0.00  0.00    -0.572 OA
ATOM     25  C40 NTO d 869      66.239   1.317   4.967  0.00  0.00     0.103 C 
ATOM     26  O5I NTO d 869      67.359  -4.753  10.530  0.00  0.00    -0.296 OA
ATOM     27  C20 NTO d 869      57.879   3.397   8.199  0.00  0.00     0.103 C 
ATOM     28  C53 NTO d 869      71.923  -0.206   7.111  0.00  0.00     0.067 C 
ATOM     29  O3M NTO d 869      65.755   2.356   5.826  0.00  0.00    -0.348 OA
ATOM     30  C43 NTO d 869      65.193  -0.184   6.619  0.00  0.00     0.206 C 
ATOM     31  S17 NTO d 869      55.694   5.139  13.907  0.00  0.00     0.251 S 
ATOM     32  O45 NTO d 869      64.818   0.753   7.360  0.00  0.00    -0.646 OA
ATOM     33  O47 NTO d 869      67.369   2.209   3.029  0.00  0.00    -0.390 OA
ATOM     34  O5K NTO d 869      68.972  -6.588  10.741  0.00  0.00    -0.296 OA
ATOM     35  C2C NTO d 869      60.349   2.832   6.808  0.00  0.00     0.160 C 
ATOM     36  O38 NTO d 869      60.256   3.665   1.501  0.00  0.00    -0.572 OA
ATOM     37  O1J NTO d 869      53.705   1.243   4.746  0.00  0.00    -0.296 OA
ATOM     38  C12 NTO d 869      53.685   5.080   9.372  0.00  0.00     0.089 C 
ATOM     39  S4B NTO d 869      69.967   0.329   2.539  0.00  0.00     0.252 S 
ATOM     40  O4D NTO d 869      69.081   0.951   1.500  0.00  0.00    -0.572 OA
ATOM     41  C1E NTO d 869      54.350   3.062   8.047  0.00  0.00     0.081 C 
ATOM     42  C13 NTO d 869      54.954   4.871  10.201  0.00  0.00     0.090 C 
ATOM     43  C29 NTO d 869      59.435   1.694   7.269  0.00  0.00     0.110 C 
ATOM     44  O42 NTO d 869      67.594   0.138   6.603  0.00  0.00    -0.340 OA
ATOM     45  C31 NTO d 869      63.193   2.311   5.003  0.00  0.00     0.091 C 
ATOM     46  C3F NTO d 869      64.738   4.496   6.041  0.00  0.00     0.083 C 
ATOM     47  S5H NTO d 869      68.801  -5.139  10.390  0.00  0.00     0.156 S 
ATOM     48  S1G NTO d 869      53.402   1.706   6.140  0.00  0.00     0.156 S 
ATOM     49  O5J NTO d 869      69.634  -4.313  11.323  0.00  0.00    -0.296 OA
ATOM     50  C5F NTO d 869      69.727  -3.498   8.683  0.00  0.00     0.081 C 
ATOM     51  S3H NTO d 869      67.001   5.749   5.909  0.00  0.00     0.156 S 
ATOM     52  O25 NTO d 869      57.665   6.485   8.119  0.00  0.00    -0.646 OA
ATOM     53  O1C NTO d 869      52.600   4.545   7.277  0.00  0.00    -0.391 OA
ATOM     54  O3A NTO d 869      63.172   4.736   7.882  0.00  0.00    -0.247 OA
ATOM     55  C5L NTO d 869      71.251  -3.435   8.808  0.00  0.00     0.149 C 
ATOM     56  C30 NTO d 869      62.599   3.191   6.095  0.00  0.00     0.096 C 
ATOM     57  C23 NTO d 869      58.623   5.733   8.416  0.00  0.00     0.206 C 
ATOM     58  O3E NTO d 869      63.191   3.064   9.609  0.00  0.00    -0.572 OA
ATOM     59  O14 NTO d 869      55.339   3.487  10.206  0.00  0.00    -0.349 OA
ATOM     60  O2A NTO d 869      59.554   0.590   6.370  0.00  0.00    -0.388 OA
ATOM     61  C3L NTO d 869      65.263   3.457   5.051  0.00  0.00     0.150 C 
ATOM     62  C4F NTO d 869      68.810   0.164   5.841  0.00  0.00     0.161 C 
ATOM     63  C15 NTO d 869      54.666   5.279  11.648  0.00  0.00     0.067 C 
ATOM     64  S55 NTO d 869      71.923   1.968   8.320  0.00  0.00     0.251 S 
ATOM     65  O58 NTO d 869      72.316   2.220   9.744  0.00  0.00    -0.572 OA
ATOM     66  C51 NTO d 869      71.357  -1.621   7.245  0.00  0.00     0.091 C 
ATOM     67  O56 NTO d 869      70.827   2.913   7.925  0.00  0.00    -0.572 OA
ATOM     68  O3J NTO d 869      67.362   7.083   6.492  0.00  0.00    -0.296 OA
ATOM     69  O44 NTO d 869      64.601  -1.292   6.538  0.00  0.00    -0.646 OA
ATOM     70  O10 NTO d 869      53.429   6.482   9.268  0.00  0.00    -0.390 OA
ATOM     71  C59 NTO d 869      69.274  -2.961   7.325  0.00  0.00     0.083 C 
ATOM     72  O52 NTO d 869      71.749  -2.115   8.536  0.00  0.00    -0.349 OA
ATOM     73  O27 NTO d 869      57.168   1.107   7.852  0.00  0.00    -0.390 OA
ATOM     74  O1A NTO d 869      57.046   5.447  14.475  0.00  0.00    -0.572 OA
ATOM     75  O5A NTO d 869      67.846  -2.879   7.294  0.00  0.00    -0.391 OA
ATOM     76  O37 NTO d 869      60.236   1.297   2.146  0.00  0.00    -0.572 OA
ATOM     77  O24 NTO d 869      59.433   5.961   9.347  0.00  0.00    -0.646 OA
ATOM     78  O1H NTO d 869      52.170   2.561   6.138  0.00  0.00    -0.296 OA
ATOM     79  O22 NTO d 869      60.164   4.005   7.618  0.00  0.00    -0.340 OA
ATOM     80  O3D NTO d 869      63.024   5.444  10.162  0.00  0.00    -0.572 OA
ATOM     81  C33 NTO d 869      62.065   1.830   4.086  0.00  0.00     0.067 C 
ATOM     82  S35 NTO d 869      60.224   2.708   2.655  0.00  0.00     0.251 S 
ATOM     83  S3B NTO d 869      63.617   4.447   9.212  0.00  0.00     0.252 S 
ATOM     84  O4C NTO d 869      69.619  -1.122   2.698  0.00  0.00    -0.572 OA
ATOM     85  C39 NTO d 869      63.719   3.801   6.945  0.00  0.00     0.108 C 
ATOM     86  O16 NTO d 869      55.800   5.033  12.482  0.00  0.00    -0.254 OA
ATOM     87  O5M NTO d 869      71.882  -4.436   8.000  0.00  0.00    -0.364 OA
ATOM     88  O3C NTO d 869      65.113   4.540   9.278  0.00  0.00    -0.572 OA
ATOM     89  C1K NTO d 869      55.634   3.029   8.877  0.00  0.00     0.150 C 
ATOM     90  O32 NTO d 869      64.172   3.018   4.225  0.00  0.00    -0.349 OA
ATOM     91  O34 NTO d 869      61.376   2.928   3.480  0.00  0.00    -0.254 OA
ATOM     92  H   NTO d 869      67.987   4.011   5.493  0.00  0.00     0.231 HD
ATOM     93  H   NTO d 869      53.989  -0.035   7.026  0.00  0.00     0.231 HD
ATOM     94  H   NTO d 869      66.571  -0.791   5.095  0.00  0.00     0.104 H 
ATOM     95  H   NTO d 869      54.571   5.092   7.425  0.00  0.00     0.089 H 
ATOM     96  H   NTO d 869      70.038  -5.521   8.622  0.00  0.00     0.140 HD
ATOM     97  H   NTO d 869      55.494   1.986   6.732  0.00  0.00     0.140 HD
ATOM     98  H   NTO d 869      66.248   5.102   4.127  0.00  0.00     0.231 HD
ATOM     99  H   NTO d 869      73.604  -5.553   8.009  0.00  0.00     0.066 H 
ATOM    100  H   NTO d 869      72.943  -5.194   9.586  0.00  0.00     0.066 H 
ATOM    101  H   NTO d 869      73.757  -3.945   8.675  0.00  0.00     0.066 H 
ATOM    102  H   NTO d 869      58.543   4.643   6.587  0.00  0.00     0.104 H 
ATOM    103  H   NTO d 869      57.635   2.395   6.328  0.00  0.00     0.091 H 
ATOM    104  H   NTO d 869      69.465  -0.872   7.849  0.00  0.00     0.091 H 
ATOM    105  H   NTO d 869      68.143  -0.201   3.847  0.00  0.00     0.097 H 
ATOM    106  H   NTO d 869      67.957   2.593   4.959  0.00  0.00     0.091 H 
ATOM    107  H   NTO d 869      66.286   4.277   7.358  0.00  0.00     0.140 HD
ATOM    108  H   NTO d 869      65.538   1.120   4.183  0.00  0.00     0.092 H 
ATOM    109  H   NTO d 869      66.821  -5.287   9.926  0.00  0.00     0.231 HD
ATOM    110  H   NTO d 869      58.153   3.129   9.198  0.00  0.00     0.092 H 
ATOM    111  H   NTO d 869      72.992  -0.251   7.124  0.00  0.00     0.080 H 
ATOM    112  H   NTO d 869      71.585   0.218   6.189  0.00  0.00     0.080 H 
ATOM    113  H   NTO d 869      67.018   1.472   2.505  0.00  0.00     0.210 HD
ATOM    114  H   NTO d 869      68.436  -7.132  10.142  0.00  0.00     0.231 HD
ATOM    115  H   NTO d 869      60.104   3.088   5.798  0.00  0.00     0.133 H 
ATOM    116  H   NTO d 869      54.502   0.691   4.755  0.00  0.00     0.231 HD
ATOM    117  H   NTO d 869      52.873   4.578   9.854  0.00  0.00     0.091 H 
ATOM    118  H   NTO d 869      53.595   2.450   8.495  0.00  0.00     0.076 H 
ATOM    119  H   NTO d 869      55.740   5.458   9.774  0.00  0.00     0.090 H 
ATOM    120  H   NTO d 869      59.732   1.395   8.253  0.00  0.00     0.094 H 
ATOM    121  H   NTO d 869      63.681   1.481   5.468  0.00  0.00     0.090 H 
ATOM    122  H   NTO d 869      64.274   5.312   5.528  0.00  0.00     0.076 H 
ATOM    123  H   NTO d 869      69.529  -3.374  11.105  0.00  0.00     0.231 HD
ATOM    124  H   NTO d 869      69.296  -2.888   9.449  0.00  0.00     0.076 H 
ATOM    125  H   NTO d 869      51.950   4.013   7.763  0.00  0.00     0.210 HD
ATOM    126  H   NTO d 869      71.505  -3.654   9.824  0.00  0.00     0.131 H 
ATOM    127  H   NTO d 869      62.046   3.999   5.663  0.00  0.00     0.091 H 
ATOM    128  H   NTO d 869      59.283   0.866   5.481  0.00  0.00     0.210 HD
ATOM    129  H   NTO d 869      66.035   3.858   4.426  0.00  0.00     0.131 H 
ATOM    130  H   NTO d 869      69.447   0.866   6.337  0.00  0.00     0.133 H 
ATOM    131  H   NTO d 869      53.834   4.713  12.013  0.00  0.00     0.080 H 
ATOM    132  H   NTO d 869      54.444   6.325  11.671  0.00  0.00     0.080 H 
ATOM    133  H   NTO d 869      71.727  -2.274   6.483  0.00  0.00     0.090 H 
ATOM    134  H   NTO d 869      68.042   7.503   5.942  0.00  0.00     0.231 HD
ATOM    135  H   NTO d 869      54.177   6.916   8.828  0.00  0.00     0.210 HD
ATOM    136  H   NTO d 869      69.622  -3.618   6.555  0.00  0.00     0.089 H 
ATOM    137  H   NTO d 869      57.474   0.888   8.746  0.00  0.00     0.210 HD
ATOM    138  H   NTO d 869      67.541  -2.281   7.994  0.00  0.00     0.210 HD
ATOM    139  H   NTO d 869      51.980   2.857   7.043  0.00  0.00     0.231 HD
ATOM    140  H   NTO d 869      61.368   1.258   4.661  0.00  0.00     0.080 H 
ATOM    141  H   NTO d 869      62.496   1.235   3.307  0.00  0.00     0.080 H 
ATOM    142  H   NTO d 869      64.210   3.020   7.487  0.00  0.00     0.092 H 
ATOM    143  H   NTO d 869      56.049   2.045   8.944  0.00  0.00     0.131 H 
ENDROOT
TORSDOF 46
ENDMDL
MODEL 40
REMARK VINA RESULT:      -6.8      3.907      5.490
REMARK  0 active torsions:
REMARK  status: ('A' for Active; 'I' for Inactive)
REMARK       I    between atoms: O3I_1  and  S3H_51 
REMARK       I    between atoms: O1I_2  and  S1G_48 
REMARK       I    between atoms: O54_3  and  C53_28 
REMARK       I    between atoms: O54_3  and  S55_64 
REMARK       I    between atoms: C41_5  and  C43_30 
REMARK       I    between atoms: C1B_6  and  O1C_53 
REMARK       I    between atoms: O4G_7  and  C4F_62 
REMARK       I    between atoms: O4G_7  and  C50_15 
REMARK       I    between atoms: N5G_8  and  C5F_50 
REMARK       I    between atoms: N5G_8  and  S5H_47 
REMARK       I    between atoms: N1F_9  and  C1E_41 
REMARK       I    between atoms: N1F_9  and  S1G_48 
REMARK       I    between atoms: O3K_10  and  S3H_51 
REMARK       I    between atoms: C5N_11  and  O5M_87 
REMARK       I    between atoms: C21_12  and  C23_57 
REMARK       I    between atoms: C26_13  and  O27_73 
REMARK       I    between atoms: C49_16  and  O4A_21 
REMARK       I    between atoms: O2D_17  and  C2C_35 
REMARK       I    between atoms: O2D_17  and  C30_56 
REMARK       I    between atoms: O1L_18  and  C1K_89 
REMARK       I    between atoms: O1L_18  and  C20_27 
REMARK       I    between atoms: C46_20  and  O47_33 
REMARK       I    between atoms: O4A_21  and  S4B_39 
REMARK       I    between atoms: N3G_22  and  C3F_46 
REMARK       I    between atoms: N3G_22  and  S3H_51 
REMARK       I    between atoms: C40_25  and  O3M_29 
REMARK       I    between atoms: O5I_26  and  S5H_47 
REMARK       I    between atoms: C53_28  and  C51_66 
REMARK       I    between atoms: O3M_29  and  C3L_61 
REMARK       I    between atoms: S17_31  and  O16_86 
REMARK       I    between atoms: O5K_34  and  S5H_47 
REMARK       I    between atoms: O1J_37  and  S1G_48 
REMARK       I    between atoms: C12_38  and  O10_70 
REMARK       I    between atoms: C13_42  and  C15_63 
REMARK       I    between atoms: C29_43  and  O2A_60 
REMARK       I    between atoms: C31_45  and  C33_81 
REMARK       I    between atoms: S5H_47  and  O5J_49 
REMARK       I    between atoms: S1G_48  and  O1H_78 
REMARK       I    between atoms: S3H_51  and  O3J_68 
REMARK       I    between atoms: O3A_54  and  C39_85 
REMARK       I    between atoms: O3A_54  and  S3B_83 
REMARK       I    between atoms: C5L_55  and  O5M_87 
REMARK       I    between atoms: C15_63  and  O16_86 
REMARK       I    between atoms: C59_71  and  O5A_75 
REMARK       I    between atoms: C33_81  and  O34_91 
REMARK       I    between atoms: S35_82  and  O34_91 
ROOT
ATOM      1  O3I NTO d 869      68.731   3.532   7.509  0.00  0.00    -0.296 OA
ATOM      2  O1I NTO d 869      53.345   0.476   7.911  0.00  0.00    -0.296 OA
ATOM      3  O54 NTO d 869      71.274   0.321  11.673  0.00  0.00    -0.254 OA
ATOM      4  O18 NTO d 869      54.703   6.247  13.852  0.00  0.00    -0.572 OA
ATOM      5  C41 NTO d 869      66.543  -0.932   8.897  0.00  0.00     0.152 C 
ATOM      6  C1B NTO d 869      54.242   4.501   7.423  0.00  0.00     0.083 C 
ATOM      7  O4G NTO d 869      69.429  -2.093   9.806  0.00  0.00    -0.348 OA
ATOM      8  N5G NTO d 869      68.525  -4.456  13.944  0.00  0.00    -0.210 NA
ATOM      9  N1F NTO d 869      55.025   2.209   7.081  0.00  0.00    -0.210 NA
ATOM     10  O3K NTO d 869      67.283   4.100   5.612  0.00  0.00    -0.296 OA
ATOM     11  C5N NTO d 869      72.369  -4.614  14.265  0.00  0.00     0.007 C 
ATOM     12  C21 NTO d 869      59.166   4.139   7.854  0.00  0.00     0.152 C 
ATOM     13  C26 NTO d 869      58.186   1.927   8.293  0.00  0.00     0.092 C 
ATOM     14  O4E NTO d 869      71.947  -2.083   6.141  0.00  0.00    -0.572 OA
ATOM     15  C50 NTO d 869      69.601  -2.031  11.230  0.00  0.00     0.095 C 
ATOM     16  C49 NTO d 869      68.869  -0.978   7.750  0.00  0.00     0.134 C 
ATOM     17  O2D NTO d 869      61.952   1.851   8.381  0.00  0.00    -0.348 OA
ATOM     18  O1L NTO d 869      56.817   3.966   8.283  0.00  0.00    -0.348 OA
ATOM     19  O19 NTO d 869      54.478   8.412  12.721  0.00  0.00    -0.572 OA
ATOM     20  C46 NTO d 869      67.998   0.133   7.162  0.00  0.00     0.094 C 
ATOM     21  O4A NTO d 869      70.197  -0.890   7.229  0.00  0.00    -0.244 OA
ATOM     22  N3G NTO d 869      66.289   4.132   7.983  0.00  0.00    -0.210 NA
ATOM     23  O36 NTO d 869      59.724   1.179   4.606  0.00  0.00    -0.572 OA
ATOM     24  O57 NTO d 869      73.125   1.432  10.644  0.00  0.00    -0.572 OA
ATOM     25  C40 NTO d 869      66.568  -0.030   7.671  0.00  0.00     0.103 C 
ATOM     26  O5I NTO d 869      66.435  -3.636  15.156  0.00  0.00    -0.296 OA
ATOM     27  C20 NTO d 869      58.089   3.411   8.644  0.00  0.00     0.103 C 
ATOM     28  C53 NTO d 869      71.780  -0.857  11.044  0.00  0.00     0.067 C 
ATOM     29  O3M NTO d 869      66.075   1.271   8.013  0.00  0.00    -0.348 OA
ATOM     30  C43 NTO d 869      65.194  -0.770   9.580  0.00  0.00     0.206 C 
ATOM     31  S17 NTO d 869      55.373   7.228  12.937  0.00  0.00     0.251 S 
ATOM     32  O45 NTO d 869      64.814   0.388   9.866  0.00  0.00    -0.646 OA
ATOM     33  O47 NTO d 869      68.006   0.036   5.734  0.00  0.00    -0.390 OA
ATOM     34  O5K NTO d 869      67.839  -5.320  16.256  0.00  0.00    -0.296 OA
ATOM     35  C2C NTO d 869      60.653   2.278   7.937  0.00  0.00     0.160 C 
ATOM     36  O38 NTO d 869      61.300   1.083   2.739  0.00  0.00    -0.572 OA
ATOM     37  O1J NTO d 869      54.204   0.284   5.624  0.00  0.00    -0.296 OA
ATOM     38  C12 NTO d 869      53.950   5.563   8.487  0.00  0.00     0.089 C 
ATOM     39  S4B NTO d 869      70.466  -1.987   6.352  0.00  0.00     0.252 S 
ATOM     40  O4D NTO d 869      69.777  -1.763   5.039  0.00  0.00    -0.572 OA
ATOM     41  C1E NTO d 869      54.591   3.175   8.099  0.00  0.00     0.081 C 
ATOM     42  C13 NTO d 869      55.082   5.630   9.515  0.00  0.00     0.090 C 
ATOM     43  C29 NTO d 869      59.591   1.427   8.638  0.00  0.00     0.110 C 
ATOM     44  O42 NTO d 869      67.596  -0.566   9.806  0.00  0.00    -0.340 OA
ATOM     45  C31 NTO d 869      63.642   1.019   6.890  0.00  0.00     0.091 C 
ATOM     46  C3F NTO d 869      65.235   3.374   7.284  0.00  0.00     0.083 C 
ATOM     47  S5H NTO d 869      67.843  -4.100  15.382  0.00  0.00     0.156 S 
ATOM     48  S1G NTO d 869      53.771   1.243   6.693  0.00  0.00     0.156 S 
ATOM     49  O5J NTO d 869      68.623  -3.018  16.066  0.00  0.00    -0.296 OA
ATOM     50  C5F NTO d 869      69.119  -3.246  13.356  0.00  0.00     0.081 C 
ATOM     51  S3H NTO d 869      67.600   4.403   7.046  0.00  0.00     0.156 S 
ATOM     52  O25 NTO d 869      58.165   6.254   7.420  0.00  0.00    -0.646 OA
ATOM     53  O1C NTO d 869      53.092   4.328   6.592  0.00  0.00    -0.391 OA
ATOM     54  O3A NTO d 869      63.479   4.338   8.657  0.00  0.00    -0.247 OA
ATOM     55  C5L NTO d 869      70.614  -3.198  13.675  0.00  0.00     0.149 C 
ATOM     56  C30 NTO d 869      62.998   2.263   7.487  0.00  0.00     0.096 C 
ATOM     57  C23 NTO d 869      59.007   5.631   8.108  0.00  0.00     0.206 C 
ATOM     58  O3E NTO d 869      63.133   3.428  10.854  0.00  0.00    -0.572 OA
ATOM     59  O14 NTO d 869      55.337   4.333  10.078  0.00  0.00    -0.349 OA
ATOM     60  O2A NTO d 869      59.722   0.065   8.228  0.00  0.00    -0.388 OA
ATOM     61  C3L NTO d 869      65.785   2.023   6.827  0.00  0.00     0.150 C 
ATOM     62  C4F NTO d 869      68.896  -0.871   9.277  0.00  0.00     0.161 C 
ATOM     63  C15 NTO d 869      54.652   6.556  10.656  0.00  0.00     0.067 C 
ATOM     64  S55 NTO d 869      71.824   1.609  11.368  0.00  0.00     0.251 S 
ATOM     65  O58 NTO d 869      72.056   2.356  12.646  0.00  0.00    -0.572 OA
ATOM     66  C51 NTO d 869      71.077  -2.099  11.596  0.00  0.00     0.091 C 
ATOM     67  O56 NTO d 869      70.874   2.379  10.499  0.00  0.00    -0.572 OA
ATOM     68  O3J NTO d 869      68.004   5.844   7.152  0.00  0.00    -0.296 OA
ATOM     69  O44 NTO d 869      64.519  -1.806   9.818  0.00  0.00    -0.646 OA
ATOM     70  O10 NTO d 869      53.835   6.835   7.845  0.00  0.00    -0.390 OA
ATOM     71  C59 NTO d 869      68.889  -3.235  11.844  0.00  0.00     0.083 C 
ATOM     72  O52 NTO d 869      71.258  -2.092  13.021  0.00  0.00    -0.349 OA
ATOM     73  O27 NTO d 869      57.225   1.183   9.048  0.00  0.00    -0.390 OA
ATOM     74  O1A NTO d 869      56.665   7.674  13.551  0.00  0.00    -0.572 OA
ATOM     75  O5A NTO d 869      67.489  -3.118  11.572  0.00  0.00    -0.391 OA
ATOM     76  O37 NTO d 869      60.987  -0.874   4.187  0.00  0.00    -0.572 OA
ATOM     77  O24 NTO d 869      59.711   6.157   9.002  0.00  0.00    -0.646 OA
ATOM     78  O1H NTO d 869      52.631   2.082   6.199  0.00  0.00    -0.296 OA
ATOM     79  O22 NTO d 869      60.474   3.674   8.229  0.00  0.00    -0.340 OA
ATOM     80  O3D NTO d 869      63.112   5.848  10.476  0.00  0.00    -0.572 OA
ATOM     81  C33 NTO d 869      62.599   0.274   6.052  0.00  0.00     0.067 C 
ATOM     82  S35 NTO d 869      61.038   0.625   4.142  0.00  0.00     0.251 S 
ATOM     83  S3B NTO d 869      63.727   4.548  10.051  0.00  0.00     0.252 S 
ATOM     84  O4C NTO d 869      69.972  -3.261   6.972  0.00  0.00    -0.572 OA
ATOM     85  C39 NTO d 869      64.053   3.103   8.215  0.00  0.00     0.108 C 
ATOM     86  O16 NTO d 869      55.647   6.596  11.681  0.00  0.00    -0.254 OA
ATOM     87  O5M NTO d 869      71.249  -4.450  13.389  0.00  0.00    -0.364 OA
ATOM     88  O3C NTO d 869      65.204   4.603  10.302  0.00  0.00    -0.572 OA
ATOM     89  C1K NTO d 869      55.753   3.404   9.066  0.00  0.00     0.150 C 
ATOM     90  O32 NTO d 869      64.770   1.350   6.064  0.00  0.00    -0.349 OA
ATOM     91  O34 NTO d 869      62.092   1.093   4.994  0.00  0.00    -0.254 OA
ATOM     92  H   NTO d 869      68.470   2.600   7.440  0.00  0.00     0.231 HD
ATOM     93  H   NTO d 869      54.085  -0.065   8.227  0.00  0.00     0.231 HD
ATOM     94  H   NTO d 869      66.691  -1.950   8.602  0.00  0.00     0.104 H 
ATOM     95  H   NTO d 869      55.069   4.819   6.824  0.00  0.00     0.089 H 
ATOM     96  H   NTO d 869      69.252  -5.157  14.079  0.00  0.00     0.140 HD
ATOM     97  H   NTO d 869      55.790   1.645   7.450  0.00  0.00     0.140 HD
ATOM     98  H   NTO d 869      67.021   3.169   5.529  0.00  0.00     0.231 HD
ATOM     99  H   NTO d 869      72.850  -5.547  14.059  0.00  0.00     0.066 H 
ATOM    100  H   NTO d 869      72.032  -4.603  15.280  0.00  0.00     0.066 H 
ATOM    101  H   NTO d 869      73.062  -3.813  14.111  0.00  0.00     0.066 H 
ATOM    102  H   NTO d 869      59.059   3.943   6.808  0.00  0.00     0.104 H 
ATOM    103  H   NTO d 869      57.993   1.794   7.249  0.00  0.00     0.091 H 
ATOM    104  H   NTO d 869      69.199  -1.110  11.597  0.00  0.00     0.091 H 
ATOM    105  H   NTO d 869      68.453  -1.925   7.475  0.00  0.00     0.097 H 
ATOM    106  H   NTO d 869      68.380   1.087   7.458  0.00  0.00     0.091 H 
ATOM    107  H   NTO d 869      66.580   3.603   8.805  0.00  0.00     0.140 HD
ATOM    108  H   NTO d 869      65.955  -0.478   6.917  0.00  0.00     0.092 H 
ATOM    109  H   NTO d 869      65.931  -4.337  14.714  0.00  0.00     0.231 HD
ATOM    110  H   NTO d 869      58.212   3.522   9.701  0.00  0.00     0.092 H 
ATOM    111  H   NTO d 869      72.830  -0.934  11.232  0.00  0.00     0.080 H 
ATOM    112  H   NTO d 869      71.599  -0.794   9.991  0.00  0.00     0.080 H 
ATOM    113  H   NTO d 869      67.659  -0.829   5.467  0.00  0.00     0.210 HD
ATOM    114  H   NTO d 869      67.335  -6.027  15.822  0.00  0.00     0.231 HD
ATOM    115  H   NTO d 869      60.560   2.149   6.879  0.00  0.00     0.133 H 
ATOM    116  H   NTO d 869      54.941  -0.254   5.952  0.00  0.00     0.231 HD
ATOM    117  H   NTO d 869      53.042   5.306   8.991  0.00  0.00     0.091 H 
ATOM    118  H   NTO d 869      53.734   2.801   8.620  0.00  0.00     0.076 H 
ATOM    119  H   NTO d 869      55.964   5.987   9.026  0.00  0.00     0.090 H 
ATOM    120  H   NTO d 869      59.735   1.504   9.695  0.00  0.00     0.094 H 
ATOM    121  H   NTO d 869      63.993   0.403   7.691  0.00  0.00     0.090 H 
ATOM    122  H   NTO d 869      64.914   3.957   6.446  0.00  0.00     0.076 H 
ATOM    123  H   NTO d 869      68.632  -2.224  15.509  0.00  0.00     0.231 HD
ATOM    124  H   NTO d 869      68.651  -2.379  13.775  0.00  0.00     0.076 H 
ATOM    125  H   NTO d 869      52.341   4.040   7.134  0.00  0.00     0.210 HD
ATOM    126  H   NTO d 869      70.718  -3.033  14.727  0.00  0.00     0.131 H 
ATOM    127  H   NTO d 869      62.578   2.872   6.714  0.00  0.00     0.091 H 
ATOM    128  H   NTO d 869      59.590   0.001   7.269  0.00  0.00     0.210 HD
ATOM    129  H   NTO d 869      66.661   2.134   6.223  0.00  0.00     0.131 H 
ATOM    130  H   NTO d 869      69.526  -0.059   9.575  0.00  0.00     0.133 H 
ATOM    131  H   NTO d 869      53.734   6.198  11.072  0.00  0.00     0.080 H 
ATOM    132  H   NTO d 869      54.523   7.544  10.265  0.00  0.00     0.080 H 
ATOM    133  H   NTO d 869      71.479  -3.002  11.186  0.00  0.00     0.090 H 
ATOM    134  H   NTO d 869      68.781   6.005   6.596  0.00  0.00     0.231 HD
ATOM    135  H   NTO d 869      54.668   7.046   7.395  0.00  0.00     0.210 HD
ATOM    136  H   NTO d 869      69.270  -4.144  11.426  0.00  0.00     0.089 H 
ATOM    137  H   NTO d 869      57.396   1.300   9.996  0.00  0.00     0.210 HD
ATOM    138  H   NTO d 869      67.154  -2.292  11.954  0.00  0.00     0.210 HD
ATOM    139  H   NTO d 869      52.357   2.699   6.896  0.00  0.00     0.231 HD
ATOM    140  H   NTO d 869      61.788  -0.017   6.685  0.00  0.00     0.080 H 
ATOM    141  H   NTO d 869      63.070  -0.583   5.616  0.00  0.00     0.080 H 
ATOM    142  H   NTO d 869      64.401   2.561   9.070  0.00  0.00     0.092 H 
ATOM    143  H   NTO d 869      56.067   2.501   9.546  0.00  0.00     0.131 H 
ENDROOT
TORSDOF 46
ENDMDL
MODEL 41
REMARK VINA RESULT:      -6.7      3.939     14.235
REMARK  0 active torsions:
REMARK  status: ('A' for Active; 'I' for Inactive)
REMARK       I    between atoms: O3I_1  and  S3H_51 
REMARK       I    between atoms: O1I_2  and  S1G_48 
REMARK       I    between atoms: O54_3  and  C53_28 
REMARK       I    between atoms: O54_3  and  S55_64 
REMARK       I    between atoms: C41_5  and  C43_30 
REMARK       I    between atoms: C1B_6  and  O1C_53 
REMARK       I    between atoms: O4G_7  and  C4F_62 
REMARK       I    between atoms: O4G_7  and  C50_15 
REMARK       I    between atoms: N5G_8  and  C5F_50 
REMARK       I    between atoms: N5G_8  and  S5H_47 
REMARK       I    between atoms: N1F_9  and  C1E_41 
REMARK       I    between atoms: N1F_9  and  S1G_48 
REMARK       I    between atoms: O3K_10  and  S3H_51 
REMARK       I    between atoms: C5N_11  and  O5M_87 
REMARK       I    between atoms: C21_12  and  C23_57 
REMARK       I    between atoms: C26_13  and  O27_73 
REMARK       I    between atoms: C49_16  and  O4A_21 
REMARK       I    between atoms: O2D_17  and  C2C_35 
REMARK       I    between atoms: O2D_17  and  C30_56 
REMARK       I    between atoms: O1L_18  and  C1K_89 
REMARK       I    between atoms: O1L_18  and  C20_27 
REMARK       I    between atoms: C46_20  and  O47_33 
REMARK       I    between atoms: O4A_21  and  S4B_39 
REMARK       I    between atoms: N3G_22  and  C3F_46 
REMARK       I    between atoms: N3G_22  and  S3H_51 
REMARK       I    between atoms: C40_25  and  O3M_29 
REMARK       I    between atoms: O5I_26  and  S5H_47 
REMARK       I    between atoms: C53_28  and  C51_66 
REMARK       I    between atoms: O3M_29  and  C3L_61 
REMARK       I    between atoms: S17_31  and  O16_86 
REMARK       I    between atoms: O5K_34  and  S5H_47 
REMARK       I    between atoms: O1J_37  and  S1G_48 
REMARK       I    between atoms: C12_38  and  O10_70 
REMARK       I    between atoms: C13_42  and  C15_63 
REMARK       I    between atoms: C29_43  and  O2A_60 
REMARK       I    between atoms: C31_45  and  C33_81 
REMARK       I    between atoms: S5H_47  and  O5J_49 
REMARK       I    between atoms: S1G_48  and  O1H_78 
REMARK       I    between atoms: S3H_51  and  O3J_68 
REMARK       I    between atoms: O3A_54  and  C39_85 
REMARK       I    between atoms: O3A_54  and  S3B_83 
REMARK       I    between atoms: C5L_55  and  O5M_87 
REMARK       I    between atoms: C15_63  and  O16_86 
REMARK       I    between atoms: C59_71  and  O5A_75 
REMARK       I    between atoms: C33_81  and  O34_91 
REMARK       I    between atoms: S35_82  and  O34_91 
ROOT
ATOM      1  O3I NTO d 869      68.358   2.504   6.651  0.00  0.00    -0.296 OA
ATOM      2  O1I NTO d 869      66.323   7.473  21.396  0.00  0.00    -0.296 OA
ATOM      3  O54 NTO d 869      63.114   1.013   4.555  0.00  0.00    -0.254 OA
ATOM      4  O18 NTO d 869      66.692  -0.902  21.817  0.00  0.00    -0.572 OA
ATOM      5  C41 NTO d 869      64.165   4.860   8.525  0.00  0.00     0.152 C 
ATOM      6  C1B NTO d 869      69.636   5.020  20.896  0.00  0.00     0.083 C 
ATOM      7  O4G NTO d 869      62.595   4.338   5.738  0.00  0.00    -0.348 OA
ATOM      8  N5G NTO d 869      58.123   3.049   7.101  0.00  0.00    -0.210 NA
ATOM      9  N1F NTO d 869      68.115   6.593  19.805  0.00  0.00    -0.210 NA
ATOM     10  O3K NTO d 869      70.084   3.826   7.785  0.00  0.00    -0.296 OA
ATOM     11  C5N NTO d 869      57.661   2.099   3.388  0.00  0.00     0.007 C 
ATOM     12  C21 NTO d 869      68.912   3.893  16.125  0.00  0.00     0.152 C 
ATOM     13  C26 NTO d 869      66.995   5.220  16.905  0.00  0.00     0.092 C 
ATOM     14  O4E NTO d 869      64.934   6.468   2.614  0.00  0.00    -0.572 OA
ATOM     15  C50 NTO d 869      61.697   3.222   5.836  0.00  0.00     0.095 C 
ATOM     16  C49 NTO d 869      64.808   5.232   6.040  0.00  0.00     0.134 C 
ATOM     17  O2D NTO d 869      66.752   4.403  13.236  0.00  0.00    -0.348 OA
ATOM     18  O1L NTO d 869      68.579   4.193  18.477  0.00  0.00    -0.348 OA
ATOM     19  O19 NTO d 869      69.070  -1.437  22.081  0.00  0.00    -0.572 OA
ATOM     20  C46 NTO d 869      66.059   5.124   6.912  0.00  0.00     0.094 C 
ATOM     21  O4A NTO d 869      65.172   5.271   4.658  0.00  0.00    -0.244 OA
ATOM     22  N3G NTO d 869      68.579   2.288   9.191  0.00  0.00    -0.210 NA
ATOM     23  O36 NTO d 869      68.813   8.068  14.646  0.00  0.00    -0.572 OA
ATOM     24  O57 NTO d 869      64.564   0.648   2.689  0.00  0.00    -0.572 OA
ATOM     25  C40 NTO d 869      65.650   5.162   8.382  0.00  0.00     0.103 C 
ATOM     26  O5I NTO d 869      58.010   2.077   9.457  0.00  0.00    -0.296 OA
ATOM     27  C20 NTO d 869      67.881   4.020  17.235  0.00  0.00     0.103 C 
ATOM     28  C53 NTO d 869      62.626   2.131   3.810  0.00  0.00     0.067 C 
ATOM     29  O3M NTO d 869      66.418   4.171   9.076  0.00  0.00    -0.348 OA
ATOM     30  C43 NTO d 869      63.882   4.544   9.986  0.00  0.00     0.206 C 
ATOM     31  S17 NTO d 869      68.008  -1.015  21.110  0.00  0.00     0.251 S 
ATOM     32  O45 NTO d 869      64.576   3.663  10.542  0.00  0.00    -0.646 OA
ATOM     33  O47 NTO d 869      66.928   6.225   6.632  0.00  0.00    -0.390 OA
ATOM     34  O5K NTO d 869      55.972   2.071   8.092  0.00  0.00    -0.296 OA
ATOM     35  C2C NTO d 869      67.409   4.726  14.472  0.00  0.00     0.160 C 
ATOM     36  O38 NTO d 869      69.918   9.157  12.757  0.00  0.00    -0.572 OA
ATOM     37  O1J NTO d 869      67.657   9.082  20.119  0.00  0.00    -0.296 OA
ATOM     38  C12 NTO d 869      69.742   3.616  21.498  0.00  0.00     0.089 C 
ATOM     39  S4B NTO d 869      64.917   6.567   4.109  0.00  0.00     0.252 S 
ATOM     40  O4D NTO d 869      65.975   7.526   4.569  0.00  0.00    -0.572 OA
ATOM     41  C1E NTO d 869      68.183   5.316  20.525  0.00  0.00     0.081 C 
ATOM     42  C13 NTO d 869      69.076   2.582  20.587  0.00  0.00     0.090 C 
ATOM     43  C29 NTO d 869      66.344   4.995  15.539  0.00  0.00     0.110 C 
ATOM     44  O42 NTO d 869      63.804   3.735   7.704  0.00  0.00    -0.340 OA
ATOM     45  C31 NTO d 869      67.053   5.672  11.217  0.00  0.00     0.091 C 
ATOM     46  C3F NTO d 869      68.507   3.515  10.005  0.00  0.00     0.083 C 
ATOM     47  S5H NTO d 869      57.464   1.914   8.070  0.00  0.00     0.156 S 
ATOM     48  S1G NTO d 869      67.687   7.771  20.847  0.00  0.00     0.156 S 
ATOM     49  O5J NTO d 869      57.799   0.545   7.558  0.00  0.00    -0.296 OA
ATOM     50  C5F NTO d 869      59.399   2.565   6.554  0.00  0.00     0.081 C 
ATOM     51  S3H NTO d 869      69.356   2.516   7.772  0.00  0.00     0.156 S 
ATOM     52  O25 NTO d 869      70.821   3.048  17.267  0.00  0.00    -0.646 OA
ATOM     53  O1C NTO d 869      70.094   5.983  21.848  0.00  0.00    -0.391 OA
ATOM     54  O3A NTO d 869      68.385   2.260  12.082  0.00  0.00    -0.247 OA
ATOM     55  C5L NTO d 869      59.173   1.982   5.158  0.00  0.00     0.149 C 
ATOM     56  C30 NTO d 869      67.615   4.565  12.099  0.00  0.00     0.096 C 
ATOM     57  C23 NTO d 869      69.870   2.772  16.498  0.00  0.00     0.206 C 
ATOM     58  O3E NTO d 869      66.264   1.323  12.715  0.00  0.00    -0.572 OA
ATOM     59  O14 NTO d 869      67.722   2.959  20.291  0.00  0.00    -0.349 OA
ATOM     60  O2A NTO d 869      65.587   6.151  15.179  0.00  0.00    -0.388 OA
ATOM     61  C3L NTO d 869      67.775   4.609   9.230  0.00  0.00     0.150 C 
ATOM     62  C4F NTO d 869      63.880   4.042   6.304  0.00  0.00     0.161 C 
ATOM     63  C15 NTO d 869      69.033   1.239  21.321  0.00  0.00     0.067 C 
ATOM     64  S55 NTO d 869      64.263   0.282   4.112  0.00  0.00     0.251 S 
ATOM     65  O58 NTO d 869      63.973  -1.186   4.203  0.00  0.00    -0.572 OA
ATOM     66  C51 NTO d 869      61.354   2.686   4.454  0.00  0.00     0.091 C 
ATOM     67  O56 NTO d 869      65.447   0.616   4.969  0.00  0.00    -0.572 OA
ATOM     68  O3J NTO d 869      70.354   1.415   7.564  0.00  0.00    -0.296 OA
ATOM     69  O44 NTO d 869      62.970   5.187  10.568  0.00  0.00    -0.646 OA
ATOM     70  O10 NTO d 869      71.125   3.282  21.640  0.00  0.00    -0.390 OA
ATOM     71  C59 NTO d 869      60.412   3.709   6.505  0.00  0.00     0.083 C 
ATOM     72  O52 NTO d 869      60.412   1.603   4.537  0.00  0.00    -0.349 OA
ATOM     73  O27 NTO d 869      65.972   5.357  17.896  0.00  0.00    -0.390 OA
ATOM     74  O1A NTO d 869      67.895  -2.028  20.011  0.00  0.00    -0.572 OA
ATOM     75  O5A NTO d 869      60.727   4.129   7.836  0.00  0.00    -0.391 OA
ATOM     76  O37 NTO d 869      67.505   9.439  13.100  0.00  0.00    -0.572 OA
ATOM     77  O24 NTO d 869      69.652   1.627  16.034  0.00  0.00    -0.646 OA
ATOM     78  O1H NTO d 869      68.682   7.829  21.967  0.00  0.00    -0.296 OA
ATOM     79  O22 NTO d 869      68.270   3.643  14.861  0.00  0.00    -0.340 OA
ATOM     80  O3D NTO d 869      68.332   0.030  12.946  0.00  0.00    -0.572 OA
ATOM     81  C33 NTO d 869      67.081   6.990  11.997  0.00  0.00     0.067 C 
ATOM     82  S35 NTO d 869      68.658   8.486  13.215  0.00  0.00     0.251 S 
ATOM     83  S3B NTO d 869      67.614   1.054  12.118  0.00  0.00     0.252 S 
ATOM     84  O4C NTO d 869      63.569   7.048   4.557  0.00  0.00    -0.572 OA
ATOM     85  C39 NTO d 869      67.729   3.263  11.298  0.00  0.00     0.108 C 
ATOM     86  O16 NTO d 869      68.353   0.253  20.541  0.00  0.00    -0.254 OA
ATOM     87  O5M NTO d 869      58.400   2.870   4.341  0.00  0.00    -0.364 OA
ATOM     88  O3C NTO d 869      67.440   0.521  10.727  0.00  0.00    -0.572 OA
ATOM     89  C1K NTO d 869      67.678   4.214  19.593  0.00  0.00     0.150 C 
ATOM     90  O32 NTO d 869      67.807   5.819  10.004  0.00  0.00    -0.349 OA
ATOM     91  O34 NTO d 869      68.412   7.337  12.394  0.00  0.00    -0.254 OA
ATOM     92  H   NTO d 869      67.713   3.216   6.786  0.00  0.00     0.231 HD
ATOM     93  H   NTO d 869      65.682   7.436  20.668  0.00  0.00     0.231 HD
ATOM     94  H   NTO d 869      63.590   5.705   8.209  0.00  0.00     0.104 H 
ATOM     95  H   NTO d 869      70.242   5.074  20.016  0.00  0.00     0.089 H 
ATOM     96  H   NTO d 869      57.482   3.252   6.335  0.00  0.00     0.140 HD
ATOM     97  H   NTO d 869      67.421   6.528  19.060  0.00  0.00     0.140 HD
ATOM     98  H   NTO d 869      69.450   4.548   7.919  0.00  0.00     0.231 HD
ATOM     99  H   NTO d 869      57.080   2.754   2.773  0.00  0.00     0.066 H 
ATOM    100  H   NTO d 869      57.011   1.424   3.903  0.00  0.00     0.066 H 
ATOM    101  H   NTO d 869      58.340   1.543   2.776  0.00  0.00     0.066 H 
ATOM    102  H   NTO d 869      69.458   4.807  16.016  0.00  0.00     0.104 H 
ATOM    103  H   NTO d 869      67.591   6.108  16.889  0.00  0.00     0.091 H 
ATOM    104  H   NTO d 869      62.159   2.441   6.402  0.00  0.00     0.091 H 
ATOM    105  H   NTO d 869      64.292   6.136   6.286  0.00  0.00     0.097 H 
ATOM    106  H   NTO d 869      66.567   4.206   6.702  0.00  0.00     0.091 H 
ATOM    107  H   NTO d 869      67.629   1.970   8.995  0.00  0.00     0.140 HD
ATOM    108  H   NTO d 869      65.832   6.133   8.791  0.00  0.00     0.092 H 
ATOM    109  H   NTO d 869      57.793   2.962   9.788  0.00  0.00     0.231 HD
ATOM    110  H   NTO d 869      67.264   3.150  17.321  0.00  0.00     0.092 H 
ATOM    111  H   NTO d 869      62.409   1.820   2.810  0.00  0.00     0.080 H 
ATOM    112  H   NTO d 869      63.374   2.896   3.803  0.00  0.00     0.080 H 
ATOM    113  H   NTO d 869      66.466   7.057   6.823  0.00  0.00     0.210 HD
ATOM    114  H   NTO d 869      55.745   2.954   8.423  0.00  0.00     0.231 HD
ATOM    115  H   NTO d 869      68.013   5.601  14.356  0.00  0.00     0.133 H 
ATOM    116  H   NTO d 869      67.012   9.036  19.396  0.00  0.00     0.231 HD
ATOM    117  H   NTO d 869      69.248   3.608  22.446  0.00  0.00     0.091 H 
ATOM    118  H   NTO d 869      67.588   5.360  21.413  0.00  0.00     0.076 H 
ATOM    119  H   NTO d 869      69.636   2.518  19.678  0.00  0.00     0.090 H 
ATOM    120  H   NTO d 869      65.700   4.143  15.600  0.00  0.00     0.094 H 
ATOM    121  H   NTO d 869      66.050   5.414  10.950  0.00  0.00     0.090 H 
ATOM    122  H   NTO d 869      69.508   3.815  10.235  0.00  0.00     0.076 H 
ATOM    123  H   NTO d 869      58.762   0.433   7.540  0.00  0.00     0.231 HD
ATOM    124  H   NTO d 869      59.789   1.795   7.187  0.00  0.00     0.076 H 
ATOM    125  H   NTO d 869      69.545   5.935  22.647  0.00  0.00     0.210 HD
ATOM    126  H   NTO d 869      58.600   1.085   5.266  0.00  0.00     0.131 H 
ATOM    127  H   NTO d 869      68.596   4.822  12.439  0.00  0.00     0.091 H 
ATOM    128  H   NTO d 869      66.176   6.920  15.126  0.00  0.00     0.210 HD
ATOM    129  H   NTO d 869      68.227   4.792   8.277  0.00  0.00     0.131 H 
ATOM    130  H   NTO d 869      64.272   3.163   5.836  0.00  0.00     0.133 H 
ATOM    131  H   NTO d 869      68.521   1.363  22.252  0.00  0.00     0.080 H 
ATOM    132  H   NTO d 869      70.037   0.909  21.490  0.00  0.00     0.080 H 
ATOM    133  H   NTO d 869      60.932   3.486   3.882  0.00  0.00     0.090 H 
ATOM    134  H   NTO d 869      70.815   1.551   6.721  0.00  0.00     0.231 HD
ATOM    135  H   NTO d 869      71.551   3.295  20.769  0.00  0.00     0.210 HD
ATOM    136  H   NTO d 869      59.993   4.524   5.952  0.00  0.00     0.089 H 
ATOM    137  H   NTO d 869      65.429   4.554  17.914  0.00  0.00     0.210 HD
ATOM    138  H   NTO d 869      61.106   3.385   8.328  0.00  0.00     0.210 HD
ATOM    139  H   NTO d 869      68.695   6.977  22.433  0.00  0.00     0.231 HD
ATOM    140  H   NTO d 869      66.473   6.890  12.871  0.00  0.00     0.080 H 
ATOM    141  H   NTO d 869      66.709   7.765  11.360  0.00  0.00     0.080 H 
ATOM    142  H   NTO d 869      66.746   2.918  11.052  0.00  0.00     0.092 H 
ATOM    143  H   NTO d 869      66.672   4.384  19.270  0.00  0.00     0.131 H 
ENDROOT
TORSDOF 46
ENDMDL
MODEL 42
REMARK VINA RESULT:      -6.7      3.830      4.733
REMARK  0 active torsions:
REMARK  status: ('A' for Active; 'I' for Inactive)
REMARK       I    between atoms: O3I_1  and  S3H_51 
REMARK       I    between atoms: O1I_2  and  S1G_48 
REMARK       I    between atoms: O54_3  and  C53_28 
REMARK       I    between atoms: O54_3  and  S55_64 
REMARK       I    between atoms: C41_5  and  C43_30 
REMARK       I    between atoms: C1B_6  and  O1C_53 
REMARK       I    between atoms: O4G_7  and  C4F_62 
REMARK       I    between atoms: O4G_7  and  C50_15 
REMARK       I    between atoms: N5G_8  and  C5F_50 
REMARK       I    between atoms: N5G_8  and  S5H_47 
REMARK       I    between atoms: N1F_9  and  C1E_41 
REMARK       I    between atoms: N1F_9  and  S1G_48 
REMARK       I    between atoms: O3K_10  and  S3H_51 
REMARK       I    between atoms: C5N_11  and  O5M_87 
REMARK       I    between atoms: C21_12  and  C23_57 
REMARK       I    between atoms: C26_13  and  O27_73 
REMARK       I    between atoms: C49_16  and  O4A_21 
REMARK       I    between atoms: O2D_17  and  C2C_35 
REMARK       I    between atoms: O2D_17  and  C30_56 
REMARK       I    between atoms: O1L_18  and  C1K_89 
REMARK       I    between atoms: O1L_18  and  C20_27 
REMARK       I    between atoms: C46_20  and  O47_33 
REMARK       I    between atoms: O4A_21  and  S4B_39 
REMARK       I    between atoms: N3G_22  and  C3F_46 
REMARK       I    between atoms: N3G_22  and  S3H_51 
REMARK       I    between atoms: C40_25  and  O3M_29 
REMARK       I    between atoms: O5I_26  and  S5H_47 
REMARK       I    between atoms: C53_28  and  C51_66 
REMARK       I    between atoms: O3M_29  and  C3L_61 
REMARK       I    between atoms: S17_31  and  O16_86 
REMARK       I    between atoms: O5K_34  and  S5H_47 
REMARK       I    between atoms: O1J_37  and  S1G_48 
REMARK       I    between atoms: C12_38  and  O10_70 
REMARK       I    between atoms: C13_42  and  C15_63 
REMARK       I    between atoms: C29_43  and  O2A_60 
REMARK       I    between atoms: C31_45  and  C33_81 
REMARK       I    between atoms: S5H_47  and  O5J_49 
REMARK       I    between atoms: S1G_48  and  O1H_78 
REMARK       I    between atoms: S3H_51  and  O3J_68 
REMARK       I    between atoms: O3A_54  and  C39_85 
REMARK       I    between atoms: O3A_54  and  S3B_83 
REMARK       I    between atoms: C5L_55  and  O5M_87 
REMARK       I    between atoms: C15_63  and  O16_86 
REMARK       I    between atoms: C59_71  and  O5A_75 
REMARK       I    between atoms: C33_81  and  O34_91 
REMARK       I    between atoms: S35_82  and  O34_91 
ROOT
ATOM      1  O3I NTO d 869      64.780   4.552  13.345  0.00  0.00    -0.296 OA
ATOM      2  O1I NTO d 869      60.412  -7.623   4.462  0.00  0.00    -0.296 OA
ATOM      3  O54 NTO d 869      68.282   2.502  17.546  0.00  0.00    -0.254 OA
ATOM      4  O18 NTO d 869      55.242  -7.624  11.074  0.00  0.00    -0.572 OA
ATOM      5  C41 NTO d 869      67.557   0.302  12.418  0.00  0.00     0.152 C 
ATOM      6  C1B NTO d 869      57.327  -4.975   5.310  0.00  0.00     0.083 C 
ATOM      7  O4G NTO d 869      69.790   1.263  14.561  0.00  0.00    -0.348 OA
ATOM      8  N5G NTO d 869      70.976  -2.783  16.957  0.00  0.00    -0.210 NA
ATOM      9  N1F NTO d 869      59.746  -5.231   5.055  0.00  0.00    -0.210 NA
ATOM     10  O3K NTO d 869      63.842   4.899  11.106  0.00  0.00    -0.296 OA
ATOM     11  C5N NTO d 869      72.831  -0.386  19.348  0.00  0.00     0.007 C 
ATOM     12  C21 NTO d 869      59.841  -1.984   8.360  0.00  0.00     0.152 C 
ATOM     13  C26 NTO d 869      61.295  -3.874   7.758  0.00  0.00     0.092 C 
ATOM     14  O4E NTO d 869      71.360   5.128  13.021  0.00  0.00    -0.572 OA
ATOM     15  C50 NTO d 869      69.647   0.584  15.818  0.00  0.00     0.095 C 
ATOM     16  C49 NTO d 869      68.793   2.552  12.792  0.00  0.00     0.134 C 
ATOM     17  O2D NTO d 869      63.068  -1.360   9.931  0.00  0.00    -0.348 OA
ATOM     18  O1L NTO d 869      58.873  -3.929   7.353  0.00  0.00    -0.348 OA
ATOM     19  O19 NTO d 869      53.363  -6.185  10.433  0.00  0.00    -0.572 OA
ATOM     20  C46 NTO d 869      67.485   2.773  12.031  0.00  0.00     0.094 C 
ATOM     21  O4A NTO d 869      69.382   3.808  13.135  0.00  0.00    -0.244 OA
ATOM     22  N3G NTO d 869      63.081   2.853  12.465  0.00  0.00    -0.210 NA
ATOM     23  O36 NTO d 869      63.089  -1.001   5.511  0.00  0.00    -0.572 OA
ATOM     24  O57 NTO d 869      68.267   4.857  17.960  0.00  0.00    -0.572 OA
ATOM     25  C40 NTO d 869      66.916   1.420  11.609  0.00  0.00     0.103 C 
ATOM     26  O5I NTO d 869      69.158  -4.572  16.911  0.00  0.00    -0.296 OA
ATOM     27  C20 NTO d 869      59.900  -3.501   8.258  0.00  0.00     0.103 C 
ATOM     28  C53 NTO d 869      69.627   2.704  17.107  0.00  0.00     0.067 C 
ATOM     29  O3M NTO d 869      65.503   1.447  11.846  0.00  0.00    -0.348 OA
ATOM     30  C43 NTO d 869      66.718  -0.955  12.240  0.00  0.00     0.206 C 
ATOM     31  S17 NTO d 869      54.790  -6.206  10.893  0.00  0.00     0.251 S 
ATOM     32  O45 NTO d 869      65.490  -0.879  12.470  0.00  0.00    -0.646 OA
ATOM     33  O47 NTO d 869      67.741   3.564  10.867  0.00  0.00    -0.390 OA
ATOM     34  O5K NTO d 869      71.154  -4.971  18.278  0.00  0.00    -0.296 OA
ATOM     35  C2C NTO d 869      62.152  -1.813   8.921  0.00  0.00     0.160 C 
ATOM     36  O38 NTO d 869      64.112   1.126   4.873  0.00  0.00    -0.572 OA
ATOM     37  O1J NTO d 869      61.242  -5.789   3.066  0.00  0.00    -0.296 OA
ATOM     38  C12 NTO d 869      56.132  -5.332   6.198  0.00  0.00     0.089 C 
ATOM     39  S4B NTO d 869      70.576   4.026  12.377  0.00  0.00     0.252 S 
ATOM     40  O4D NTO d 869      70.217   4.408  10.972  0.00  0.00    -0.572 OA
ATOM     41  C1E NTO d 869      58.577  -5.701   5.808  0.00  0.00     0.081 C 
ATOM     42  C13 NTO d 869      56.469  -5.118   7.676  0.00  0.00     0.090 C 
ATOM     43  C29 NTO d 869      62.336  -3.322   8.733  0.00  0.00     0.110 C 
ATOM     44  O42 NTO d 869      67.608   0.661  13.810  0.00  0.00    -0.340 OA
ATOM     45  C31 NTO d 869      64.749   0.310   9.526  0.00  0.00     0.091 C 
ATOM     46  C3F NTO d 869      63.352   2.202  11.170  0.00  0.00     0.083 C 
ATOM     47  S5H NTO d 869      70.182  -3.933  17.800  0.00  0.00     0.156 S 
ATOM     48  S1G NTO d 869      60.073  -6.291   3.861  0.00  0.00     0.156 S 
ATOM     49  O5J NTO d 869      69.503  -3.321  18.988  0.00  0.00    -0.296 OA
ATOM     50  C5F NTO d 869      70.249  -1.508  17.038  0.00  0.00     0.081 C 
ATOM     51  S3H NTO d 869      63.549   4.418  12.496  0.00  0.00     0.156 S 
ATOM     52  O25 NTO d 869      57.570  -1.506   7.833  0.00  0.00    -0.646 OA
ATOM     53  O1C NTO d 869      57.053  -5.362   3.961  0.00  0.00    -0.391 OA
ATOM     54  O3A NTO d 869      61.538   0.613  11.468  0.00  0.00    -0.247 OA
ATOM     55  C5L NTO d 869      70.851  -0.640  18.146  0.00  0.00     0.149 C 
ATOM     56  C30 NTO d 869      63.287   0.059   9.874  0.00  0.00     0.096 C 
ATOM     57  C23 NTO d 869      58.423  -1.594   8.748  0.00  0.00     0.206 C 
ATOM     58  O3E NTO d 869      61.926  -1.294  12.878  0.00  0.00    -0.572 OA
ATOM     59  O14 NTO d 869      57.663  -5.831   8.037  0.00  0.00    -0.349 OA
ATOM     60  O2A NTO d 869      63.645  -3.585   8.227  0.00  0.00    -0.388 OA
ATOM     61  C3L NTO d 869      64.847   2.260  10.864  0.00  0.00     0.150 C 
ATOM     62  C4F NTO d 869      68.531   1.732  14.058  0.00  0.00     0.161 C 
ATOM     63  C15 NTO d 869      55.322  -5.673   8.525  0.00  0.00     0.067 C 
ATOM     64  S55 NTO d 869      67.433   3.616  17.845  0.00  0.00     0.251 S 
ATOM     65  O58 NTO d 869      66.729   3.361  19.143  0.00  0.00    -0.572 OA
ATOM     66  C51 NTO d 869      70.337   1.360  16.929  0.00  0.00     0.091 C 
ATOM     67  O56 NTO d 869      66.422   3.799  16.752  0.00  0.00    -0.572 OA
ATOM     68  O3J NTO d 869      62.450   5.260  13.073  0.00  0.00    -0.296 OA
ATOM     69  O44 NTO d 869      67.297  -2.007  11.863  0.00  0.00    -0.646 OA
ATOM     70  O10 NTO d 869      55.034  -4.487   5.849  0.00  0.00    -0.390 OA
ATOM     71  C59 NTO d 869      70.312  -0.786  15.692  0.00  0.00     0.083 C 
ATOM     72  O52 NTO d 869      70.246   0.663  18.182  0.00  0.00    -0.349 OA
ATOM     73  O27 NTO d 869      61.424  -5.297   7.690  0.00  0.00    -0.390 OA
ATOM     74  O1A NTO d 869      54.913  -5.477  12.196  0.00  0.00    -0.572 OA
ATOM     75  O5A NTO d 869      69.602  -1.544  14.707  0.00  0.00    -0.391 OA
ATOM     76  O37 NTO d 869      65.525  -0.778   5.507  0.00  0.00    -0.572 OA
ATOM     77  O24 NTO d 869      58.175  -1.398   9.962  0.00  0.00    -0.646 OA
ATOM     78  O1H NTO d 869      58.871  -6.427   2.974  0.00  0.00    -0.296 OA
ATOM     79  O22 NTO d 869      60.805  -1.501   9.312  0.00  0.00    -0.340 OA
ATOM     80  O3D NTO d 869      59.825  -0.039  13.004  0.00  0.00    -0.572 OA
ATOM     81  C33 NTO d 869      65.029  -0.248   8.127  0.00  0.00     0.067 C 
ATOM     82  S35 NTO d 869      64.231  -0.067   5.774  0.00  0.00     0.251 S 
ATOM     83  S3B NTO d 869      61.303   0.067  12.770  0.00  0.00     0.252 S 
ATOM     84  O4C NTO d 869      71.401   2.773  12.367  0.00  0.00    -0.572 OA
ATOM     85  C39 NTO d 869      62.942   0.729  11.208  0.00  0.00     0.108 C 
ATOM     86  O16 NTO d 869      55.619  -5.564   9.918  0.00  0.00    -0.254 OA
ATOM     87  O5M NTO d 869      72.279  -0.579  18.042  0.00  0.00    -0.364 OA
ATOM     88  O3C NTO d 869      61.898   0.966  13.812  0.00  0.00    -0.572 OA
ATOM     89  C1K NTO d 869      58.791  -5.360   7.284  0.00  0.00     0.150 C 
ATOM     90  O32 NTO d 869      65.068   1.710   9.555  0.00  0.00    -0.349 OA
ATOM     91  O34 NTO d 869      64.199   0.371   7.139  0.00  0.00    -0.254 OA
ATOM     92  H   NTO d 869      65.491   4.008  12.973  0.00  0.00     0.231 HD
ATOM     93  H   NTO d 869      61.190  -7.530   5.035  0.00  0.00     0.231 HD
ATOM     94  H   NTO d 869      68.557   0.133  12.077  0.00  0.00     0.104 H 
ATOM     95  H   NTO d 869      57.495  -3.919   5.350  0.00  0.00     0.089 H 
ATOM     96  H   NTO d 869      71.911  -2.664  17.346  0.00  0.00     0.140 HD
ATOM     97  H   NTO d 869      60.550  -5.162   5.679  0.00  0.00     0.140 HD
ATOM     98  H   NTO d 869      64.552   4.362  10.721  0.00  0.00     0.231 HD
ATOM     99  H   NTO d 869      73.897  -0.339  19.281  0.00  0.00     0.066 H 
ATOM    100  H   NTO d 869      72.548  -1.202  19.980  0.00  0.00     0.066 H 
ATOM    101  H   NTO d 869      72.458   0.529  19.760  0.00  0.00     0.066 H 
ATOM    102  H   NTO d 869      60.089  -1.537   7.419  0.00  0.00     0.104 H 
ATOM    103  H   NTO d 869      61.446  -3.460   6.783  0.00  0.00     0.091 H 
ATOM    104  H   NTO d 869      68.608   0.493  16.057  0.00  0.00     0.091 H 
ATOM    105  H   NTO d 869      69.471   2.013  12.163  0.00  0.00     0.097 H 
ATOM    106  H   NTO d 869      66.783   3.279  12.660  0.00  0.00     0.091 H 
ATOM    107  H   NTO d 869      63.584   2.348  13.196  0.00  0.00     0.140 HD
ATOM    108  H   NTO d 869      67.120   1.241  10.574  0.00  0.00     0.092 H 
ATOM    109  H   NTO d 869      69.598  -4.968  16.143  0.00  0.00     0.231 HD
ATOM    110  H   NTO d 869      59.733  -3.980   9.200  0.00  0.00     0.092 H 
ATOM    111  H   NTO d 869      70.151   3.287  17.835  0.00  0.00     0.080 H 
ATOM    112  H   NTO d 869      69.612   3.216  16.168  0.00  0.00     0.080 H 
ATOM    113  H   NTO d 869      68.378   3.104  10.297  0.00  0.00     0.210 HD
ATOM    114  H   NTO d 869      71.599  -5.374  17.516  0.00  0.00     0.231 HD
ATOM    115  H   NTO d 869      62.347  -1.321   7.992  0.00  0.00     0.133 H 
ATOM    116  H   NTO d 869      62.014  -5.703   3.646  0.00  0.00     0.231 HD
ATOM    117  H   NTO d 869      55.885  -6.362   6.048  0.00  0.00     0.091 H 
ATOM    118  H   NTO d 869      58.455  -6.756   5.679  0.00  0.00     0.076 H 
ATOM    119  H   NTO d 869      56.613  -4.071   7.843  0.00  0.00     0.090 H 
ATOM    120  H   NTO d 869      62.209  -3.801   9.681  0.00  0.00     0.094 H 
ATOM    121  H   NTO d 869      65.357  -0.180  10.257  0.00  0.00     0.090 H 
ATOM    122  H   NTO d 869      62.788   2.719  10.421  0.00  0.00     0.076 H 
ATOM    123  H   NTO d 869      68.872  -2.648  18.689  0.00  0.00     0.231 HD
ATOM    124  H   NTO d 869      69.222  -1.697  17.273  0.00  0.00     0.076 H 
ATOM    125  H   NTO d 869      56.901  -6.320   3.924  0.00  0.00     0.210 HD
ATOM    126  H   NTO d 869      70.629  -1.106  19.083  0.00  0.00     0.131 H 
ATOM    127  H   NTO d 869      62.649   0.481   9.125  0.00  0.00     0.091 H 
ATOM    128  H   NTO d 869      63.754  -3.148   7.368  0.00  0.00     0.210 HD
ATOM    129  H   NTO d 869      65.220   3.263  10.889  0.00  0.00     0.131 H 
ATOM    130  H   NTO d 869      68.067   2.346  14.801  0.00  0.00     0.133 H 
ATOM    131  H   NTO d 869      55.170  -6.703   8.279  0.00  0.00     0.080 H 
ATOM    132  H   NTO d 869      54.437  -5.107   8.318  0.00  0.00     0.080 H 
ATOM    133  H   NTO d 869      71.365   1.484  16.660  0.00  0.00     0.090 H 
ATOM    134  H   NTO d 869      62.729   6.189  13.091  0.00  0.00     0.231 HD
ATOM    135  H   NTO d 869      55.280  -3.561   5.993  0.00  0.00     0.210 HD
ATOM    136  H   NTO d 869      71.336  -0.675  15.402  0.00  0.00     0.089 H 
ATOM    137  H   NTO d 869      61.287  -5.677   8.572  0.00  0.00     0.210 HD
ATOM    138  H   NTO d 869      68.676  -1.638  14.978  0.00  0.00     0.210 HD
ATOM    139  H   NTO d 869      58.119  -6.752   3.495  0.00  0.00     0.231 HD
ATOM    140  H   NTO d 869      64.841  -1.301   8.129  0.00  0.00     0.080 H 
ATOM    141  H   NTO d 869      66.051  -0.042   7.883  0.00  0.00     0.080 H 
ATOM    142  H   NTO d 869      63.478   0.239  11.993  0.00  0.00     0.092 H 
ATOM    143  H   NTO d 869      59.675  -5.814   7.682  0.00  0.00     0.131 H 
ENDROOT
TORSDOF 46
ENDMDL
MODEL 43
REMARK VINA RESULT:      -6.6      5.331     10.162
REMARK  0 active torsions:
REMARK  status: ('A' for Active; 'I' for Inactive)
REMARK       I    between atoms: O3I_1  and  S3H_51 
REMARK       I    between atoms: O1I_2  and  S1G_48 
REMARK       I    between atoms: O54_3  and  C53_28 
REMARK       I    between atoms: O54_3  and  S55_64 
REMARK       I    between atoms: C41_5  and  C43_30 
REMARK       I    between atoms: C1B_6  and  O1C_53 
REMARK       I    between atoms: O4G_7  and  C4F_62 
REMARK       I    between atoms: O4G_7  and  C50_15 
REMARK       I    between atoms: N5G_8  and  C5F_50 
REMARK       I    between atoms: N5G_8  and  S5H_47 
REMARK       I    between atoms: N1F_9  and  C1E_41 
REMARK       I    between atoms: N1F_9  and  S1G_48 
REMARK       I    between atoms: O3K_10  and  S3H_51 
REMARK       I    between atoms: C5N_11  and  O5M_87 
REMARK       I    between atoms: C21_12  and  C23_57 
REMARK       I    between atoms: C26_13  and  O27_73 
REMARK       I    between atoms: C49_16  and  O4A_21 
REMARK       I    between atoms: O2D_17  and  C2C_35 
REMARK       I    between atoms: O2D_17  and  C30_56 
REMARK       I    between atoms: O1L_18  and  C1K_89 
REMARK       I    between atoms: O1L_18  and  C20_27 
REMARK       I    between atoms: C46_20  and  O47_33 
REMARK       I    between atoms: O4A_21  and  S4B_39 
REMARK       I    between atoms: N3G_22  and  C3F_46 
REMARK       I    between atoms: N3G_22  and  S3H_51 
REMARK       I    between atoms: C40_25  and  O3M_29 
REMARK       I    between atoms: O5I_26  and  S5H_47 
REMARK       I    between atoms: C53_28  and  C51_66 
REMARK       I    between atoms: O3M_29  and  C3L_61 
REMARK       I    between atoms: S17_31  and  O16_86 
REMARK       I    between atoms: O5K_34  and  S5H_47 
REMARK       I    between atoms: O1J_37  and  S1G_48 
REMARK       I    between atoms: C12_38  and  O10_70 
REMARK       I    between atoms: C13_42  and  C15_63 
REMARK       I    between atoms: C29_43  and  O2A_60 
REMARK       I    between atoms: C31_45  and  C33_81 
REMARK       I    between atoms: S5H_47  and  O5J_49 
REMARK       I    between atoms: S1G_48  and  O1H_78 
REMARK       I    between atoms: S3H_51  and  O3J_68 
REMARK       I    between atoms: O3A_54  and  C39_85 
REMARK       I    between atoms: O3A_54  and  S3B_83 
REMARK       I    between atoms: C5L_55  and  O5M_87 
REMARK       I    between atoms: C15_63  and  O16_86 
REMARK       I    between atoms: C59_71  and  O5A_75 
REMARK       I    between atoms: C33_81  and  O34_91 
REMARK       I    between atoms: S35_82  and  O34_91 
ROOT
ATOM      1  O3I NTO d 869      64.174  -4.921   6.534  0.00  0.00    -0.296 OA
ATOM      2  O1I NTO d 869      55.840   7.303  11.764  0.00  0.00    -0.296 OA
ATOM      3  O54 NTO d 869      68.592  -2.809   3.350  0.00  0.00    -0.254 OA
ATOM      4  O18 NTO d 869      53.114   5.825   3.965  0.00  0.00    -0.572 OA
ATOM      5  C41 NTO d 869      66.009  -0.223   7.629  0.00  0.00     0.152 C 
ATOM      6  C1B NTO d 869      53.511   4.141  10.415  0.00  0.00     0.083 C 
ATOM      7  O4G NTO d 869      68.908  -1.050   6.436  0.00  0.00    -0.348 OA
ATOM      8  N5G NTO d 869      70.342   2.858   3.948  0.00  0.00    -0.210 NA
ATOM      9  N1F NTO d 869      55.674   4.789  11.356  0.00  0.00    -0.210 NA
ATOM     10  O3K NTO d 869      62.608  -5.172   8.406  0.00  0.00    -0.296 OA
ATOM     11  C5N NTO d 869      73.125   0.536   2.619  0.00  0.00     0.007 C 
ATOM     12  C21 NTO d 869      57.192   1.268   8.754  0.00  0.00     0.152 C 
ATOM     13  C26 NTO d 869      58.153   3.410   9.486  0.00  0.00     0.092 C 
ATOM     14  O4E NTO d 869      70.319  -4.448   8.933  0.00  0.00    -0.572 OA
ATOM     15  C50 NTO d 869      69.102  -0.535   5.110  0.00  0.00     0.095 C 
ATOM     16  C49 NTO d 869      67.543  -2.284   7.986  0.00  0.00     0.134 C 
ATOM     17  O2D NTO d 869      60.802   0.983   8.353  0.00  0.00    -0.348 OA
ATOM     18  O1L NTO d 869      55.740   3.136   9.119  0.00  0.00    -0.348 OA
ATOM     19  O19 NTO d 869      51.302   4.190   4.207  0.00  0.00    -0.572 OA
ATOM     20  C46 NTO d 869      66.093  -2.622   8.335  0.00  0.00     0.094 C 
ATOM     21  O4A NTO d 869      68.348  -3.465   8.028  0.00  0.00    -0.244 OA
ATOM     22  N3G NTO d 869      62.104  -3.419   6.593  0.00  0.00    -0.210 NA
ATOM     23  O36 NTO d 869      59.436   1.095  12.570  0.00  0.00    -0.572 OA
ATOM     24  O57 NTO d 869      68.974  -5.169   3.303  0.00  0.00    -0.572 OA
ATOM     25  C40 NTO d 869      65.271  -1.336   8.359  0.00  0.00     0.103 C 
ATOM     26  O5I NTO d 869      68.418   4.343   3.173  0.00  0.00    -0.296 OA
ATOM     27  C20 NTO d 869      57.045   2.778   8.645  0.00  0.00     0.103 C 
ATOM     28  C53 NTO d 869      69.736  -2.757   4.203  0.00  0.00     0.067 C 
ATOM     29  O3M NTO d 869      64.023  -1.602   7.709  0.00  0.00    -0.348 OA
ATOM     30  C43 NTO d 869      65.023   0.902   7.355  0.00  0.00     0.206 C 
ATOM     31  S17 NTO d 869      52.790   4.381   4.206  0.00  0.00     0.251 S 
ATOM     32  O45 NTO d 869      63.951   0.616   6.775  0.00  0.00    -0.646 OA
ATOM     33  O47 NTO d 869      66.047  -3.239   9.625  0.00  0.00    -0.390 OA
ATOM     34  O5K NTO d 869      70.691   4.897   2.437  0.00  0.00    -0.296 OA
ATOM     35  C2C NTO d 869      59.564   1.394   8.956  0.00  0.00     0.160 C 
ATOM     36  O38 NTO d 869      60.429  -0.772  13.796  0.00  0.00    -0.572 OA
ATOM     37  O1J NTO d 869      56.375   5.773  13.601  0.00  0.00    -0.296 OA
ATOM     38  C12 NTO d 869      52.635   4.217   9.162  0.00  0.00     0.089 C 
ATOM     39  S4B NTO d 869      69.250  -3.417   9.137  0.00  0.00     0.252 S 
ATOM     40  O4D NTO d 869      68.503  -3.701  10.407  0.00  0.00    -0.572 OA
ATOM     41  C1E NTO d 869      54.766   4.994  10.221  0.00  0.00     0.081 C 
ATOM     42  C13 NTO d 869      53.451   3.903   7.906  0.00  0.00     0.090 C 
ATOM     43  C29 NTO d 869      59.508   2.924   8.967  0.00  0.00     0.110 C 
ATOM     44  O42 NTO d 869      66.546  -0.713   6.388  0.00  0.00    -0.340 OA
ATOM     45  C31 NTO d 869      62.438  -0.358   9.493  0.00  0.00     0.091 C 
ATOM     46  C3F NTO d 869      61.867  -2.603   7.798  0.00  0.00     0.083 C 
ATOM     47  S5H NTO d 869      69.739   3.779   2.744  0.00  0.00     0.156 S 
ATOM     48  S1G NTO d 869      55.477   6.004  12.423  0.00  0.00     0.156 S 
ATOM     49  O5J NTO d 869      69.553   2.950   1.509  0.00  0.00    -0.296 OA
ATOM     50  C5F NTO d 869      69.827   1.485   3.838  0.00  0.00     0.081 C 
ATOM     51  S3H NTO d 869      62.728  -4.889   6.938  0.00  0.00     0.156 S 
ATOM     52  O25 NTO d 869      54.942   0.506   8.626  0.00  0.00    -0.646 OA
ATOM     53  O1C NTO d 869      52.775   4.620  11.543  0.00  0.00    -0.391 OA
ATOM     54  O3A NTO d 869      60.081  -1.349   6.731  0.00  0.00    -0.247 OA
ATOM     55  C5L NTO d 869      70.847   0.609   3.107  0.00  0.00     0.149 C 
ATOM     56  C30 NTO d 869      61.148  -0.371   8.683  0.00  0.00     0.096 C 
ATOM     57  C23 NTO d 869      56.028   0.627   8.013  0.00  0.00     0.206 C 
ATOM     58  O3E NTO d 869      60.687   0.437   5.241  0.00  0.00    -0.572 OA
ATOM     59  O14 NTO d 869      54.610   4.749   7.826  0.00  0.00    -0.349 OA
ATOM     60  O2A NTO d 869      60.546   3.436   9.804  0.00  0.00    -0.388 OA
ATOM     61  C3L NTO d 869      63.180  -2.399   8.552  0.00  0.00     0.150 C 
ATOM     62  C4F NTO d 869      67.614  -1.650   6.594  0.00  0.00     0.161 C 
ATOM     63  C15 NTO d 869      52.585   4.186   6.675  0.00  0.00     0.067 C 
ATOM     64  S55 NTO d 869      68.014  -4.065   2.974  0.00  0.00     0.251 S 
ATOM     65  O58 NTO d 869      67.743  -4.057   1.500  0.00  0.00    -0.572 OA
ATOM     66  C51 NTO d 869      70.196  -1.309   4.389  0.00  0.00     0.091 C 
ATOM     67  O56 NTO d 869      66.733  -4.285   3.721  0.00  0.00    -0.572 OA
ATOM     68  O3J NTO d 869      61.975  -5.945   6.183  0.00  0.00    -0.296 OA
ATOM     69  O44 NTO d 869      65.327   2.064   7.731  0.00  0.00    -0.646 OA
ATOM     70  O10 NTO d 869      51.584   3.255   9.279  0.00  0.00    -0.390 OA
ATOM     71  C59 NTO d 869      69.533   0.926   5.230  0.00  0.00     0.083 C 
ATOM     72  O52 NTO d 869      70.437  -0.768   3.080  0.00  0.00    -0.349 OA
ATOM     73  O27 NTO d 869      58.093   4.835   9.379  0.00  0.00    -0.390 OA
ATOM     74  O1A NTO d 869      53.407   3.547   3.126  0.00  0.00    -0.572 OA
ATOM     75  O5A NTO d 869      68.463   1.664   5.828  0.00  0.00    -0.391 OA
ATOM     76  O37 NTO d 869      61.749   1.248  13.351  0.00  0.00    -0.572 OA
ATOM     77  O24 NTO d 869      56.209   0.270   6.825  0.00  0.00    -0.646 OA
ATOM     78  O1H NTO d 869      54.046   6.047  12.870  0.00  0.00    -0.296 OA
ATOM     79  O22 NTO d 869      58.459   0.841   8.223  0.00  0.00    -0.340 OA
ATOM     80  O3D NTO d 869      58.894  -1.130   4.666  0.00  0.00    -0.572 OA
ATOM     81  C33 NTO d 869      62.188   0.378  10.812  0.00  0.00     0.067 C 
ATOM     82  S35 NTO d 869      60.699   0.324  12.809  0.00  0.00     0.251 S 
ATOM     83  S3B NTO d 869      60.219  -0.985   5.353  0.00  0.00     0.252 S 
ATOM     84  O4C NTO d 869      69.882  -2.059   9.215  0.00  0.00    -0.572 OA
ATOM     85  C39 NTO d 869      61.329  -1.222   7.421  0.00  0.00     0.108 C 
ATOM     86  O16 NTO d 869      53.327   3.978   5.472  0.00  0.00    -0.254 OA
ATOM     87  O5M NTO d 869      72.163   0.778   3.650  0.00  0.00    -0.364 OA
ATOM     88  O3C NTO d 869      61.215  -1.885   4.687  0.00  0.00    -0.572 OA
ATOM     89  C1K NTO d 869      55.481   4.537   8.948  0.00  0.00     0.150 C 
ATOM     90  O32 NTO d 869      62.904  -1.688   9.770  0.00  0.00    -0.349 OA
ATOM     91  O34 NTO d 869      61.158  -0.253  11.580  0.00  0.00    -0.254 OA
ATOM     92  H   NTO d 869      64.661  -4.239   7.022  0.00  0.00     0.231 HD
ATOM     93  H   NTO d 869      56.767   7.271  11.477  0.00  0.00     0.231 HD
ATOM     94  H   NTO d 869      66.821   0.131   8.230  0.00  0.00     0.104 H 
ATOM     95  H   NTO d 869      53.800   3.125  10.584  0.00  0.00     0.089 H 
ATOM     96  H   NTO d 869      71.360   2.843   3.885  0.00  0.00     0.140 HD
ATOM     97  H   NTO d 869      56.638   4.778  11.024  0.00  0.00     0.140 HD
ATOM     98  H   NTO d 869      63.092  -4.495   8.906  0.00  0.00     0.231 HD
ATOM     99  H   NTO d 869      74.111   0.660   3.014  0.00  0.00     0.066 H 
ATOM    100  H   NTO d 869      72.972   1.229   1.818  0.00  0.00     0.066 H 
ATOM    101  H   NTO d 869      73.010  -0.463   2.252  0.00  0.00     0.066 H 
ATOM    102  H   NTO d 869      57.172   0.965   9.780  0.00  0.00     0.104 H 
ATOM    103  H   NTO d 869      58.027   3.128  10.510  0.00  0.00     0.091 H 
ATOM    104  H   NTO d 869      68.193  -0.630   4.555  0.00  0.00     0.091 H 
ATOM    105  H   NTO d 869      67.918  -1.585   8.705  0.00  0.00     0.097 H 
ATOM    106  H   NTO d 869      65.693  -3.292   7.603  0.00  0.00     0.091 H 
ATOM    107  H   NTO d 869      62.755  -2.922   5.985  0.00  0.00     0.140 HD
ATOM    108  H   NTO d 869      65.109  -1.020   9.368  0.00  0.00     0.092 H 
ATOM    109  H   NTO d 869      68.539   4.879   3.972  0.00  0.00     0.231 HD
ATOM    110  H   NTO d 869      57.139   3.125   7.637  0.00  0.00     0.092 H 
ATOM    111  H   NTO d 869      70.529  -3.325   3.765  0.00  0.00     0.080 H 
ATOM    112  H   NTO d 869      69.477  -3.164   5.158  0.00  0.00     0.080 H 
ATOM    113  H   NTO d 869      66.410  -2.630  10.287  0.00  0.00     0.210 HD
ATOM    114  H   NTO d 869      70.819   5.441   3.232  0.00  0.00     0.231 HD
ATOM    115  H   NTO d 869      59.504   1.037   9.963  0.00  0.00     0.133 H 
ATOM    116  H   NTO d 869      57.298   5.746  13.304  0.00  0.00     0.231 HD
ATOM    117  H   NTO d 869      52.239   5.207   9.076  0.00  0.00     0.091 H 
ATOM    118  H   NTO d 869      54.491   6.026  10.150  0.00  0.00     0.076 H 
ATOM    119  H   NTO d 869      53.758   2.879   7.947  0.00  0.00     0.090 H 
ATOM    120  H   NTO d 869      59.641   3.278   7.966  0.00  0.00     0.094 H 
ATOM    121  H   NTO d 869      63.191   0.140   8.920  0.00  0.00     0.090 H 
ATOM    122  H   NTO d 869      61.154  -3.118   8.407  0.00  0.00     0.076 H 
ATOM    123  H   NTO d 869      68.938   2.223   1.697  0.00  0.00     0.231 HD
ATOM    124  H   NTO d 869      68.917   1.490   3.276  0.00  0.00     0.076 H 
ATOM    125  H   NTO d 869      52.513   5.542  11.390  0.00  0.00     0.210 HD
ATOM    126  H   NTO d 869      70.889   0.935   2.090  0.00  0.00     0.131 H 
ATOM    127  H   NTO d 869      60.355  -0.805   9.254  0.00  0.00     0.091 H 
ATOM    128  H   NTO d 869      60.420   3.113  10.710  0.00  0.00     0.210 HD
ATOM    129  H   NTO d 869      63.651  -3.331   8.790  0.00  0.00     0.131 H 
ATOM    130  H   NTO d 869      67.486  -2.403   5.844  0.00  0.00     0.133 H 
ATOM    131  H   NTO d 869      52.248   5.200   6.709  0.00  0.00     0.080 H 
ATOM    132  H   NTO d 869      51.751   3.516   6.683  0.00  0.00     0.080 H 
ATOM    133  H   NTO d 869      71.089  -1.245   4.975  0.00  0.00     0.090 H 
ATOM    134  H   NTO d 869      62.347  -6.816   6.389  0.00  0.00     0.231 HD
ATOM    135  H   NTO d 869      51.966   2.367   9.356  0.00  0.00     0.210 HD
ATOM    136  H   NTO d 869      70.415   1.003   5.832  0.00  0.00     0.089 H 
ATOM    137  H   NTO d 869      58.207   5.096   8.452  0.00  0.00     0.210 HD
ATOM    138  H   NTO d 869      67.670   1.587   5.276  0.00  0.00     0.210 HD
ATOM    139  H   NTO d 869      53.471   6.198  12.102  0.00  0.00     0.231 HD
ATOM    140  H   NTO d 869      61.894   1.384  10.599  0.00  0.00     0.080 H 
ATOM    141  H   NTO d 869      63.092   0.358  11.384  0.00  0.00     0.080 H 
ATOM    142  H   NTO d 869      62.032  -0.740   6.773  0.00  0.00     0.092 H 
ATOM    143  H   NTO d 869      56.389   5.077   8.776  0.00  0.00     0.131 H 
ENDROOT
TORSDOF 46
ENDMDL
MODEL 44
REMARK VINA RESULT:      -6.6      3.841      7.010
REMARK  0 active torsions:
REMARK  status: ('A' for Active; 'I' for Inactive)
REMARK       I    between atoms: O3I_1  and  S3H_51 
REMARK       I    between atoms: O1I_2  and  S1G_48 
REMARK       I    between atoms: O54_3  and  C53_28 
REMARK       I    between atoms: O54_3  and  S55_64 
REMARK       I    between atoms: C41_5  and  C43_30 
REMARK       I    between atoms: C1B_6  and  O1C_53 
REMARK       I    between atoms: O4G_7  and  C4F_62 
REMARK       I    between atoms: O4G_7  and  C50_15 
REMARK       I    between atoms: N5G_8  and  C5F_50 
REMARK       I    between atoms: N5G_8  and  S5H_47 
REMARK       I    between atoms: N1F_9  and  C1E_41 
REMARK       I    between atoms: N1F_9  and  S1G_48 
REMARK       I    between atoms: O3K_10  and  S3H_51 
REMARK       I    between atoms: C5N_11  and  O5M_87 
REMARK       I    between atoms: C21_12  and  C23_57 
REMARK       I    between atoms: C26_13  and  O27_73 
REMARK       I    between atoms: C49_16  and  O4A_21 
REMARK       I    between atoms: O2D_17  and  C2C_35 
REMARK       I    between atoms: O2D_17  and  C30_56 
REMARK       I    between atoms: O1L_18  and  C1K_89 
REMARK       I    between atoms: O1L_18  and  C20_27 
REMARK       I    between atoms: C46_20  and  O47_33 
REMARK       I    between atoms: O4A_21  and  S4B_39 
REMARK       I    between atoms: N3G_22  and  C3F_46 
REMARK       I    between atoms: N3G_22  and  S3H_51 
REMARK       I    between atoms: C40_25  and  O3M_29 
REMARK       I    between atoms: O5I_26  and  S5H_47 
REMARK       I    between atoms: C53_28  and  C51_66 
REMARK       I    between atoms: O3M_29  and  C3L_61 
REMARK       I    between atoms: S17_31  and  O16_86 
REMARK       I    between atoms: O5K_34  and  S5H_47 
REMARK       I    between atoms: O1J_37  and  S1G_48 
REMARK       I    between atoms: C12_38  and  O10_70 
REMARK       I    between atoms: C13_42  and  C15_63 
REMARK       I    between atoms: C29_43  and  O2A_60 
REMARK       I    between atoms: C31_45  and  C33_81 
REMARK       I    between atoms: S5H_47  and  O5J_49 
REMARK       I    between atoms: S1G_48  and  O1H_78 
REMARK       I    between atoms: S3H_51  and  O3J_68 
REMARK       I    between atoms: O3A_54  and  C39_85 
REMARK       I    between atoms: O3A_54  and  S3B_83 
REMARK       I    between atoms: C5L_55  and  O5M_87 
REMARK       I    between atoms: C15_63  and  O16_86 
REMARK       I    between atoms: C59_71  and  O5A_75 
REMARK       I    between atoms: C33_81  and  O34_91 
REMARK       I    between atoms: S35_82  and  O34_91 
ROOT
ATOM      1  O3I NTO d 869      66.643  -3.046   6.856  0.00  0.00    -0.296 OA
ATOM      2  O1I NTO d 869      52.561   3.346   9.521  0.00  0.00    -0.296 OA
ATOM      3  O54 NTO d 869      69.979  -1.969  11.528  0.00  0.00    -0.254 OA
ATOM      4  O18 NTO d 869      57.419   9.575   6.686  0.00  0.00    -0.572 OA
ATOM      5  C41 NTO d 869      64.375  -2.472  11.457  0.00  0.00     0.152 C 
ATOM      6  C1B NTO d 869      53.972   3.949   5.663  0.00  0.00     0.083 C 
ATOM      7  O4G NTO d 869      67.074  -3.480  12.941  0.00  0.00    -0.348 OA
ATOM      8  N5G NTO d 869      67.518  -0.528  16.763  0.00  0.00    -0.210 NA
ATOM      9  N1F NTO d 869      54.056   2.501   7.632  0.00  0.00    -0.210 NA
ATOM     10  O3K NTO d 869      64.685  -3.716   5.540  0.00  0.00    -0.296 OA
ATOM     11  C5N NTO d 869      71.024  -2.106  17.110  0.00  0.00     0.007 C 
ATOM     12  C21 NTO d 869      58.440   1.888   6.261  0.00  0.00     0.152 C 
ATOM     13  C26 NTO d 869      57.305   1.921   8.442  0.00  0.00     0.092 C 
ATOM     14  O4E NTO d 869      67.776  -7.625  11.491  0.00  0.00    -0.572 OA
ATOM     15  C50 NTO d 869      67.833  -2.381  13.466  0.00  0.00     0.095 C 
ATOM     16  C49 NTO d 869      65.947  -4.500  11.077  0.00  0.00     0.134 C 
ATOM     17  O2D NTO d 869      60.661   0.218   8.618  0.00  0.00    -0.348 OA
ATOM     18  O1L NTO d 869      56.503   3.265   6.550  0.00  0.00    -0.348 OA
ATOM     19  O19 NTO d 869      57.190   9.522   4.245  0.00  0.00    -0.572 OA
ATOM     20  C46 NTO d 869      65.156  -4.183   9.807  0.00  0.00     0.094 C 
ATOM     21  O4A NTO d 869      66.924  -5.509  10.810  0.00  0.00    -0.244 OA
ATOM     22  N3G NTO d 869      64.800  -1.316   6.454  0.00  0.00    -0.210 NA
ATOM     23  O36 NTO d 869      56.976  -2.054   7.657  0.00  0.00    -0.572 OA
ATOM     24  O57 NTO d 869      71.415  -3.274  10.130  0.00  0.00    -0.572 OA
ATOM     25  C40 NTO d 869      64.069  -3.162  10.135  0.00  0.00     0.103 C 
ATOM     26  O5I NTO d 869      66.340   1.715  16.467  0.00  0.00    -0.296 OA
ATOM     27  C20 NTO d 869      57.667   2.773   7.227  0.00  0.00     0.103 C 
ATOM     28  C53 NTO d 869      69.924  -3.130  12.359  0.00  0.00     0.067 C 
ATOM     29  O3M NTO d 869      64.040  -2.198   9.076  0.00  0.00    -0.348 OA
ATOM     30  C43 NTO d 869      63.498  -1.234  11.561  0.00  0.00     0.206 C 
ATOM     31  S17 NTO d 869      57.831   8.866   5.432  0.00  0.00     0.251 S 
ATOM     32  O45 NTO d 869      63.517  -0.418  10.611  0.00  0.00    -0.646 OA
ATOM     33  O47 NTO d 869      64.548  -5.382   9.315  0.00  0.00    -0.390 OA
ATOM     34  O5K NTO d 869      67.699   1.366  18.479  0.00  0.00    -0.296 OA
ATOM     35  C2C NTO d 869      59.412   0.610   8.023  0.00  0.00     0.160 C 
ATOM     36  O38 NTO d 869      57.572  -4.336   7.017  0.00  0.00    -0.572 OA
ATOM     37  O1J NTO d 869      52.329   1.021   8.784  0.00  0.00    -0.296 OA
ATOM     38  C12 NTO d 869      54.374   5.323   5.119  0.00  0.00     0.089 C 
ATOM     39  S4B NTO d 869      66.572  -6.733  11.461  0.00  0.00     0.252 S 
ATOM     40  O4D NTO d 869      65.459  -7.401  10.710  0.00  0.00    -0.572 OA
ATOM     41  C1E NTO d 869      54.294   3.869   7.155  0.00  0.00     0.081 C 
ATOM     42  C13 NTO d 869      55.819   5.657   5.496  0.00  0.00     0.090 C 
ATOM     43  C29 NTO d 869      58.590   1.373   9.065  0.00  0.00     0.110 C 
ATOM     44  O42 NTO d 869      65.761  -2.093  11.512  0.00  0.00    -0.340 OA
ATOM     45  C31 NTO d 869      61.366  -2.072   8.804  0.00  0.00     0.091 C 
ATOM     46  C3F NTO d 869      63.421  -1.662   6.843  0.00  0.00     0.083 C 
ATOM     47  S5H NTO d 869      67.587   1.083  17.010  0.00  0.00     0.156 S 
ATOM     48  S1G NTO d 869      52.588   2.428   8.334  0.00  0.00     0.156 S 
ATOM     49  O5J NTO d 869      68.784   1.658  16.313  0.00  0.00    -0.296 OA
ATOM     50  C5F NTO d 869      68.045  -0.856  15.430  0.00  0.00     0.081 C 
ATOM     51  S3H NTO d 869      65.625  -2.591   5.850  0.00  0.00     0.156 S 
ATOM     52  O25 NTO d 869      57.802   2.742   4.134  0.00  0.00    -0.646 OA
ATOM     53  O1C NTO d 869      52.572   3.746   5.461  0.00  0.00    -0.391 OA
ATOM     54  O3A NTO d 869      62.635   0.609   6.486  0.00  0.00    -0.247 OA
ATOM     55  C5L NTO d 869      69.513  -1.273  15.544  0.00  0.00     0.149 C 
ATOM     56  C30 NTO d 869      61.298  -0.849   7.898  0.00  0.00     0.096 C 
ATOM     57  C23 NTO d 869      58.709   2.692   4.998  0.00  0.00     0.206 C 
ATOM     58  O3E NTO d 869      63.060   2.235   8.204  0.00  0.00    -0.572 OA
ATOM     59  O14 NTO d 869      56.016   5.541   6.914  0.00  0.00    -0.349 OA
ATOM     60  O2A NTO d 869      58.258   0.500  10.146  0.00  0.00    -0.388 OA
ATOM     61  C3L NTO d 869      63.442  -2.763   7.902  0.00  0.00     0.150 C 
ATOM     62  C4F NTO d 869      66.630  -3.233  11.600  0.00  0.00     0.161 C 
ATOM     63  C15 NTO d 869      56.104   7.110   5.105  0.00  0.00     0.067 C 
ATOM     64  S55 NTO d 869      70.600  -2.020  10.239  0.00  0.00     0.251 S 
ATOM     65  O58 NTO d 869      71.492  -0.826  10.079  0.00  0.00    -0.572 OA
ATOM     66  C51 NTO d 869      69.278  -2.792  13.705  0.00  0.00     0.091 C 
ATOM     67  O56 NTO d 869      69.554  -2.014   9.164  0.00  0.00    -0.572 OA
ATOM     68  O3J NTO d 869      66.321  -2.184   4.585  0.00  0.00    -0.296 OA
ATOM     69  O44 NTO d 869      62.789  -1.092  12.591  0.00  0.00    -0.646 OA
ATOM     70  O10 NTO d 869      54.264   5.301   3.694  0.00  0.00    -0.390 OA
ATOM     71  C59 NTO d 869      67.213  -1.975  14.802  0.00  0.00     0.083 C 
ATOM     72  O52 NTO d 869      70.035  -1.715  14.281  0.00  0.00    -0.349 OA
ATOM     73  O27 NTO d 869      56.617   2.719   9.410  0.00  0.00    -0.390 OA
ATOM     74  O1A NTO d 869      59.323   8.922   5.297  0.00  0.00    -0.572 OA
ATOM     75  O5A NTO d 869      65.883  -1.505  14.558  0.00  0.00    -0.391 OA
ATOM     76  O37 NTO d 869      57.501  -3.702   9.386  0.00  0.00    -0.572 OA
ATOM     77  O24 NTO d 869      59.813   3.278   4.894  0.00  0.00    -0.646 OA
ATOM     78  O1H NTO d 869      51.542   2.850   7.345  0.00  0.00    -0.296 OA
ATOM     79  O22 NTO d 869      59.660   1.421   6.863  0.00  0.00    -0.340 OA
ATOM     80  O3D NTO d 869      63.376   2.789   5.839  0.00  0.00    -0.572 OA
ATOM     81  C33 NTO d 869      59.941  -2.531   9.126  0.00  0.00     0.067 C 
ATOM     82  S35 NTO d 869      57.833  -3.235   8.000  0.00  0.00     0.251 S 
ATOM     83  S3B NTO d 869      63.479   1.701   6.866  0.00  0.00     0.252 S 
ATOM     84  O4C NTO d 869      66.134  -6.447  12.868  0.00  0.00    -0.572 OA
ATOM     85  C39 NTO d 869      62.707  -0.451   7.447  0.00  0.00     0.108 C 
ATOM     86  O16 NTO d 869      57.421   7.496   5.504  0.00  0.00    -0.254 OA
ATOM     87  O5M NTO d 869      69.700  -2.241  16.584  0.00  0.00    -0.364 OA
ATOM     88  O3C NTO d 869      64.903   1.238   6.945  0.00  0.00    -0.572 OA
ATOM     89  C1K NTO d 869      55.773   4.197   7.360  0.00  0.00     0.150 C 
ATOM     90  O32 NTO d 869      62.088  -3.150   8.189  0.00  0.00    -0.349 OA
ATOM     91  O34 NTO d 869      59.217  -2.868   7.938  0.00  0.00    -0.254 OA
ATOM     92  H   NTO d 869      66.193  -3.309   7.674  0.00  0.00     0.231 HD
ATOM     93  H   NTO d 869      53.239   3.069  10.158  0.00  0.00     0.231 HD
ATOM     94  H   NTO d 869      64.176  -3.138  12.270  0.00  0.00     0.104 H 
ATOM     95  H   NTO d 869      54.520   3.190   5.145  0.00  0.00     0.089 H 
ATOM     96  H   NTO d 869      68.075  -1.002  17.473  0.00  0.00     0.140 HD
ATOM     97  H   NTO d 869      54.773   2.248   8.312  0.00  0.00     0.140 HD
ATOM     98  H   NTO d 869      64.228  -3.989   6.351  0.00  0.00     0.231 HD
ATOM     99  H   NTO d 869      71.174  -2.825  17.888  0.00  0.00     0.066 H 
ATOM    100  H   NTO d 869      71.152  -1.121  17.507  0.00  0.00     0.066 H 
ATOM    101  H   NTO d 869      71.737  -2.271  16.329  0.00  0.00     0.066 H 
ATOM    102  H   NTO d 869      57.868   1.017   6.014  0.00  0.00     0.104 H 
ATOM    103  H   NTO d 869      56.671   1.115   8.135  0.00  0.00     0.091 H 
ATOM    104  H   NTO d 869      67.818  -1.572  12.766  0.00  0.00     0.091 H 
ATOM    105  H   NTO d 869      65.271  -4.863  11.823  0.00  0.00     0.097 H 
ATOM    106  H   NTO d 869      65.813  -3.784   9.063  0.00  0.00     0.091 H 
ATOM    107  H   NTO d 869      65.294  -0.969   7.277  0.00  0.00     0.140 HD
ATOM    108  H   NTO d 869      63.121  -3.649  10.227  0.00  0.00     0.092 H 
ATOM    109  H   NTO d 869      65.567   1.344  16.918  0.00  0.00     0.231 HD
ATOM    110  H   NTO d 869      58.240   3.615   7.556  0.00  0.00     0.092 H 
ATOM    111  H   NTO d 869      70.917  -3.492  12.525  0.00  0.00     0.080 H 
ATOM    112  H   NTO d 869      69.337  -3.880  11.871  0.00  0.00     0.080 H 
ATOM    113  H   NTO d 869      63.953  -5.742   9.991  0.00  0.00     0.210 HD
ATOM    114  H   NTO d 869      66.928   0.998  18.939  0.00  0.00     0.231 HD
ATOM    115  H   NTO d 869      58.862  -0.252   7.709  0.00  0.00     0.133 H 
ATOM    116  H   NTO d 869      53.009   0.756   9.423  0.00  0.00     0.231 HD
ATOM    117  H   NTO d 869      53.728   6.064   5.541  0.00  0.00     0.091 H 
ATOM    118  H   NTO d 869      53.676   4.560   7.692  0.00  0.00     0.076 H 
ATOM    119  H   NTO d 869      56.469   4.976   4.988  0.00  0.00     0.090 H 
ATOM    120  H   NTO d 869      59.175   2.193   9.427  0.00  0.00     0.094 H 
ATOM    121  H   NTO d 869      61.885  -1.799   9.699  0.00  0.00     0.090 H 
ATOM    122  H   NTO d 869      62.905  -1.988   5.964  0.00  0.00     0.076 H 
ATOM    123  H   NTO d 869      68.721   1.480  15.362  0.00  0.00     0.231 HD
ATOM    124  H   NTO d 869      67.983   0.006  14.800  0.00  0.00     0.076 H 
ATOM    125  H   NTO d 869      52.074   4.434   5.931  0.00  0.00     0.210 HD
ATOM    126  H   NTO d 869      70.078  -0.408  15.822  0.00  0.00     0.131 H 
ATOM    127  H   NTO d 869      60.727  -1.069   7.020  0.00  0.00     0.091 H 
ATOM    128  H   NTO d 869      57.728  -0.240   9.812  0.00  0.00     0.210 HD
ATOM    129  H   NTO d 869      63.988  -3.623   7.572  0.00  0.00     0.131 H 
ATOM    130  H   NTO d 869      67.477  -2.998  10.990  0.00  0.00     0.133 H 
ATOM    131  H   NTO d 869      55.391   7.748   5.584  0.00  0.00     0.080 H 
ATOM    132  H   NTO d 869      56.028   7.199   4.041  0.00  0.00     0.080 H 
ATOM    133  H   NTO d 869      69.280  -3.629  14.371  0.00  0.00     0.090 H 
ATOM    134  H   NTO d 869      66.811  -2.941   4.227  0.00  0.00     0.231 HD
ATOM    135  H   NTO d 869      54.857   4.623   3.334  0.00  0.00     0.210 HD
ATOM    136  H   NTO d 869      67.191  -2.811  15.469  0.00  0.00     0.089 H 
ATOM    137  H   NTO d 869      57.188   3.451   9.691  0.00  0.00     0.210 HD
ATOM    138  H   NTO d 869      65.914  -0.748  13.953  0.00  0.00     0.210 HD
ATOM    139  H   NTO d 869      51.716   3.761   7.059  0.00  0.00     0.231 HD
ATOM    140  H   NTO d 869      59.427  -1.742   9.633  0.00  0.00     0.080 H 
ATOM    141  H   NTO d 869      60.001  -3.405   9.740  0.00  0.00     0.080 H 
ATOM    142  H   NTO d 869      63.262  -0.108   8.296  0.00  0.00     0.092 H 
ATOM    143  H   NTO d 869      56.067   4.125   8.386  0.00  0.00     0.131 H 
ENDROOT
TORSDOF 46
ENDMDL
MODEL 45
REMARK VINA RESULT:      -6.5      3.960      6.009
REMARK  0 active torsions:
REMARK  status: ('A' for Active; 'I' for Inactive)
REMARK       I    between atoms: O3I_1  and  S3H_51 
REMARK       I    between atoms: O1I_2  and  S1G_48 
REMARK       I    between atoms: O54_3  and  C53_28 
REMARK       I    between atoms: O54_3  and  S55_64 
REMARK       I    between atoms: C41_5  and  C43_30 
REMARK       I    between atoms: C1B_6  and  O1C_53 
REMARK       I    between atoms: O4G_7  and  C4F_62 
REMARK       I    between atoms: O4G_7  and  C50_15 
REMARK       I    between atoms: N5G_8  and  C5F_50 
REMARK       I    between atoms: N5G_8  and  S5H_47 
REMARK       I    between atoms: N1F_9  and  C1E_41 
REMARK       I    between atoms: N1F_9  and  S1G_48 
REMARK       I    between atoms: O3K_10  and  S3H_51 
REMARK       I    between atoms: C5N_11  and  O5M_87 
REMARK       I    between atoms: C21_12  and  C23_57 
REMARK       I    between atoms: C26_13  and  O27_73 
REMARK       I    between atoms: C49_16  and  O4A_21 
REMARK       I    between atoms: O2D_17  and  C2C_35 
REMARK       I    between atoms: O2D_17  and  C30_56 
REMARK       I    between atoms: O1L_18  and  C1K_89 
REMARK       I    between atoms: O1L_18  and  C20_27 
REMARK       I    between atoms: C46_20  and  O47_33 
REMARK       I    between atoms: O4A_21  and  S4B_39 
REMARK       I    between atoms: N3G_22  and  C3F_46 
REMARK       I    between atoms: N3G_22  and  S3H_51 
REMARK       I    between atoms: C40_25  and  O3M_29 
REMARK       I    between atoms: O5I_26  and  S5H_47 
REMARK       I    between atoms: C53_28  and  C51_66 
REMARK       I    between atoms: O3M_29  and  C3L_61 
REMARK       I    between atoms: S17_31  and  O16_86 
REMARK       I    between atoms: O5K_34  and  S5H_47 
REMARK       I    between atoms: O1J_37  and  S1G_48 
REMARK       I    between atoms: C12_38  and  O10_70 
REMARK       I    between atoms: C13_42  and  C15_63 
REMARK       I    between atoms: C29_43  and  O2A_60 
REMARK       I    between atoms: C31_45  and  C33_81 
REMARK       I    between atoms: S5H_47  and  O5J_49 
REMARK       I    between atoms: S1G_48  and  O1H_78 
REMARK       I    between atoms: S3H_51  and  O3J_68 
REMARK       I    between atoms: O3A_54  and  C39_85 
REMARK       I    between atoms: O3A_54  and  S3B_83 
REMARK       I    between atoms: C5L_55  and  O5M_87 
REMARK       I    between atoms: C15_63  and  O16_86 
REMARK       I    between atoms: C59_71  and  O5A_75 
REMARK       I    between atoms: C33_81  and  O34_91 
REMARK       I    between atoms: S35_82  and  O34_91 
ROOT
ATOM      1  O3I NTO d 869      69.913   3.298   9.132  0.00  0.00    -0.296 OA
ATOM      2  O1I NTO d 869      54.736  -0.418   7.692  0.00  0.00    -0.296 OA
ATOM      3  O54 NTO d 869      70.566   6.106  14.212  0.00  0.00    -0.254 OA
ATOM      4  O18 NTO d 869      55.414   7.539   5.110  0.00  0.00    -0.572 OA
ATOM      5  C41 NTO d 869      66.649   2.254  12.991  0.00  0.00     0.152 C 
ATOM      6  C1B NTO d 869      56.452   1.007   4.190  0.00  0.00     0.083 C 
ATOM      7  O4G NTO d 869      68.906   3.096  15.161  0.00  0.00    -0.348 OA
ATOM      8  N5G NTO d 869      66.469   5.612  18.514  0.00  0.00    -0.210 NA
ATOM      9  N1F NTO d 869      56.868  -0.121   6.320  0.00  0.00    -0.210 NA
ATOM     10  O3K NTO d 869      69.181   1.590   7.531  0.00  0.00    -0.296 OA
ATOM     11  C5N NTO d 869      69.975   6.527  19.846  0.00  0.00     0.007 C 
ATOM     12  C21 NTO d 869      60.909   2.130   6.045  0.00  0.00     0.152 C 
ATOM     13  C26 NTO d 869      59.460   1.410   7.896  0.00  0.00     0.092 C 
ATOM     14  O4E NTO d 869      72.303   0.299  14.519  0.00  0.00    -0.572 OA
ATOM     15  C50 NTO d 869      68.683   4.418  15.673  0.00  0.00     0.095 C 
ATOM     16  C49 NTO d 869      69.154   1.637  13.264  0.00  0.00     0.134 C 
ATOM     17  O2D NTO d 869      62.972   2.138   9.048  0.00  0.00    -0.348 OA
ATOM     18  O1L NTO d 869      58.543   2.012   5.699  0.00  0.00    -0.348 OA
ATOM     19  O19 NTO d 869      55.912   7.406   2.713  0.00  0.00    -0.572 OA
ATOM     20  C46 NTO d 869      68.699   1.425  11.820  0.00  0.00     0.094 C 
ATOM     21  O4A NTO d 869      70.568   1.452  13.367  0.00  0.00    -0.244 OA
ATOM     22  N3G NTO d 869      67.589   3.530   8.089  0.00  0.00    -0.210 NA
ATOM     23  O36 NTO d 869      61.801  -1.903   7.646  0.00  0.00    -0.572 OA
ATOM     24  O57 NTO d 869      72.800   5.995  13.367  0.00  0.00    -0.572 OA
ATOM     25  C40 NTO d 869      67.179   1.550  11.750  0.00  0.00     0.103 C 
ATOM     26  O5I NTO d 869      64.311   6.657  17.644  0.00  0.00    -0.296 OA
ATOM     27  C20 NTO d 869      59.541   2.329   6.679  0.00  0.00     0.103 C 
ATOM     28  C53 NTO d 869      71.003   5.142  15.171  0.00  0.00     0.067 C 
ATOM     29  O3M NTO d 869      66.856   2.313  10.581  0.00  0.00    -0.348 OA
ATOM     30  C43 NTO d 869      65.217   2.685  12.719  0.00  0.00     0.206 C 
ATOM     31  S17 NTO d 869      56.480   7.261   4.093  0.00  0.00     0.251 S 
ATOM     32  O45 NTO d 869      64.991   3.359  11.688  0.00  0.00    -0.646 OA
ATOM     33  O47 NTO d 869      69.087   0.117  11.388  0.00  0.00    -0.390 OA
ATOM     34  O5K NTO d 869      65.021   7.179  19.933  0.00  0.00    -0.296 OA
ATOM     35  C2C NTO d 869      61.949   1.688   8.144  0.00  0.00     0.160 C 
ATOM     36  O38 NTO d 869      63.789  -3.318   7.492  0.00  0.00    -0.572 OA
ATOM     37  O1J NTO d 869      56.149  -2.375   7.270  0.00  0.00    -0.296 OA
ATOM     38  C12 NTO d 869      56.074   2.347   3.553  0.00  0.00     0.089 C 
ATOM     39  S4B NTO d 869      70.866   0.259  14.098  0.00  0.00     0.252 S 
ATOM     40  O4D NTO d 869      70.622  -0.938  13.227  0.00  0.00    -0.572 OA
ATOM     41  C1E NTO d 869      56.351   1.112   5.712  0.00  0.00     0.081 C 
ATOM     42  C13 NTO d 869      56.867   3.494   4.184  0.00  0.00     0.090 C 
ATOM     43  C29 NTO d 869      60.597   1.759   8.858  0.00  0.00     0.110 C 
ATOM     44  O42 NTO d 869      67.456   3.407  13.292  0.00  0.00    -0.340 OA
ATOM     45  C31 NTO d 869      64.830   0.768   9.716  0.00  0.00     0.091 C 
ATOM     46  C3F NTO d 869      66.651   2.399   8.213  0.00  0.00     0.083 C 
ATOM     47  S5H NTO d 869      65.490   6.917  18.532  0.00  0.00     0.156 S 
ATOM     48  S1G NTO d 869      55.618  -1.099   6.687  0.00  0.00     0.156 S 
ATOM     49  O5J NTO d 869      66.233   8.122  18.038  0.00  0.00    -0.296 OA
ATOM     50  C5F NTO d 869      67.414   5.707  17.391  0.00  0.00     0.081 C 
ATOM     51  S3H NTO d 869      69.135   3.050   7.873  0.00  0.00     0.156 S 
ATOM     52  O25 NTO d 869      60.472   2.453   3.728  0.00  0.00    -0.646 OA
ATOM     53  O1C NTO d 869      55.568  -0.013   3.719  0.00  0.00    -0.391 OA
ATOM     54  O3A NTO d 869      64.789   3.708   7.366  0.00  0.00    -0.247 OA
ATOM     55  C5L NTO d 869      68.744   6.283  17.883  0.00  0.00     0.149 C 
ATOM     56  C30 NTO d 869      64.283   1.706   8.649  0.00  0.00     0.096 C 
ATOM     57  C23 NTO d 869      60.961   2.955   4.767  0.00  0.00     0.206 C 
ATOM     58  O3E NTO d 869      63.684   5.213   8.879  0.00  0.00    -0.572 OA
ATOM     59  O14 NTO d 869      56.714   3.494   5.612  0.00  0.00    -0.349 OA
ATOM     60  O2A NTO d 869      60.586   0.845   9.956  0.00  0.00    -0.388 OA
ATOM     61  C3L NTO d 869      67.050   1.523   9.400  0.00  0.00     0.150 C 
ATOM     62  C4F NTO d 869      68.773   3.044  13.733  0.00  0.00     0.161 C 
ATOM     63  C15 NTO d 869      56.313   4.820   3.657  0.00  0.00     0.067 C 
ATOM     64  S55 NTO d 869      71.404   6.477  13.111  0.00  0.00     0.251 S 
ATOM     65  O58 NTO d 869      71.403   7.970  12.977  0.00  0.00    -0.572 OA
ATOM     66  C51 NTO d 869      69.960   4.981  16.279  0.00  0.00     0.091 C 
ATOM     67  O56 NTO d 869      70.891   5.858  11.844  0.00  0.00    -0.572 OA
ATOM     68  O3J NTO d 869      69.749   3.825   6.744  0.00  0.00    -0.296 OA
ATOM     69  O44 NTO d 869      64.326   2.338  13.537  0.00  0.00    -0.646 OA
ATOM     70  O10 NTO d 869      56.377   2.292   2.157  0.00  0.00    -0.390 OA
ATOM     71  C59 NTO d 869      67.620   4.327  16.767  0.00  0.00     0.083 C 
ATOM     72  O52 NTO d 869      69.735   6.284  16.843  0.00  0.00    -0.349 OA
ATOM     73  O27 NTO d 869      58.207   1.593   8.563  0.00  0.00    -0.390 OA
ATOM     74  O1A NTO d 869      57.608   8.228   4.281  0.00  0.00    -0.572 OA
ATOM     75  O5A NTO d 869      66.397   3.881  16.172  0.00  0.00    -0.391 OA
ATOM     76  O37 NTO d 869      62.734  -2.912   9.670  0.00  0.00    -0.572 OA
ATOM     77  O24 NTO d 869      61.471   4.099   4.823  0.00  0.00    -0.646 OA
ATOM     78  O1H NTO d 869      54.833  -1.392   5.442  0.00  0.00    -0.296 OA
ATOM     79  O22 NTO d 869      61.953   2.504   6.961  0.00  0.00    -0.340 OA
ATOM     80  O3D NTO d 869      64.211   5.894   6.585  0.00  0.00    -0.572 OA
ATOM     81  C33 NTO d 869      63.944  -0.480   9.781  0.00  0.00     0.067 C 
ATOM     82  S35 NTO d 869      63.068  -2.311   8.337  0.00  0.00     0.251 S 
ATOM     83  S3B NTO d 869      64.672   5.080   7.757  0.00  0.00     0.252 S 
ATOM     84  O4C NTO d 869      69.995   0.184  15.317  0.00  0.00    -0.572 OA
ATOM     85  C39 NTO d 869      65.227   2.898   8.463  0.00  0.00     0.108 C 
ATOM     86  O16 NTO d 869      56.972   5.928   4.273  0.00  0.00    -0.254 OA
ATOM     87  O5M NTO d 869      69.194   5.615  19.069  0.00  0.00    -0.364 OA
ATOM     88  O3C NTO d 869      66.006   5.593   8.212  0.00  0.00    -0.572 OA
ATOM     89  C1K NTO d 869      57.220   2.278   6.185  0.00  0.00     0.150 C 
ATOM     90  O32 NTO d 869      66.184   0.378   9.437  0.00  0.00    -0.349 OA
ATOM     91  O34 NTO d 869      63.910  -1.166   8.526  0.00  0.00    -0.254 OA
ATOM     92  H   NTO d 869      69.517   2.797   9.861  0.00  0.00     0.231 HD
ATOM     93  H   NTO d 869      55.247  -0.231   8.495  0.00  0.00     0.231 HD
ATOM     94  H   NTO d 869      66.686   1.590  13.830  0.00  0.00     0.104 H 
ATOM     95  H   NTO d 869      57.457   0.759   3.921  0.00  0.00     0.089 H 
ATOM     96  H   NTO d 869      66.990   5.568  19.390  0.00  0.00     0.140 HD
ATOM     97  H   NTO d 869      57.383   0.108   7.169  0.00  0.00     0.140 HD
ATOM     98  H   NTO d 869      68.786   1.076   8.254  0.00  0.00     0.231 HD
ATOM     99  H   NTO d 869      70.316   6.038  20.734  0.00  0.00     0.066 H 
ATOM    100  H   NTO d 869      69.377   7.373  20.113  0.00  0.00     0.066 H 
ATOM    101  H   NTO d 869      70.818   6.854  19.273  0.00  0.00     0.066 H 
ATOM    102  H   NTO d 869      61.064   1.097   5.808  0.00  0.00     0.104 H 
ATOM    103  H   NTO d 869      59.544   0.391   7.579  0.00  0.00     0.091 H 
ATOM    104  H   NTO d 869      68.369   5.060  14.876  0.00  0.00     0.091 H 
ATOM    105  H   NTO d 869      68.666   0.918  13.889  0.00  0.00     0.097 H 
ATOM    106  H   NTO d 869      69.151   2.159  11.187  0.00  0.00     0.091 H 
ATOM    107  H   NTO d 869      67.537   4.091   8.940  0.00  0.00     0.140 HD
ATOM    108  H   NTO d 869      66.730   0.580  11.702  0.00  0.00     0.092 H 
ATOM    109  H   NTO d 869      63.831   5.878  17.964  0.00  0.00     0.231 HD
ATOM    110  H   NTO d 869      59.382   3.338   6.999  0.00  0.00     0.092 H 
ATOM    111  H   NTO d 869      71.927   5.467  15.601  0.00  0.00     0.080 H 
ATOM    112  H   NTO d 869      71.137   4.200  14.681  0.00  0.00     0.080 H 
ATOM    113  H   NTO d 869      68.676  -0.548  11.962  0.00  0.00     0.210 HD
ATOM    114  H   NTO d 869      64.538   6.403  20.262  0.00  0.00     0.231 HD
ATOM    115  H   NTO d 869      62.133   0.677   7.847  0.00  0.00     0.133 H 
ATOM    116  H   NTO d 869      56.654  -2.177   8.073  0.00  0.00     0.231 HD
ATOM    117  H   NTO d 869      55.031   2.523   3.710  0.00  0.00     0.091 H 
ATOM    118  H   NTO d 869      55.330   1.262   5.994  0.00  0.00     0.076 H 
ATOM    119  H   NTO d 869      57.900   3.370   3.935  0.00  0.00     0.090 H 
ATOM    120  H   NTO d 869      60.452   2.758   9.215  0.00  0.00     0.094 H 
ATOM    121  H   NTO d 869      64.824   1.284  10.653  0.00  0.00     0.090 H 
ATOM    122  H   NTO d 869      66.688   1.842   7.299  0.00  0.00     0.076 H 
ATOM    123  H   NTO d 869      66.541   7.963  17.132  0.00  0.00     0.231 HD
ATOM    124  H   NTO d 869      67.014   6.361  16.644  0.00  0.00     0.076 H 
ATOM    125  H   NTO d 869      54.656   0.212   3.963  0.00  0.00     0.210 HD
ATOM    126  H   NTO d 869      68.579   7.306  18.149  0.00  0.00     0.131 H 
ATOM    127  H   NTO d 869      64.213   1.200   7.709  0.00  0.00     0.091 H 
ATOM    128  H   NTO d 869      60.717  -0.058   9.626  0.00  0.00     0.210 HD
ATOM    129  H   NTO d 869      68.065   1.192   9.327  0.00  0.00     0.131 H 
ATOM    130  H   NTO d 869      69.433   3.765  13.296  0.00  0.00     0.133 H 
ATOM    131  H   NTO d 869      55.266   4.873   3.870  0.00  0.00     0.080 H 
ATOM    132  H   NTO d 869      56.481   4.866   2.601  0.00  0.00     0.080 H 
ATOM    133  H   NTO d 869      70.289   4.310  17.044  0.00  0.00     0.090 H 
ATOM    134  H   NTO d 869      70.667   3.539   6.617  0.00  0.00     0.231 HD
ATOM    135  H   NTO d 869      57.326   2.132   2.038  0.00  0.00     0.210 HD
ATOM    136  H   NTO d 869      67.930   3.641  17.528  0.00  0.00     0.089 H 
ATOM    137  H   NTO d 869      58.126   2.515   8.852  0.00  0.00     0.210 HD
ATOM    138  H   NTO d 869      66.125   4.508  15.484  0.00  0.00     0.210 HD
ATOM    139  H   NTO d 869      54.493  -0.562   5.071  0.00  0.00     0.231 HD
ATOM    140  H   NTO d 869      62.949  -0.187  10.044  0.00  0.00     0.080 H 
ATOM    141  H   NTO d 869      64.353  -1.143  10.515  0.00  0.00     0.080 H 
ATOM    142  H   NTO d 869      65.218   3.493   9.353  0.00  0.00     0.092 H 
ATOM    143  H   NTO d 869      57.216   2.381   7.250  0.00  0.00     0.131 H 
ENDROOT
TORSDOF 46
ENDMDL
MODEL 46
REMARK VINA RESULT:      -6.5      6.708     14.199
REMARK  0 active torsions:
REMARK  status: ('A' for Active; 'I' for Inactive)
REMARK       I    between atoms: O3I_1  and  S3H_51 
REMARK       I    between atoms: O1I_2  and  S1G_48 
REMARK       I    between atoms: O54_3  and  C53_28 
REMARK       I    between atoms: O54_3  and  S55_64 
REMARK       I    between atoms: C41_5  and  C43_30 
REMARK       I    between atoms: C1B_6  and  O1C_53 
REMARK       I    between atoms: O4G_7  and  C4F_62 
REMARK       I    between atoms: O4G_7  and  C50_15 
REMARK       I    between atoms: N5G_8  and  C5F_50 
REMARK       I    between atoms: N5G_8  and  S5H_47 
REMARK       I    between atoms: N1F_9  and  C1E_41 
REMARK       I    between atoms: N1F_9  and  S1G_48 
REMARK       I    between atoms: O3K_10  and  S3H_51 
REMARK       I    between atoms: C5N_11  and  O5M_87 
REMARK       I    between atoms: C21_12  and  C23_57 
REMARK       I    between atoms: C26_13  and  O27_73 
REMARK       I    between atoms: C49_16  and  O4A_21 
REMARK       I    between atoms: O2D_17  and  C2C_35 
REMARK       I    between atoms: O2D_17  and  C30_56 
REMARK       I    between atoms: O1L_18  and  C1K_89 
REMARK       I    between atoms: O1L_18  and  C20_27 
REMARK       I    between atoms: C46_20  and  O47_33 
REMARK       I    between atoms: O4A_21  and  S4B_39 
REMARK       I    between atoms: N3G_22  and  C3F_46 
REMARK       I    between atoms: N3G_22  and  S3H_51 
REMARK       I    between atoms: C40_25  and  O3M_29 
REMARK       I    between atoms: O5I_26  and  S5H_47 
REMARK       I    between atoms: C53_28  and  C51_66 
REMARK       I    between atoms: O3M_29  and  C3L_61 
REMARK       I    between atoms: S17_31  and  O16_86 
REMARK       I    between atoms: O5K_34  and  S5H_47 
REMARK       I    between atoms: O1J_37  and  S1G_48 
REMARK       I    between atoms: C12_38  and  O10_70 
REMARK       I    between atoms: C13_42  and  C15_63 
REMARK       I    between atoms: C29_43  and  O2A_60 
REMARK       I    between atoms: C31_45  and  C33_81 
REMARK       I    between atoms: S5H_47  and  O5J_49 
REMARK       I    between atoms: S1G_48  and  O1H_78 
REMARK       I    between atoms: S3H_51  and  O3J_68 
REMARK       I    between atoms: O3A_54  and  C39_85 
REMARK       I    between atoms: O3A_54  and  S3B_83 
REMARK       I    between atoms: C5L_55  and  O5M_87 
REMARK       I    between atoms: C15_63  and  O16_86 
REMARK       I    between atoms: C59_71  and  O5A_75 
REMARK       I    between atoms: C33_81  and  O34_91 
REMARK       I    between atoms: S35_82  and  O34_91 
ROOT
ATOM      1  O3I NTO d 869      57.350   2.508   3.468  0.00  0.00    -0.296 OA
ATOM      2  O1I NTO d 869      71.807   6.370   8.192  0.00  0.00    -0.296 OA
ATOM      3  O54 NTO d 869      53.853   2.724   8.141  0.00  0.00    -0.254 OA
ATOM      4  O18 NTO d 869      70.906  -1.785   9.964  0.00  0.00    -0.572 OA
ATOM      5  C41 NTO d 869      58.541   5.727   7.323  0.00  0.00     0.152 C 
ATOM      6  C1B NTO d 869      71.706   3.165   5.553  0.00  0.00     0.083 C 
ATOM      7  O4G NTO d 869      55.415   5.931   8.153  0.00  0.00    -0.348 OA
ATOM      8  N5G NTO d 869      55.446   5.789  13.000  0.00  0.00    -0.210 NA
ATOM      9  N1F NTO d 869      70.562   5.194   6.299  0.00  0.00    -0.210 NA
ATOM     10  O3K NTO d 869      59.064   3.189   1.851  0.00  0.00    -0.296 OA
ATOM     11  C5N NTO d 869      51.624   5.372  12.647  0.00  0.00     0.007 C 
ATOM     12  C21 NTO d 869      66.780   2.753   5.199  0.00  0.00     0.152 C 
ATOM     13  C26 NTO d 869      67.293   4.472   6.881  0.00  0.00     0.092 C 
ATOM     14  O4E NTO d 869      53.333   7.635   4.613  0.00  0.00    -0.572 OA
ATOM     15  C50 NTO d 869      55.110   5.100   9.283  0.00  0.00     0.095 C 
ATOM     16  C49 NTO d 869      56.376   6.150   5.959  0.00  0.00     0.134 C 
ATOM     17  O2D NTO d 869      63.587   4.118   6.304  0.00  0.00    -0.348 OA
ATOM     18  O1L NTO d 869      69.002   2.901   6.078  0.00  0.00    -0.348 OA
ATOM     19  O19 NTO d 869      71.633  -2.975   7.946  0.00  0.00    -0.572 OA
ATOM     20  C46 NTO d 869      57.490   5.618   5.055  0.00  0.00     0.094 C 
ATOM     21  O4A NTO d 869      55.147   6.224   5.234  0.00  0.00    -0.244 OA
ATOM     22  N3G NTO d 869      59.798   1.991   4.005  0.00  0.00    -0.210 NA
ATOM     23  O36 NTO d 869      66.035   6.920   3.891  0.00  0.00    -0.572 OA
ATOM     24  O57 NTO d 869      52.349   2.161   6.369  0.00  0.00    -0.572 OA
ATOM     25  C40 NTO d 869      58.807   5.623   5.828  0.00  0.00     0.103 C 
ATOM     26  O5I NTO d 869      57.512   4.658  13.979  0.00  0.00    -0.296 OA
ATOM     27  C20 NTO d 869      67.620   3.048   6.432  0.00  0.00     0.103 C 
ATOM     28  C53 NTO d 869      53.210   4.000   8.126  0.00  0.00     0.067 C 
ATOM     29  O3M NTO d 869      59.488   4.396   5.538  0.00  0.00    -0.348 OA
ATOM     30  C43 NTO d 869      59.820   5.358   8.060  0.00  0.00     0.206 C 
ATOM     31  S17 NTO d 869      70.522  -2.184   8.571  0.00  0.00     0.251 S 
ATOM     32  O45 NTO d 869      60.370   4.270   7.775  0.00  0.00    -0.646 OA
ATOM     33  O47 NTO d 869      57.611   6.462   3.906  0.00  0.00    -0.390 OA
ATOM     34  O5K NTO d 869      55.722   5.345  15.508  0.00  0.00    -0.296 OA
ATOM     35  C2C NTO d 869      64.981   4.125   5.950  0.00  0.00     0.160 C 
ATOM     36  O38 NTO d 869      64.670   7.845   2.086  0.00  0.00    -0.572 OA
ATOM     37  O1J NTO d 869      71.168   7.669   6.216  0.00  0.00    -0.296 OA
ATOM     38  C12 NTO d 869      72.073   1.733   5.954  0.00  0.00     0.089 C 
ATOM     39  S4B NTO d 869      54.776   7.588   5.012  0.00  0.00     0.252 S 
ATOM     40  O4D NTO d 869      55.627   8.170   3.922  0.00  0.00    -0.572 OA
ATOM     41  C1E NTO d 869      71.055   3.882   6.736  0.00  0.00     0.081 C 
ATOM     42  C13 NTO d 869      70.872   1.016   6.574  0.00  0.00     0.090 C 
ATOM     43  C29 NTO d 869      65.794   4.569   7.169  0.00  0.00     0.110 C 
ATOM     44  O42 NTO d 869      57.483   4.830   7.705  0.00  0.00    -0.340 OA
ATOM     45  C31 NTO d 869      61.938   5.448   5.170  0.00  0.00     0.091 C 
ATOM     46  C3F NTO d 869      60.764   3.105   4.001  0.00  0.00     0.083 C 
ATOM     47  S5H NTO d 869      56.028   4.788  14.149  0.00  0.00     0.156 S 
ATOM     48  S1G NTO d 869      71.654   6.335   6.699  0.00  0.00     0.156 S 
ATOM     49  O5J NTO d 869      55.390   3.437  14.024  0.00  0.00    -0.296 OA
ATOM     50  C5F NTO d 869      55.144   5.030  11.778  0.00  0.00     0.081 C 
ATOM     51  S3H NTO d 869      58.661   2.135   2.840  0.00  0.00     0.156 S 
ATOM     52  O25 NTO d 869      68.186   1.310   3.932  0.00  0.00    -0.646 OA
ATOM     53  O1C NTO d 869      72.886   3.867   5.155  0.00  0.00    -0.391 OA
ATOM     54  O3A NTO d 869      62.514   1.733   4.979  0.00  0.00    -0.247 OA
ATOM     55  C5L NTO d 869      53.657   4.672  11.747  0.00  0.00     0.149 C 
ATOM     56  C30 NTO d 869      62.731   4.148   5.151  0.00  0.00     0.096 C 
ATOM     57  C23 NTO d 869      67.178   1.382   4.675  0.00  0.00     0.206 C 
ATOM     58  O3E NTO d 869      62.461   1.356   7.352  0.00  0.00    -0.572 OA
ATOM     59  O14 NTO d 869      70.330   1.777   7.665  0.00  0.00    -0.349 OA
ATOM     60  O2A NTO d 869      65.462   5.918   7.501  0.00  0.00    -0.388 OA
ATOM     61  C3L NTO d 869      60.030   4.428   4.210  0.00  0.00     0.150 C 
ATOM     62  C4F NTO d 869      56.212   5.240   7.180  0.00  0.00     0.161 C 
ATOM     63  C15 NTO d 869      71.342  -0.330   7.134  0.00  0.00     0.067 C 
ATOM     64  S55 NTO d 869      53.579   1.753   7.124  0.00  0.00     0.251 S 
ATOM     65  O58 NTO d 869      53.354   0.420   7.770  0.00  0.00    -0.572 OA
ATOM     66  C51 NTO d 869      53.617   4.817   9.355  0.00  0.00     0.091 C 
ATOM     67  O56 NTO d 869      54.736   1.665   6.175  0.00  0.00    -0.572 OA
ATOM     68  O3J NTO d 869      58.515   0.830   2.116  0.00  0.00    -0.296 OA
ATOM     69  O44 NTO d 869      60.268   6.166   8.914  0.00  0.00    -0.646 OA
ATOM     70  O10 NTO d 869      72.481   1.021   4.784  0.00  0.00    -0.390 OA
ATOM     71  C59 NTO d 869      55.527   5.852  10.546  0.00  0.00     0.083 C 
ATOM     72  O52 NTO d 869      53.294   4.031  10.513  0.00  0.00    -0.349 OA
ATOM     73  O27 NTO d 869      68.022   4.786   8.071  0.00  0.00    -0.390 OA
ATOM     74  O1A NTO d 869      69.275  -3.014   8.620  0.00  0.00    -0.572 OA
ATOM     75  O5A NTO d 869      56.946   6.037  10.515  0.00  0.00    -0.391 OA
ATOM     76  O37 NTO d 869      64.473   8.743   4.362  0.00  0.00    -0.572 OA
ATOM     77  O24 NTO d 869      66.492   0.392   5.026  0.00  0.00    -0.646 OA
ATOM     78  O1H NTO d 869      72.972   6.008   6.063  0.00  0.00    -0.296 OA
ATOM     79  O22 NTO d 869      65.377   2.815   5.512  0.00  0.00    -0.340 OA
ATOM     80  O3D NTO d 869      62.958  -0.470   5.797  0.00  0.00    -0.572 OA
ATOM     81  C33 NTO d 869      62.910   6.624   5.041  0.00  0.00     0.067 C 
ATOM     82  S35 NTO d 869      64.698   7.504   3.546  0.00  0.00     0.251 S 
ATOM     83  S3B NTO d 869      62.165   0.787   5.996  0.00  0.00     0.252 S 
ATOM     84  O4C NTO d 869      54.966   8.373   6.276  0.00  0.00    -0.572 OA
ATOM     85  C39 NTO d 869      61.775   2.950   5.138  0.00  0.00     0.108 C 
ATOM     86  O16 NTO d 869      70.270  -1.009   7.792  0.00  0.00    -0.254 OA
ATOM     87  O5M NTO d 869      52.839   5.813  12.033  0.00  0.00    -0.364 OA
ATOM     88  O3C NTO d 869      60.704   0.462   5.907  0.00  0.00    -0.572 OA
ATOM     89  C1K NTO d 869      69.860   3.058   7.217  0.00  0.00     0.150 C 
ATOM     90  O32 NTO d 869      60.979   5.501   4.102  0.00  0.00    -0.349 OA
ATOM     91  O34 NTO d 869      63.663   6.552   3.827  0.00  0.00    -0.254 OA
ATOM     92  H   NTO d 869      57.444   3.353   3.936  0.00  0.00     0.231 HD
ATOM     93  H   NTO d 869      70.953   6.582   8.599  0.00  0.00     0.231 HD
ATOM     94  H   NTO d 869      58.243   6.724   7.572  0.00  0.00     0.104 H 
ATOM     95  H   NTO d 869      71.016   3.137   4.736  0.00  0.00     0.089 H 
ATOM     96  H   NTO d 869      54.594   6.234  13.340  0.00  0.00     0.140 HD
ATOM     97  H   NTO d 869      69.674   5.395   6.758  0.00  0.00     0.140 HD
ATOM     98  H   NTO d 869      59.162   4.040   2.307  0.00  0.00     0.231 HD
ATOM     99  H   NTO d 869      51.006   6.218  12.864  0.00  0.00     0.066 H 
ATOM    100  H   NTO d 869      51.850   4.853  13.554  0.00  0.00     0.066 H 
ATOM    101  H   NTO d 869      51.106   4.714  11.980  0.00  0.00     0.066 H 
ATOM    102  H   NTO d 869      66.957   3.489   4.442  0.00  0.00     0.104 H 
ATOM    103  H   NTO d 869      67.567   5.160   6.109  0.00  0.00     0.091 H 
ATOM    104  H   NTO d 869      55.632   4.170   9.193  0.00  0.00     0.091 H 
ATOM    105  H   NTO d 869      56.641   7.133   6.291  0.00  0.00     0.097 H 
ATOM    106  H   NTO d 869      57.257   4.622   4.744  0.00  0.00     0.091 H 
ATOM    107  H   NTO d 869      59.332   1.966   4.913  0.00  0.00     0.140 HD
ATOM    108  H   NTO d 869      59.402   6.462   5.538  0.00  0.00     0.092 H 
ATOM    109  H   NTO d 869      57.925   5.532  14.060  0.00  0.00     0.231 HD
ATOM    110  H   NTO d 869      67.411   2.377   7.238  0.00  0.00     0.092 H 
ATOM    111  H   NTO d 869      52.150   3.861   8.131  0.00  0.00     0.080 H 
ATOM    112  H   NTO d 869      53.508   4.529   7.244  0.00  0.00     0.080 H 
ATOM    113  H   NTO d 869      57.823   7.365   4.190  0.00  0.00     0.210 HD
ATOM    114  H   NTO d 869      56.131   6.220  15.599  0.00  0.00     0.231 HD
ATOM    115  H   NTO d 869      65.158   4.808   5.146  0.00  0.00     0.133 H 
ATOM    116  H   NTO d 869      70.316   7.873   6.632  0.00  0.00     0.231 HD
ATOM    117  H   NTO d 869      72.863   1.768   6.675  0.00  0.00     0.091 H 
ATOM    118  H   NTO d 869      71.772   4.001   7.522  0.00  0.00     0.076 H 
ATOM    119  H   NTO d 869      70.124   0.891   5.820  0.00  0.00     0.090 H 
ATOM    120  H   NTO d 869      65.558   3.924   7.990  0.00  0.00     0.094 H 
ATOM    121  H   NTO d 869      61.401   5.502   6.094  0.00  0.00     0.090 H 
ATOM    122  H   NTO d 869      61.270   3.094   3.058  0.00  0.00     0.076 H 
ATOM    123  H   NTO d 869      55.582   3.068  13.148  0.00  0.00     0.231 HD
ATOM    124  H   NTO d 869      55.714   4.124  11.770  0.00  0.00     0.076 H 
ATOM    125  H   NTO d 869      73.512   3.893   5.896  0.00  0.00     0.210 HD
ATOM    126  H   NTO d 869      53.476   3.960  12.525  0.00  0.00     0.131 H 
ATOM    127  H   NTO d 869      63.332   4.092   4.268  0.00  0.00     0.091 H 
ATOM    128  H   NTO d 869      65.679   6.498   6.754  0.00  0.00     0.210 HD
ATOM    129  H   NTO d 869      59.255   4.573   3.486  0.00  0.00     0.131 H 
ATOM    130  H   NTO d 869      55.711   4.338   6.897  0.00  0.00     0.133 H 
ATOM    131  H   NTO d 869      72.132  -0.161   7.836  0.00  0.00     0.080 H 
ATOM    132  H   NTO d 869      71.686  -0.937   6.323  0.00  0.00     0.080 H 
ATOM    133  H   NTO d 869      53.103   5.754   9.401  0.00  0.00     0.090 H 
ATOM    134  H   NTO d 869      57.841   0.916   1.425  0.00  0.00     0.231 HD
ATOM    135  H   NTO d 869      71.751   1.002   4.146  0.00  0.00     0.210 HD
ATOM    136  H   NTO d 869      55.033   6.801  10.592  0.00  0.00     0.089 H 
ATOM    137  H   NTO d 869      67.777   4.164   8.775  0.00  0.00     0.210 HD
ATOM    138  H   NTO d 869      57.383   5.172  10.473  0.00  0.00     0.210 HD
ATOM    139  H   NTO d 869      73.279   5.144   6.381  0.00  0.00     0.231 HD
ATOM    140  H   NTO d 869      63.586   6.609   5.870  0.00  0.00     0.080 H 
ATOM    141  H   NTO d 869      62.340   7.530   5.029  0.00  0.00     0.080 H 
ATOM    142  H   NTO d 869      61.249   2.913   6.069  0.00  0.00     0.092 H 
ATOM    143  H   NTO d 869      69.341   3.528   8.026  0.00  0.00     0.131 H 
ENDROOT
TORSDOF 46
ENDMDL
MODEL 47
REMARK VINA RESULT:      -6.5      3.487     13.963
REMARK  0 active torsions:
REMARK  status: ('A' for Active; 'I' for Inactive)
REMARK       I    between atoms: O3I_1  and  S3H_51 
REMARK       I    between atoms: O1I_2  and  S1G_48 
REMARK       I    between atoms: O54_3  and  C53_28 
REMARK       I    between atoms: O54_3  and  S55_64 
REMARK       I    between atoms: C41_5  and  C43_30 
REMARK       I    between atoms: C1B_6  and  O1C_53 
REMARK       I    between atoms: O4G_7  and  C4F_62 
REMARK       I    between atoms: O4G_7  and  C50_15 
REMARK       I    between atoms: N5G_8  and  C5F_50 
REMARK       I    between atoms: N5G_8  and  S5H_47 
REMARK       I    between atoms: N1F_9  and  C1E_41 
REMARK       I    between atoms: N1F_9  and  S1G_48 
REMARK       I    between atoms: O3K_10  and  S3H_51 
REMARK       I    between atoms: C5N_11  and  O5M_87 
REMARK       I    between atoms: C21_12  and  C23_57 
REMARK       I    between atoms: C26_13  and  O27_73 
REMARK       I    between atoms: C49_16  and  O4A_21 
REMARK       I    between atoms: O2D_17  and  C2C_35 
REMARK       I    between atoms: O2D_17  and  C30_56 
REMARK       I    between atoms: O1L_18  and  C1K_89 
REMARK       I    between atoms: O1L_18  and  C20_27 
REMARK       I    between atoms: C46_20  and  O47_33 
REMARK       I    between atoms: O4A_21  and  S4B_39 
REMARK       I    between atoms: N3G_22  and  C3F_46 
REMARK       I    between atoms: N3G_22  and  S3H_51 
REMARK       I    between atoms: C40_25  and  O3M_29 
REMARK       I    between atoms: O5I_26  and  S5H_47 
REMARK       I    between atoms: C53_28  and  C51_66 
REMARK       I    between atoms: O3M_29  and  C3L_61 
REMARK       I    between atoms: S17_31  and  O16_86 
REMARK       I    between atoms: O5K_34  and  S5H_47 
REMARK       I    between atoms: O1J_37  and  S1G_48 
REMARK       I    between atoms: C12_38  and  O10_70 
REMARK       I    between atoms: C13_42  and  C15_63 
REMARK       I    between atoms: C29_43  and  O2A_60 
REMARK       I    between atoms: C31_45  and  C33_81 
REMARK       I    between atoms: S5H_47  and  O5J_49 
REMARK       I    between atoms: S1G_48  and  O1H_78 
REMARK       I    between atoms: S3H_51  and  O3J_68 
REMARK       I    between atoms: O3A_54  and  C39_85 
REMARK       I    between atoms: O3A_54  and  S3B_83 
REMARK       I    between atoms: C5L_55  and  O5M_87 
REMARK       I    between atoms: C15_63  and  O16_86 
REMARK       I    between atoms: C59_71  and  O5A_75 
REMARK       I    between atoms: C33_81  and  O34_91 
REMARK       I    between atoms: S35_82  and  O34_91 
ROOT
ATOM      1  O3I NTO d 869      62.028  -2.886   7.134  0.00  0.00    -0.296 OA
ATOM      2  O1I NTO d 869      71.517  -0.410  19.384  0.00  0.00    -0.296 OA
ATOM      3  O54 NTO d 869      57.618   0.924   7.522  0.00  0.00    -0.254 OA
ATOM      4  O18 NTO d 869      65.330  -5.322  22.219  0.00  0.00    -0.572 OA
ATOM      5  C41 NTO d 869      62.839   1.629   9.500  0.00  0.00     0.152 C 
ATOM      6  C1B NTO d 869      70.848  -4.426  18.567  0.00  0.00     0.083 C 
ATOM      7  O4G NTO d 869      60.506   3.008   7.723  0.00  0.00    -0.348 OA
ATOM      8  N5G NTO d 869      58.123   5.839  10.857  0.00  0.00    -0.210 NA
ATOM      9  N1F NTO d 869      70.921  -2.168  17.631  0.00  0.00    -0.210 NA
ATOM     10  O3K NTO d 869      64.325  -3.747   7.143  0.00  0.00    -0.296 OA
ATOM     11  C5N NTO d 869      55.538   6.188   8.012  0.00  0.00     0.007 C 
ATOM     12  C21 NTO d 869      67.541  -3.820  14.926  0.00  0.00     0.152 C 
ATOM     13  C26 NTO d 869      68.073  -1.610  15.864  0.00  0.00     0.092 C 
ATOM     14  O4E NTO d 869      61.825   2.631   3.493  0.00  0.00    -0.572 OA
ATOM     15  C50 NTO d 869      59.281   3.134   8.461  0.00  0.00     0.095 C 
ATOM     16  C49 NTO d 869      62.316   1.620   6.960  0.00  0.00     0.134 C 
ATOM     17  O2D NTO d 869      65.708  -1.376  12.941  0.00  0.00    -0.348 OA
ATOM     18  O1L NTO d 869      68.666  -3.685  17.035  0.00  0.00    -0.348 OA
ATOM     19  O19 NTO d 869      66.081  -7.620  21.807  0.00  0.00    -0.572 OA
ATOM     20  C46 NTO d 869      63.171   0.410   7.340  0.00  0.00     0.094 C 
ATOM     21  O4A NTO d 869      61.898   1.518   5.596  0.00  0.00    -0.244 OA
ATOM     22  N3G NTO d 869      63.079  -3.516   9.380  0.00  0.00    -0.210 NA
ATOM     23  O36 NTO d 869      70.103  -1.277  12.358  0.00  0.00    -0.572 OA
ATOM     24  O57 NTO d 869      57.150  -0.235   5.484  0.00  0.00    -0.572 OA
ATOM     25  C40 NTO d 869      63.669   0.579   8.774  0.00  0.00     0.103 C 
ATOM     26  O5I NTO d 869      58.355   5.099  13.288  0.00  0.00    -0.296 OA
ATOM     27  C20 NTO d 869      67.674  -3.040  16.225  0.00  0.00     0.103 C 
ATOM     28  C53 NTO d 869      57.946   2.032   6.683  0.00  0.00     0.067 C 
ATOM     29  O3M NTO d 869      63.542  -0.686   9.433  0.00  0.00    -0.348 OA
ATOM     30  C43 NTO d 869      63.112   1.502  10.991  0.00  0.00     0.206 C 
ATOM     31  S17 NTO d 869      65.511  -6.384  21.176  0.00  0.00     0.251 S 
ATOM     32  O45 NTO d 869      62.978   0.375  11.520  0.00  0.00    -0.646 OA
ATOM     33  O47 NTO d 869      64.292   0.324   6.455  0.00  0.00    -0.390 OA
ATOM     34  O5K NTO d 869      56.846   6.963  12.773  0.00  0.00    -0.296 OA
ATOM     35  C2C NTO d 869      66.797  -1.906  13.714  0.00  0.00     0.160 C 
ATOM     36  O38 NTO d 869      70.607  -1.356   9.967  0.00  0.00    -0.572 OA
ATOM     37  O1J NTO d 869      72.800  -0.476  17.297  0.00  0.00    -0.296 OA
ATOM     38  C12 NTO d 869      70.065  -5.355  19.499  0.00  0.00     0.089 C 
ATOM     39  S4B NTO d 869      62.554   2.505   4.796  0.00  0.00     0.252 S 
ATOM     40  O4D NTO d 869      63.974   2.089   4.547  0.00  0.00    -0.572 OA
ATOM     41  C1E NTO d 869      70.272  -3.012  18.642  0.00  0.00     0.081 C 
ATOM     42  C13 NTO d 869      68.561  -5.246  19.237  0.00  0.00     0.090 C 
ATOM     43  C29 NTO d 869      67.006  -1.015  14.942  0.00  0.00     0.110 C 
ATOM     44  O42 NTO d 869      61.439   1.423   9.242  0.00  0.00    -0.340 OA
ATOM     45  C31 NTO d 869      65.940  -0.674  10.654  0.00  0.00     0.091 C 
ATOM     46  C3F NTO d 869      64.364  -2.895   9.749  0.00  0.00     0.083 C 
ATOM     47  S5H NTO d 869      57.374   5.643  12.293  0.00  0.00     0.156 S 
ATOM     48  S1G NTO d 869      72.111  -1.308  18.339  0.00  0.00     0.156 S 
ATOM     49  O5J NTO d 869      56.227   4.688  12.146  0.00  0.00    -0.296 OA
ATOM     50  C5F NTO d 869      58.068   4.589  10.086  0.00  0.00     0.081 C 
ATOM     51  S3H NTO d 869      62.974  -3.853   7.785  0.00  0.00     0.156 S 
ATOM     52  O25 NTO d 869      68.231  -6.010  15.550  0.00  0.00    -0.646 OA
ATOM     53  O1C NTO d 869      72.223  -4.406  18.958  0.00  0.00    -0.391 OA
ATOM     54  O3A NTO d 869      64.248  -3.746  12.021  0.00  0.00    -0.247 OA
ATOM     55  C5L NTO d 869      56.897   4.641   9.103  0.00  0.00     0.149 C 
ATOM     56  C30 NTO d 869      65.714  -1.856  11.587  0.00  0.00     0.096 C 
ATOM     57  C23 NTO d 869      67.255  -5.272  15.277  0.00  0.00     0.206 C 
ATOM     58  O3E NTO d 869      62.858  -2.578  13.596  0.00  0.00    -0.572 OA
ATOM     59  O14 NTO d 869      68.125  -3.880  19.319  0.00  0.00    -0.349 OA
ATOM     60  O2A NTO d 869      67.415   0.288  14.524  0.00  0.00    -0.388 OA
ATOM     61  C3L NTO d 869      64.552  -1.593   8.972  0.00  0.00     0.150 C 
ATOM     62  C4F NTO d 869      61.094   1.708   7.878  0.00  0.00     0.161 C 
ATOM     63  C15 NTO d 869      67.818  -6.037  20.318  0.00  0.00     0.067 C 
ATOM     64  S55 NTO d 869      57.360  -0.369   6.963  0.00  0.00     0.251 S 
ATOM     65  O58 NTO d 869      56.127  -0.938   7.596  0.00  0.00    -0.572 OA
ATOM     66  C51 NTO d 869      58.101   3.306   7.517  0.00  0.00     0.091 C 
ATOM     67  O56 NTO d 869      58.524  -1.280   7.217  0.00  0.00    -0.572 OA
ATOM     68  O3J NTO d 869      62.464  -5.252   7.599  0.00  0.00    -0.296 OA
ATOM     69  O44 NTO d 869      63.468   2.532  11.620  0.00  0.00    -0.646 OA
ATOM     70  O10 NTO d 869      70.478  -6.702  19.256  0.00  0.00    -0.390 OA
ATOM     71  C59 NTO d 869      59.388   4.377   9.343  0.00  0.00     0.083 C 
ATOM     72  O52 NTO d 869      56.876   3.487   8.246  0.00  0.00    -0.349 OA
ATOM     73  O27 NTO d 869      68.165  -0.815  17.049  0.00  0.00    -0.390 OA
ATOM     74  O1A NTO d 869      64.186  -6.698  20.553  0.00  0.00    -0.572 OA
ATOM     75  O5A NTO d 869      60.443   4.172  10.287  0.00  0.00    -0.391 OA
ATOM     76  O37 NTO d 869      69.911   0.754  11.008  0.00  0.00    -0.572 OA
ATOM     77  O24 NTO d 869      66.060  -5.653  15.293  0.00  0.00    -0.646 OA
ATOM     78  O1H NTO d 869      73.091  -2.247  18.976  0.00  0.00    -0.296 OA
ATOM     79  O22 NTO d 869      66.504  -3.259  14.101  0.00  0.00    -0.340 OA
ATOM     80  O3D NTO d 869      62.865  -5.025  13.495  0.00  0.00    -0.572 OA
ATOM     81  C33 NTO d 869      67.326  -0.083  10.930  0.00  0.00     0.067 C 
ATOM     82  S35 NTO d 869      69.729  -0.735  11.011  0.00  0.00     0.251 S 
ATOM     83  S3B NTO d 869      62.981  -3.766  12.689  0.00  0.00     0.252 S 
ATOM     84  O4C NTO d 869      62.531   3.826   5.505  0.00  0.00    -0.572 OA
ATOM     85  C39 NTO d 869      64.395  -2.555  11.240  0.00  0.00     0.108 C 
ATOM     86  O16 NTO d 869      66.403  -5.907  20.162  0.00  0.00    -0.254 OA
ATOM     87  O5M NTO d 869      56.887   5.870   8.367  0.00  0.00    -0.364 OA
ATOM     88  O3C NTO d 869      61.874  -3.732  11.678  0.00  0.00    -0.572 OA
ATOM     89  C1K NTO d 869      68.777  -3.071  18.327  0.00  0.00     0.150 C 
ATOM     90  O32 NTO d 869      65.853  -1.062   9.274  0.00  0.00    -0.349 OA
ATOM     91  O34 NTO d 869      68.360  -1.049  10.722  0.00  0.00    -0.254 OA
ATOM     92  H   NTO d 869      62.358  -1.982   7.253  0.00  0.00     0.231 HD
ATOM     93  H   NTO d 869      70.884   0.196  18.968  0.00  0.00     0.231 HD
ATOM     94  H   NTO d 869      63.105   2.606   9.155  0.00  0.00     0.104 H 
ATOM     95  H   NTO d 869      70.770  -4.784  17.562  0.00  0.00     0.089 H 
ATOM     96  H   NTO d 869      57.660   6.581  10.333  0.00  0.00     0.140 HD
ATOM     97  H   NTO d 869      70.234  -1.531  17.227  0.00  0.00     0.140 HD
ATOM     98  H   NTO d 869      64.667  -2.845   7.256  0.00  0.00     0.231 HD
ATOM     99  H   NTO d 869      55.520   7.105   7.461  0.00  0.00     0.066 H 
ATOM    100  H   NTO d 869      54.950   6.293   8.899  0.00  0.00     0.066 H 
ATOM    101  H   NTO d 869      55.134   5.402   7.408  0.00  0.00     0.066 H 
ATOM    102  H   NTO d 869      68.448  -3.762  14.361  0.00  0.00     0.104 H 
ATOM    103  H   NTO d 869      69.023  -1.619  15.371  0.00  0.00     0.091 H 
ATOM    104  H   NTO d 869      59.126   2.252   9.047  0.00  0.00     0.091 H 
ATOM    105  H   NTO d 869      62.903   2.507   7.076  0.00  0.00     0.097 H 
ATOM    106  H   NTO d 869      62.586  -0.483   7.264  0.00  0.00     0.091 H 
ATOM    107  H   NTO d 869      62.324  -2.876   9.629  0.00  0.00     0.140 HD
ATOM    108  H   NTO d 869      64.688   0.904   8.774  0.00  0.00     0.092 H 
ATOM    109  H   NTO d 869      59.095   5.717  13.382  0.00  0.00     0.231 HD
ATOM    110  H   NTO d 869      66.760  -3.011  16.780  0.00  0.00     0.092 H 
ATOM    111  H   NTO d 869      57.166   2.173   5.965  0.00  0.00     0.080 H 
ATOM    112  H   NTO d 869      58.871   1.829   6.185  0.00  0.00     0.080 H 
ATOM    113  H   NTO d 869      64.821   1.135   6.525  0.00  0.00     0.210 HD
ATOM    114  H   NTO d 869      57.581   7.589  12.871  0.00  0.00     0.231 HD
ATOM    115  H   NTO d 869      67.695  -1.916  13.135  0.00  0.00     0.133 H 
ATOM    116  H   NTO d 869      72.159   0.128  16.891  0.00  0.00     0.231 HD
ATOM    117  H   NTO d 869      70.259  -5.072  20.512  0.00  0.00     0.091 H 
ATOM    118  H   NTO d 869      70.436  -2.609  19.620  0.00  0.00     0.076 H 
ATOM    119  H   NTO d 869      68.357  -5.628  18.258  0.00  0.00     0.090 H 
ATOM    120  H   NTO d 869      66.083  -0.952  15.479  0.00  0.00     0.094 H 
ATOM    121  H   NTO d 869      65.177   0.052  10.839  0.00  0.00     0.090 H 
ATOM    122  H   NTO d 869      65.143  -3.593   9.518  0.00  0.00     0.076 H 
ATOM    123  H   NTO d 869      56.558   3.831  11.836  0.00  0.00     0.231 HD
ATOM    124  H   NTO d 869      57.919   3.765  10.752  0.00  0.00     0.076 H 
ATOM    125  H   NTO d 869      72.295  -4.080  19.870  0.00  0.00     0.210 HD
ATOM    126  H   NTO d 869      55.991   4.614   9.672  0.00  0.00     0.131 H 
ATOM    127  H   NTO d 869      66.499  -2.574  11.475  0.00  0.00     0.091 H 
ATOM    128  H   NTO d 869      68.252   0.224  14.038  0.00  0.00     0.210 HD
ATOM    129  H   NTO d 869      64.474  -1.745   7.915  0.00  0.00     0.131 H 
ATOM    130  H   NTO d 869      60.375   0.966   7.601  0.00  0.00     0.133 H 
ATOM    131  H   NTO d 869      68.100  -5.664  21.281  0.00  0.00     0.080 H 
ATOM    132  H   NTO d 869      68.079  -7.070  20.227  0.00  0.00     0.080 H 
ATOM    133  H   NTO d 869      58.286   4.164   6.906  0.00  0.00     0.090 H 
ATOM    134  H   NTO d 869      62.402  -5.451   6.652  0.00  0.00     0.231 HD
ATOM    135  H   NTO d 869      70.293  -6.935  18.333  0.00  0.00     0.210 HD
ATOM    136  H   NTO d 869      59.594   5.239   8.743  0.00  0.00     0.089 H 
ATOM    137  H   NTO d 869      67.306  -0.804  17.500  0.00  0.00     0.210 HD
ATOM    138  H   NTO d 869      60.247   3.389  10.825  0.00  0.00     0.210 HD
ATOM    139  H   NTO d 869      72.638  -2.781  19.648  0.00  0.00     0.231 HD
ATOM    140  H   NTO d 869      67.364   0.254  11.944  0.00  0.00     0.080 H 
ATOM    141  H   NTO d 869      67.484   0.730  10.251  0.00  0.00     0.080 H 
ATOM    142  H   NTO d 869      63.582  -1.896  11.462  0.00  0.00     0.092 H 
ATOM    143  H   NTO d 869      68.322  -2.103  18.331  0.00  0.00     0.131 H 
ENDROOT
TORSDOF 46
ENDMDL
MODEL 48
REMARK VINA RESULT:      -6.4      3.962      4.959
REMARK  0 active torsions:
REMARK  status: ('A' for Active; 'I' for Inactive)
REMARK       I    between atoms: O3I_1  and  S3H_51 
REMARK       I    between atoms: O1I_2  and  S1G_48 
REMARK       I    between atoms: O54_3  and  C53_28 
REMARK       I    between atoms: O54_3  and  S55_64 
REMARK       I    between atoms: C41_5  and  C43_30 
REMARK       I    between atoms: C1B_6  and  O1C_53 
REMARK       I    between atoms: O4G_7  and  C4F_62 
REMARK       I    between atoms: O4G_7  and  C50_15 
REMARK       I    between atoms: N5G_8  and  C5F_50 
REMARK       I    between atoms: N5G_8  and  S5H_47 
REMARK       I    between atoms: N1F_9  and  C1E_41 
REMARK       I    between atoms: N1F_9  and  S1G_48 
REMARK       I    between atoms: O3K_10  and  S3H_51 
REMARK       I    between atoms: C5N_11  and  O5M_87 
REMARK       I    between atoms: C21_12  and  C23_57 
REMARK       I    between atoms: C26_13  and  O27_73 
REMARK       I    between atoms: C49_16  and  O4A_21 
REMARK       I    between atoms: O2D_17  and  C2C_35 
REMARK       I    between atoms: O2D_17  and  C30_56 
REMARK       I    between atoms: O1L_18  and  C1K_89 
REMARK       I    between atoms: O1L_18  and  C20_27 
REMARK       I    between atoms: C46_20  and  O47_33 
REMARK       I    between atoms: O4A_21  and  S4B_39 
REMARK       I    between atoms: N3G_22  and  C3F_46 
REMARK       I    between atoms: N3G_22  and  S3H_51 
REMARK       I    between atoms: C40_25  and  O3M_29 
REMARK       I    between atoms: O5I_26  and  S5H_47 
REMARK       I    between atoms: C53_28  and  C51_66 
REMARK       I    between atoms: O3M_29  and  C3L_61 
REMARK       I    between atoms: S17_31  and  O16_86 
REMARK       I    between atoms: O5K_34  and  S5H_47 
REMARK       I    between atoms: O1J_37  and  S1G_48 
REMARK       I    between atoms: C12_38  and  O10_70 
REMARK       I    between atoms: C13_42  and  C15_63 
REMARK       I    between atoms: C29_43  and  O2A_60 
REMARK       I    between atoms: C31_45  and  C33_81 
REMARK       I    between atoms: S5H_47  and  O5J_49 
REMARK       I    between atoms: S1G_48  and  O1H_78 
REMARK       I    between atoms: S3H_51  and  O3J_68 
REMARK       I    between atoms: O3A_54  and  C39_85 
REMARK       I    between atoms: O3A_54  and  S3B_83 
REMARK       I    between atoms: C5L_55  and  O5M_87 
REMARK       I    between atoms: C15_63  and  O16_86 
REMARK       I    between atoms: C59_71  and  O5A_75 
REMARK       I    between atoms: C33_81  and  O34_91 
REMARK       I    between atoms: S35_82  and  O34_91 
ROOT
ATOM      1  O3I NTO d 869      64.617   5.228  14.394  0.00  0.00    -0.296 OA
ATOM      2  O1I NTO d 869      62.297  -5.059   2.774  0.00  0.00    -0.296 OA
ATOM      3  O54 NTO d 869      68.260   2.758  18.233  0.00  0.00    -0.254 OA
ATOM      4  O18 NTO d 869      56.999  -7.267   8.898  0.00  0.00    -0.572 OA
ATOM      5  C41 NTO d 869      68.002   1.714  12.710  0.00  0.00     0.152 C 
ATOM      6  C1B NTO d 869      58.841  -3.114   4.005  0.00  0.00     0.083 C 
ATOM      7  O4G NTO d 869      70.013   2.449  15.143  0.00  0.00    -0.348 OA
ATOM      8  N5G NTO d 869      71.701  -1.843  16.643  0.00  0.00    -0.210 NA
ATOM      9  N1F NTO d 869      61.277  -2.978   3.844  0.00  0.00    -0.210 NA
ATOM     10  O3K NTO d 869      63.702   5.950  12.236  0.00  0.00    -0.296 OA
ATOM     11  C5N NTO d 869      73.124   0.169  19.615  0.00  0.00     0.007 C 
ATOM     12  C21 NTO d 869      60.812  -0.592   7.789  0.00  0.00     0.152 C 
ATOM     13  C26 NTO d 869      62.538  -2.082   6.869  0.00  0.00     0.092 C 
ATOM     14  O4E NTO d 869      71.052   6.738  14.601  0.00  0.00    -0.572 OA
ATOM     15  C50 NTO d 869      69.934   1.487  16.205  0.00  0.00     0.095 C 
ATOM     16  C49 NTO d 869      68.890   3.963  13.649  0.00  0.00     0.134 C 
ATOM     17  O2D NTO d 869      63.870   0.082   9.651  0.00  0.00    -0.348 OA
ATOM     18  O1L NTO d 869      60.162  -2.366   6.318  0.00  0.00    -0.348 OA
ATOM     19  O19 NTO d 869      54.950  -5.984   8.482  0.00  0.00    -0.572 OA
ATOM     20  C46 NTO d 869      67.586   4.176  12.880  0.00  0.00     0.094 C 
ATOM     21  O4A NTO d 869      69.282   5.175  14.298  0.00  0.00    -0.244 OA
ATOM     22  N3G NTO d 869      63.206   3.565  13.057  0.00  0.00    -0.210 NA
ATOM     23  O36 NTO d 869      63.962   1.443   5.432  0.00  0.00    -0.572 OA
ATOM     24  O57 NTO d 869      67.894   4.931  19.160  0.00  0.00    -0.572 OA
ATOM     25  C40 NTO d 869      67.229   2.892  12.133  0.00  0.00     0.103 C 
ATOM     26  O5I NTO d 869      70.162  -3.800  16.090  0.00  0.00    -0.296 OA
ATOM     27  C20 NTO d 869      61.091  -2.023   7.356  0.00  0.00     0.103 C 
ATOM     28  C53 NTO d 869      69.573   3.233  17.932  0.00  0.00     0.067 C 
ATOM     29  O3M NTO d 869      65.822   2.674  12.285  0.00  0.00    -0.348 OA
ATOM     30  C43 NTO d 869      67.358   0.432  12.206  0.00  0.00     0.206 C 
ATOM     31  S17 NTO d 869      56.352  -5.919   9.010  0.00  0.00     0.251 S 
ATOM     32  O45 NTO d 869      66.126   0.287  12.373  0.00  0.00    -0.646 OA
ATOM     33  O47 NTO d 869      67.758   5.240  11.939  0.00  0.00    -0.390 OA
ATOM     34  O5K NTO d 869      72.156  -4.231  17.451  0.00  0.00    -0.296 OA
ATOM     35  C2C NTO d 869      63.057  -0.247   8.512  0.00  0.00     0.160 C 
ATOM     36  O38 NTO d 869      64.686   3.777   5.346  0.00  0.00    -0.572 OA
ATOM     37  O1J NTO d 869      62.892  -2.860   1.874  0.00  0.00    -0.296 OA
ATOM     38  C12 NTO d 869      57.685  -3.821   4.718  0.00  0.00     0.089 C 
ATOM     39  S4B NTO d 869      70.453   5.718  13.681  0.00  0.00     0.252 S 
ATOM     40  O4D NTO d 869      70.083   6.361  12.377  0.00  0.00    -0.572 OA
ATOM     41  C1E NTO d 869      60.168  -3.760   4.403  0.00  0.00     0.081 C 
ATOM     42  C13 NTO d 869      57.946  -3.908   6.223  0.00  0.00     0.090 C 
ATOM     43  C29 NTO d 869      63.462  -1.633   8.004  0.00  0.00     0.110 C 
ATOM     44  O42 NTO d 869      67.962   1.748  14.147  0.00  0.00    -0.340 OA
ATOM     45  C31 NTO d 869      65.303   2.009   9.730  0.00  0.00     0.091 C 
ATOM     46  C3F NTO d 869      63.603   3.270  11.668  0.00  0.00     0.083 C 
ATOM     47  S5H NTO d 869      71.059  -3.251  17.159  0.00  0.00     0.156 S 
ATOM     48  S1G NTO d 869      61.786  -3.682   2.466  0.00  0.00     0.156 S 
ATOM     49  O5J NTO d 869      70.265  -3.024  18.411  0.00  0.00    -0.296 OA
ATOM     50  C5F NTO d 869      70.796  -0.729  16.963  0.00  0.00     0.081 C 
ATOM     51  S3H NTO d 869      63.443   5.129  13.464  0.00  0.00     0.156 S 
ATOM     52  O25 NTO d 869      58.511  -0.314   7.248  0.00  0.00    -0.646 OA
ATOM     53  O1C NTO d 869      58.662  -3.214   2.590  0.00  0.00    -0.391 OA
ATOM     54  O3A NTO d 869      62.030   1.427  11.494  0.00  0.00    -0.247 OA
ATOM     55  C5L NTO d 869      71.236  -0.066  18.270  0.00  0.00     0.149 C 
ATOM     56  C30 NTO d 869      63.884   1.492   9.924  0.00  0.00     0.096 C 
ATOM     57  C23 NTO d 869      59.342  -0.494   8.169  0.00  0.00     0.206 C 
ATOM     58  O3E NTO d 869      62.648  -0.683  12.465  0.00  0.00    -0.572 OA
ATOM     59  O14 NTO d 869      59.219  -4.518   6.487  0.00  0.00    -0.349 OA
ATOM     60  O2A NTO d 869      64.809  -1.596   7.531  0.00  0.00    -0.388 OA
ATOM     61  C3L NTO d 869      65.083   3.596  11.472  0.00  0.00     0.150 C 
ATOM     62  C4F NTO d 869      68.714   2.847  14.683  0.00  0.00     0.161 C 
ATOM     63  C15 NTO d 869      56.867  -4.792   6.857  0.00  0.00     0.067 C 
ATOM     64  S55 NTO d 869      67.251   3.650  18.721  0.00  0.00     0.251 S 
ATOM     65  O58 NTO d 869      66.555   3.012  19.886  0.00  0.00    -0.572 OA
ATOM     66  C51 NTO d 869      70.473   2.073  17.502  0.00  0.00     0.091 C 
ATOM     67  O56 NTO d 869      66.255   3.941  17.638  0.00  0.00    -0.572 OA
ATOM     68  O3J NTO d 869      62.218   5.661  14.147  0.00  0.00    -0.296 OA
ATOM     69  O44 NTO d 869      68.092  -0.419  11.640  0.00  0.00    -0.646 OA
ATOM     70  O10 NTO d 869      56.486  -3.074   4.500  0.00  0.00    -0.390 OA
ATOM     71  C59 NTO d 869      70.793   0.284  15.817  0.00  0.00     0.083 C 
ATOM     72  O52 NTO d 869      70.449   1.101  18.560  0.00  0.00    -0.349 OA
ATOM     73  O27 NTO d 869      62.873  -3.421   6.494  0.00  0.00    -0.390 OA
ATOM     74  O1A NTO d 869      56.333  -5.498  10.448  0.00  0.00    -0.572 OA
ATOM     75  O5A NTO d 869      70.227  -0.316  14.648  0.00  0.00    -0.391 OA
ATOM     76  O37 NTO d 869      66.340   1.985   5.623  0.00  0.00    -0.572 OA
ATOM     77  O24 NTO d 869      59.034  -0.617   9.379  0.00  0.00    -0.646 OA
ATOM     78  O1H NTO d 869      60.642  -3.771   1.501  0.00  0.00    -0.296 OA
ATOM     79  O22 NTO d 869      61.669  -0.215   8.882  0.00  0.00    -0.340 OA
ATOM     80  O3D NTO d 869      60.387   0.217  12.741  0.00  0.00    -0.572 OA
ATOM     81  C33 NTO d 869      65.700   1.829   8.261  0.00  0.00     0.067 C 
ATOM     82  S35 NTO d 869      64.951   2.437   5.964  0.00  0.00     0.251 S 
ATOM     83  S3B NTO d 869      61.839   0.570  12.625  0.00  0.00     0.252 S 
ATOM     84  O4C NTO d 869      71.450   4.623  13.441  0.00  0.00    -0.572 OA
ATOM     85  C39 NTO d 869      63.409   1.786  11.351  0.00  0.00     0.108 C 
ATOM     86  O16 NTO d 869      57.107  -4.965   8.254  0.00  0.00    -0.254 OA
ATOM     87  O5M NTO d 869      72.643   0.208  18.268  0.00  0.00    -0.364 OA
ATOM     88  O3C NTO d 869      62.270   1.278  13.876  0.00  0.00    -0.572 OA
ATOM     89  C1K NTO d 869      60.289  -3.741   5.927  0.00  0.00     0.150 C 
ATOM     90  O32 NTO d 869      65.417   3.395  10.089  0.00  0.00    -0.349 OA
ATOM     91  O34 NTO d 869      64.818   2.541   7.388  0.00  0.00    -0.254 OA
ATOM     92  H   NTO d 869      65.409   4.884  13.952  0.00  0.00     0.231 HD
ATOM     93  H   NTO d 869      63.037  -4.997   3.398  0.00  0.00     0.231 HD
ATOM     94  H   NTO d 869      69.025   1.763  12.401  0.00  0.00     0.104 H 
ATOM     95  H   NTO d 869      58.853  -2.082   4.289  0.00  0.00     0.089 H 
ATOM     96  H   NTO d 869      72.598  -1.692  17.104  0.00  0.00     0.140 HD
ATOM     97  H   NTO d 869      62.045  -2.947   4.515  0.00  0.00     0.140 HD
ATOM     98  H   NTO d 869      64.493   5.616  11.784  0.00  0.00     0.231 HD
ATOM     99  H   NTO d 869      74.175   0.372  19.624  0.00  0.00     0.066 H 
ATOM    100  H   NTO d 869      72.945  -0.800  20.031  0.00  0.00     0.066 H 
ATOM    101  H   NTO d 869      72.613   0.907  20.198  0.00  0.00     0.066 H 
ATOM    102  H   NTO d 869      61.019   0.087   6.989  0.00  0.00     0.104 H 
ATOM    103  H   NTO d 869      62.656  -1.439   6.022  0.00  0.00     0.091 H 
ATOM    104  H   NTO d 869      68.913   1.205  16.356  0.00  0.00     0.091 H 
ATOM    105  H   NTO d 869      69.656   3.678  12.958  0.00  0.00     0.097 H 
ATOM    106  H   NTO d 869      66.801   4.426  13.563  0.00  0.00     0.091 H 
ATOM    107  H   NTO d 869      63.756   2.977  13.685  0.00  0.00     0.140 HD
ATOM    108  H   NTO d 869      67.486   2.984  11.099  0.00  0.00     0.092 H 
ATOM    109  H   NTO d 869      70.675  -3.947  15.281  0.00  0.00     0.231 HD
ATOM    110  H   NTO d 869      60.969  -2.723   8.155  0.00  0.00     0.092 H 
ATOM    111  H   NTO d 869      69.987   3.698  18.801  0.00  0.00     0.080 H 
ATOM    112  H   NTO d 869      69.511   3.940  17.131  0.00  0.00     0.080 H 
ATOM    113  H   NTO d 869      68.470   5.012  11.320  0.00  0.00     0.210 HD
ATOM    114  H   NTO d 869      72.676  -4.385  16.646  0.00  0.00     0.231 HD
ATOM    115  H   NTO d 869      63.206   0.467   7.730  0.00  0.00     0.133 H 
ATOM    116  H   NTO d 869      63.628  -2.807   2.504  0.00  0.00     0.231 HD
ATOM    117  H   NTO d 869      57.593  -4.813   4.327  0.00  0.00     0.091 H 
ATOM    118  H   NTO d 869      60.202  -4.765   4.034  0.00  0.00     0.076 H 
ATOM    119  H   NTO d 869      57.934  -2.918   6.628  0.00  0.00     0.090 H 
ATOM    120  H   NTO d 869      63.379  -2.330   8.812  0.00  0.00     0.094 H 
ATOM    121  H   NTO d 869      65.956   1.451  10.367  0.00  0.00     0.090 H 
ATOM    122  H   NTO d 869      62.993   3.864  11.020  0.00  0.00     0.076 H 
ATOM    123  H   NTO d 869      69.553  -2.391  18.232  0.00  0.00     0.231 HD
ATOM    124  H   NTO d 869      69.801  -1.103  17.087  0.00  0.00     0.076 H 
ATOM    125  H   NTO d 869      58.651  -4.149   2.331  0.00  0.00     0.210 HD
ATOM    126  H   NTO d 869      71.057  -0.759  19.064  0.00  0.00     0.131 H 
ATOM    127  H   NTO d 869      63.213   1.985   9.252  0.00  0.00     0.091 H 
ATOM    128  H   NTO d 869      64.878  -0.964   6.799  0.00  0.00     0.210 HD
ATOM    129  H   NTO d 869      65.307   4.607  11.742  0.00  0.00     0.131 H 
ATOM    130  H   NTO d 869      68.146   3.208  15.515  0.00  0.00     0.133 H 
ATOM    131  H   NTO d 869      56.873  -5.749   6.379  0.00  0.00     0.080 H 
ATOM    132  H   NTO d 869      55.917  -4.317   6.729  0.00  0.00     0.080 H 
ATOM    133  H   NTO d 869      71.480   2.391  17.329  0.00  0.00     0.090 H 
ATOM    134  H   NTO d 869      62.359   6.590  14.388  0.00  0.00     0.231 HD
ATOM    135  H   NTO d 869      56.593  -2.180   4.862  0.00  0.00     0.210 HD
ATOM    136  H   NTO d 869      71.798   0.595  15.622  0.00  0.00     0.089 H 
ATOM    137  H   NTO d 869      62.768  -4.008   7.259  0.00  0.00     0.210 HD
ATOM    138  H   NTO d 869      69.317  -0.593  14.835  0.00  0.00     0.210 HD
ATOM    139  H   NTO d 869      59.931  -4.305   1.890  0.00  0.00     0.231 HD
ATOM    140  H   NTO d 869      65.666   0.789   8.017  0.00  0.00     0.080 H 
ATOM    141  H   NTO d 869      66.688   2.220   8.131  0.00  0.00     0.080 H 
ATOM    142  H   NTO d 869      63.988   1.205  12.038  0.00  0.00     0.092 H 
ATOM    143  H   NTO d 869      61.217  -4.152   6.266  0.00  0.00     0.131 H 
ENDROOT
TORSDOF 46
ENDMDL
MODEL 49
REMARK VINA RESULT:      -6.2      2.899      3.733
REMARK  0 active torsions:
REMARK  status: ('A' for Active; 'I' for Inactive)
REMARK       I    between atoms: O3I_1  and  S3H_51 
REMARK       I    between atoms: O1I_2  and  S1G_48 
REMARK       I    between atoms: O54_3  and  C53_28 
REMARK       I    between atoms: O54_3  and  S55_64 
REMARK       I    between atoms: C41_5  and  C43_30 
REMARK       I    between atoms: C1B_6  and  O1C_53 
REMARK       I    between atoms: O4G_7  and  C4F_62 
REMARK       I    between atoms: O4G_7  and  C50_15 
REMARK       I    between atoms: N5G_8  and  C5F_50 
REMARK       I    between atoms: N5G_8  and  S5H_47 
REMARK       I    between atoms: N1F_9  and  C1E_41 
REMARK       I    between atoms: N1F_9  and  S1G_48 
REMARK       I    between atoms: O3K_10  and  S3H_51 
REMARK       I    between atoms: C5N_11  and  O5M_87 
REMARK       I    between atoms: C21_12  and  C23_57 
REMARK       I    between atoms: C26_13  and  O27_73 
REMARK       I    between atoms: C49_16  and  O4A_21 
REMARK       I    between atoms: O2D_17  and  C2C_35 
REMARK       I    between atoms: O2D_17  and  C30_56 
REMARK       I    between atoms: O1L_18  and  C1K_89 
REMARK       I    between atoms: O1L_18  and  C20_27 
REMARK       I    between atoms: C46_20  and  O47_33 
REMARK       I    between atoms: O4A_21  and  S4B_39 
REMARK       I    between atoms: N3G_22  and  C3F_46 
REMARK       I    between atoms: N3G_22  and  S3H_51 
REMARK       I    between atoms: C40_25  and  O3M_29 
REMARK       I    between atoms: O5I_26  and  S5H_47 
REMARK       I    between atoms: C53_28  and  C51_66 
REMARK       I    between atoms: O3M_29  and  C3L_61 
REMARK       I    between atoms: S17_31  and  O16_86 
REMARK       I    between atoms: O5K_34  and  S5H_47 
REMARK       I    between atoms: O1J_37  and  S1G_48 
REMARK       I    between atoms: C12_38  and  O10_70 
REMARK       I    between atoms: C13_42  and  C15_63 
REMARK       I    between atoms: C29_43  and  O2A_60 
REMARK       I    between atoms: C31_45  and  C33_81 
REMARK       I    between atoms: S5H_47  and  O5J_49 
REMARK       I    between atoms: S1G_48  and  O1H_78 
REMARK       I    between atoms: S3H_51  and  O3J_68 
REMARK       I    between atoms: O3A_54  and  C39_85 
REMARK       I    between atoms: O3A_54  and  S3B_83 
REMARK       I    between atoms: C5L_55  and  O5M_87 
REMARK       I    between atoms: C15_63  and  O16_86 
REMARK       I    between atoms: C59_71  and  O5A_75 
REMARK       I    between atoms: C33_81  and  O34_91 
REMARK       I    between atoms: S35_82  and  O34_91 
ROOT
ATOM      1  O3I NTO d 869      67.193   3.779   9.228  0.00  0.00    -0.296 OA
ATOM      2  O1I NTO d 869      54.542  -3.846   3.931  0.00  0.00    -0.296 OA
ATOM      3  O54 NTO d 869      68.525   1.557  14.463  0.00  0.00    -0.254 OA
ATOM      4  O18 NTO d 869      51.647   2.139   9.054  0.00  0.00    -0.572 OA
ATOM      5  C41 NTO d 869      65.937  -1.123  10.246  0.00  0.00     0.152 C 
ATOM      6  C1B NTO d 869      54.422   0.253   3.281  0.00  0.00     0.083 C 
ATOM      7  O4G NTO d 869      68.372  -1.331  12.376  0.00  0.00    -0.348 OA
ATOM      8  N5G NTO d 869      66.499  -3.804  16.104  0.00  0.00    -0.210 NA
ATOM      9  N1F NTO d 869      55.870  -1.691   3.601  0.00  0.00    -0.210 NA
ATOM     10  O3K NTO d 869      66.581   3.850   6.854  0.00  0.00    -0.296 OA
ATOM     11  C5N NTO d 869      69.735  -2.770  17.939  0.00  0.00     0.007 C 
ATOM     12  C21 NTO d 869      58.602   1.426   5.672  0.00  0.00     0.152 C 
ATOM     13  C26 NTO d 869      58.176  -0.974   5.992  0.00  0.00     0.092 C 
ATOM     14  O4E NTO d 869      72.086  -0.595  10.044  0.00  0.00    -0.572 OA
ATOM     15  C50 NTO d 869      67.907  -1.201  13.728  0.00  0.00     0.095 C 
ATOM     16  C49 NTO d 869      68.445  -0.468  10.132  0.00  0.00     0.134 C 
ATOM     17  O2D NTO d 869      61.419   0.111   7.572  0.00  0.00    -0.348 OA
ATOM     18  O1L NTO d 869      56.437   0.545   5.156  0.00  0.00    -0.348 OA
ATOM     19  O19 NTO d 869      51.335   4.116   7.637  0.00  0.00    -0.572 OA
ATOM     20  C46 NTO d 869      67.633   0.314   9.098  0.00  0.00     0.094 C 
ATOM     21  O4A NTO d 869      69.789   0.017  10.173  0.00  0.00    -0.244 OA
ATOM     22  N3G NTO d 869      64.717   3.606   8.608  0.00  0.00    -0.210 NA
ATOM     23  O36 NTO d 869      61.258  -1.261   3.358  0.00  0.00    -0.572 OA
ATOM     24  O57 NTO d 869      70.255   3.169  14.106  0.00  0.00    -0.572 OA
ATOM     25  C40 NTO d 869      66.226  -0.273   9.018  0.00  0.00     0.103 C 
ATOM     26  O5I NTO d 869      63.958  -3.649  16.263  0.00  0.00    -0.296 OA
ATOM     27  C20 NTO d 869      57.539   0.412   6.064  0.00  0.00     0.103 C 
ATOM     28  C53 NTO d 869      69.549   0.583  14.257  0.00  0.00     0.067 C 
ATOM     29  O3M NTO d 869      65.300   0.819   8.951  0.00  0.00    -0.348 OA
ATOM     30  C43 NTO d 869      64.439  -1.374  10.310  0.00  0.00     0.206 C 
ATOM     31  S17 NTO d 869      52.343   3.266   8.353  0.00  0.00     0.251 S 
ATOM     32  O45 NTO d 869      63.674  -0.384  10.257  0.00  0.00    -0.646 OA
ATOM     33  O47 NTO d 869      68.266   0.207   7.819  0.00  0.00    -0.390 OA
ATOM     34  O5K NTO d 869      65.172  -4.807  18.052  0.00  0.00    -0.296 OA
ATOM     35  C2C NTO d 869      60.364   0.112   6.595  0.00  0.00     0.160 C 
ATOM     36  O38 NTO d 869      63.431  -0.893   2.301  0.00  0.00    -0.572 OA
ATOM     37  O1J NTO d 869      56.298  -3.794   2.223  0.00  0.00    -0.296 OA
ATOM     38  C12 NTO d 869      53.433   1.188   3.982  0.00  0.00     0.089 C 
ATOM     39  S4B NTO d 869      70.690  -0.956   9.636  0.00  0.00     0.252 S 
ATOM     40  O4D NTO d 869      70.582  -0.971   8.140  0.00  0.00    -0.572 OA
ATOM     41  C1E NTO d 869      54.804  -0.893   4.218  0.00  0.00     0.081 C 
ATOM     42  C13 NTO d 869      53.963   1.612   5.354  0.00  0.00     0.090 C 
ATOM     43  C29 NTO d 869      59.384  -1.015   6.930  0.00  0.00     0.110 C 
ATOM     44  O42 NTO d 869      66.368  -0.440  11.437  0.00  0.00    -0.340 OA
ATOM     45  C31 NTO d 869      63.735  -0.182   7.004  0.00  0.00     0.091 C 
ATOM     46  C3F NTO d 869      64.305   2.553   7.663  0.00  0.00     0.083 C 
ATOM     47  S5H NTO d 869      65.208  -3.656  17.090  0.00  0.00     0.156 S 
ATOM     48  S1G NTO d 869      55.212  -3.000   2.888  0.00  0.00     0.156 S 
ATOM     49  O5J NTO d 869      65.301  -2.378  17.868  0.00  0.00    -0.296 OA
ATOM     50  C5F NTO d 869      66.929  -2.478  15.636  0.00  0.00     0.081 C 
ATOM     51  S3H NTO d 869      66.170   4.255   8.238  0.00  0.00     0.156 S 
ATOM     52  O25 NTO d 869      57.340   3.125   4.585  0.00  0.00    -0.646 OA
ATOM     53  O1C NTO d 869      53.823  -0.274   2.095  0.00  0.00    -0.391 OA
ATOM     54  O3A NTO d 869      61.945   2.949   8.079  0.00  0.00    -0.247 OA
ATOM     55  C5L NTO d 869      68.076  -1.969  16.512  0.00  0.00     0.149 C 
ATOM     56  C30 NTO d 869      62.587   0.812   7.117  0.00  0.00     0.096 C 
ATOM     57  C23 NTO d 869      57.951   2.800   5.630  0.00  0.00     0.206 C 
ATOM     58  O3E NTO d 869      60.972   2.005  10.064  0.00  0.00    -0.572 OA
ATOM     59  O14 NTO d 869      54.302   0.464   6.148  0.00  0.00    -0.349 OA
ATOM     60  O2A NTO d 869      60.041  -2.276   6.801  0.00  0.00    -0.388 OA
ATOM     61  C3L NTO d 869      65.341   1.430   7.654  0.00  0.00     0.150 C 
ATOM     62  C4F NTO d 869      67.798  -0.338  11.514  0.00  0.00     0.161 C 
ATOM     63  C15 NTO d 869      52.859   2.377   6.090  0.00  0.00     0.067 C 
ATOM     64  S55 NTO d 869      68.777   2.947  14.224  0.00  0.00     0.251 S 
ATOM     65  O58 NTO d 869      68.238   3.746  15.371  0.00  0.00    -0.572 OA
ATOM     66  C51 NTO d 869      69.049  -0.808  14.653  0.00  0.00     0.091 C 
ATOM     67  O56 NTO d 869      68.109   3.378  12.952  0.00  0.00    -0.572 OA
ATOM     68  O3J NTO d 869      66.080   5.752   8.294  0.00  0.00    -0.296 OA
ATOM     69  O44 NTO d 869      64.039  -2.564  10.404  0.00  0.00    -0.646 OA
ATOM     70  O10 NTO d 869      53.255   2.355   3.176  0.00  0.00    -0.390 OA
ATOM     71  C59 NTO d 869      67.362  -2.557  14.171  0.00  0.00     0.083 C 
ATOM     72  O52 NTO d 869      68.606  -0.728  16.018  0.00  0.00    -0.349 OA
ATOM     73  O27 NTO d 869      57.230  -1.967   6.400  0.00  0.00    -0.390 OA
ATOM     74  O1A NTO d 869      53.082   4.096   9.358  0.00  0.00    -0.572 OA
ATOM     75  O5A NTO d 869      66.231  -2.879  13.354  0.00  0.00    -0.391 OA
ATOM     76  O37 NTO d 869      63.088  -2.833   3.765  0.00  0.00    -0.572 OA
ATOM     77  O24 NTO d 869      58.041   3.528   6.647  0.00  0.00    -0.646 OA
ATOM     78  O1H NTO d 869      54.203  -2.559   1.871  0.00  0.00    -0.296 OA
ATOM     79  O22 NTO d 869      59.705   1.389   6.595  0.00  0.00    -0.340 OA
ATOM     80  O3D NTO d 869      60.451   4.296   9.374  0.00  0.00    -0.572 OA
ATOM     81  C33 NTO d 869      63.388  -1.222   5.935  0.00  0.00     0.067 C 
ATOM     82  S35 NTO d 869      62.741  -1.391   3.535  0.00  0.00     0.251 S 
ATOM     83  S3B NTO d 869      61.517   3.242   9.414  0.00  0.00     0.252 S 
ATOM     84  O4C NTO d 869      70.350  -2.311  10.182  0.00  0.00    -0.572 OA
ATOM     85  C39 NTO d 869      62.965   1.944   8.078  0.00  0.00     0.108 C 
ATOM     86  O16 NTO d 869      53.279   2.733   7.409  0.00  0.00    -0.254 OA
ATOM     87  O5M NTO d 869      69.089  -2.970  16.678  0.00  0.00    -0.364 OA
ATOM     88  O3C NTO d 869      62.676   3.752  10.218  0.00  0.00    -0.572 OA
ATOM     89  C1K NTO d 869      55.341  -0.305   5.523  0.00  0.00     0.150 C 
ATOM     90  O32 NTO d 869      64.968   0.468   6.655  0.00  0.00    -0.349 OA
ATOM     91  O34 NTO d 869      63.169  -0.611   4.659  0.00  0.00    -0.254 OA
ATOM     92  H   NTO d 869      67.251   2.811   9.192  0.00  0.00     0.231 HD
ATOM     93  H   NTO d 869      55.198  -4.130   4.587  0.00  0.00     0.231 HD
ATOM     94  H   NTO d 869      66.468  -2.050  10.180  0.00  0.00     0.104 H 
ATOM     95  H   NTO d 869      55.303   0.802   3.020  0.00  0.00     0.089 H 
ATOM     96  H   NTO d 869      67.264  -4.247  16.613  0.00  0.00     0.140 HD
ATOM     97  H   NTO d 869      56.532  -1.989   4.317  0.00  0.00     0.140 HD
ATOM     98  H   NTO d 869      66.642   2.883   6.805  0.00  0.00     0.231 HD
ATOM     99  H   NTO d 869      70.493  -3.513  18.073  0.00  0.00     0.066 H 
ATOM    100  H   NTO d 869      69.015  -2.851  18.726  0.00  0.00     0.066 H 
ATOM    101  H   NTO d 869      70.180  -1.798  17.962  0.00  0.00     0.066 H 
ATOM    102  H   NTO d 869      59.002   1.193   4.707  0.00  0.00     0.104 H 
ATOM    103  H   NTO d 869      58.482  -1.173   4.986  0.00  0.00     0.091 H 
ATOM    104  H   NTO d 869      67.152  -0.443  13.774  0.00  0.00     0.091 H 
ATOM    105  H   NTO d 869      68.459  -1.500   9.851  0.00  0.00     0.097 H 
ATOM    106  H   NTO d 869      67.579   1.343   9.385  0.00  0.00     0.091 H 
ATOM    107  H   NTO d 869      64.768   3.203   9.544  0.00  0.00     0.140 HD
ATOM    108  H   NTO d 869      66.135  -0.896   8.153  0.00  0.00     0.092 H 
ATOM    109  H   NTO d 869      63.898  -4.476  15.760  0.00  0.00     0.231 HD
ATOM    110  H   NTO d 869      57.171   0.570   7.056  0.00  0.00     0.092 H 
ATOM    111  H   NTO d 869      70.401   0.834  14.854  0.00  0.00     0.080 H 
ATOM    112  H   NTO d 869      69.817   0.573  13.221  0.00  0.00     0.080 H 
ATOM    113  H   NTO d 869      68.314  -0.727   7.560  0.00  0.00     0.210 HD
ATOM    114  H   NTO d 869      65.112  -5.640  17.558  0.00  0.00     0.231 HD
ATOM    115  H   NTO d 869      60.763  -0.052   5.617  0.00  0.00     0.133 H 
ATOM    116  H   NTO d 869      56.945  -4.076   2.888  0.00  0.00     0.231 HD
ATOM    117  H   NTO d 869      52.506   0.672   4.117  0.00  0.00     0.091 H 
ATOM    118  H   NTO d 869      53.946  -1.505   4.404  0.00  0.00     0.076 H 
ATOM    119  H   NTO d 869      54.834   2.217   5.210  0.00  0.00     0.090 H 
ATOM    120  H   NTO d 869      59.043  -0.884   7.936  0.00  0.00     0.094 H 
ATOM    121  H   NTO d 869      63.871  -0.651   7.956  0.00  0.00     0.090 H 
ATOM    122  H   NTO d 869      64.218   2.999   6.694  0.00  0.00     0.076 H 
ATOM    123  H   NTO d 869      65.325  -1.627  17.255  0.00  0.00     0.231 HD
ATOM    124  H   NTO d 869      66.112  -1.791  15.711  0.00  0.00     0.076 H 
ATOM    125  H   NTO d 869      53.024  -0.772   2.331  0.00  0.00     0.210 HD
ATOM    126  H   NTO d 869      67.680  -1.766  17.484  0.00  0.00     0.131 H 
ATOM    127  H   NTO d 869      62.381   1.252   6.164  0.00  0.00     0.091 H 
ATOM    128  H   NTO d 869      60.347  -2.390   5.887  0.00  0.00     0.210 HD
ATOM    129  H   NTO d 869      66.323   1.797   7.437  0.00  0.00     0.131 H 
ATOM    130  H   NTO d 869      67.996   0.632  11.920  0.00  0.00     0.133 H 
ATOM    131  H   NTO d 869      51.988   1.759   6.155  0.00  0.00     0.080 H 
ATOM    132  H   NTO d 869      52.642   3.272   5.546  0.00  0.00     0.080 H 
ATOM    133  H   NTO d 869      69.816  -1.549  14.567  0.00  0.00     0.090 H 
ATOM    134  H   NTO d 869      66.943   6.136   8.074  0.00  0.00     0.231 HD
ATOM    135  H   NTO d 869      54.107   2.806   3.068  0.00  0.00     0.210 HD
ATOM    136  H   NTO d 869      68.115  -3.310  14.070  0.00  0.00     0.089 H 
ATOM    137  H   NTO d 869      56.949  -1.791   7.312  0.00  0.00     0.210 HD
ATOM    138  H   NTO d 869      65.555  -2.191  13.453  0.00  0.00     0.210 HD
ATOM    139  H   NTO d 869      53.505  -2.046   2.308  0.00  0.00     0.231 HD
ATOM    140  H   NTO d 869      62.499  -1.740   6.229  0.00  0.00     0.080 H 
ATOM    141  H   NTO d 869      64.212  -1.899   5.845  0.00  0.00     0.080 H 
ATOM    142  H   NTO d 869      63.055   1.546   9.068  0.00  0.00     0.092 H 
ATOM    143  H   NTO d 869      55.658  -1.063   6.210  0.00  0.00     0.131 H 
ENDROOT
TORSDOF 46
ENDMDL
MODEL 50
REMARK VINA RESULT:      -6.1      3.508     14.158
REMARK  0 active torsions:
REMARK  status: ('A' for Active; 'I' for Inactive)
REMARK       I    between atoms: O3I_1  and  S3H_51 
REMARK       I    between atoms: O1I_2  and  S1G_48 
REMARK       I    between atoms: O54_3  and  C53_28 
REMARK       I    between atoms: O54_3  and  S55_64 
REMARK       I    between atoms: C41_5  and  C43_30 
REMARK       I    between atoms: C1B_6  and  O1C_53 
REMARK       I    between atoms: O4G_7  and  C4F_62 
REMARK       I    between atoms: O4G_7  and  C50_15 
REMARK       I    between atoms: N5G_8  and  C5F_50 
REMARK       I    between atoms: N5G_8  and  S5H_47 
REMARK       I    between atoms: N1F_9  and  C1E_41 
REMARK       I    between atoms: N1F_9  and  S1G_48 
REMARK       I    between atoms: O3K_10  and  S3H_51 
REMARK       I    between atoms: C5N_11  and  O5M_87 
REMARK       I    between atoms: C21_12  and  C23_57 
REMARK       I    between atoms: C26_13  and  O27_73 
REMARK       I    between atoms: C49_16  and  O4A_21 
REMARK       I    between atoms: O2D_17  and  C2C_35 
REMARK       I    between atoms: O2D_17  and  C30_56 
REMARK       I    between atoms: O1L_18  and  C1K_89 
REMARK       I    between atoms: O1L_18  and  C20_27 
REMARK       I    between atoms: C46_20  and  O47_33 
REMARK       I    between atoms: O4A_21  and  S4B_39 
REMARK       I    between atoms: N3G_22  and  C3F_46 
REMARK       I    between atoms: N3G_22  and  S3H_51 
REMARK       I    between atoms: C40_25  and  O3M_29 
REMARK       I    between atoms: O5I_26  and  S5H_47 
REMARK       I    between atoms: C53_28  and  C51_66 
REMARK       I    between atoms: O3M_29  and  C3L_61 
REMARK       I    between atoms: S17_31  and  O16_86 
REMARK       I    between atoms: O5K_34  and  S5H_47 
REMARK       I    between atoms: O1J_37  and  S1G_48 
REMARK       I    between atoms: C12_38  and  O10_70 
REMARK       I    between atoms: C13_42  and  C15_63 
REMARK       I    between atoms: C29_43  and  O2A_60 
REMARK       I    between atoms: C31_45  and  C33_81 
REMARK       I    between atoms: S5H_47  and  O5J_49 
REMARK       I    between atoms: S1G_48  and  O1H_78 
REMARK       I    between atoms: S3H_51  and  O3J_68 
REMARK       I    between atoms: O3A_54  and  C39_85 
REMARK       I    between atoms: O3A_54  and  S3B_83 
REMARK       I    between atoms: C5L_55  and  O5M_87 
REMARK       I    between atoms: C15_63  and  O16_86 
REMARK       I    between atoms: C59_71  and  O5A_75 
REMARK       I    between atoms: C33_81  and  O34_91 
REMARK       I    between atoms: S35_82  and  O34_91 
ROOT
ATOM      1  O3I NTO d 869      63.225  -1.250   7.173  0.00  0.00    -0.296 OA
ATOM      2  O1I NTO d 869      70.583   9.250  16.221  0.00  0.00    -0.296 OA
ATOM      3  O54 NTO d 869      57.533   0.061   7.225  0.00  0.00    -0.254 OA
ATOM      4  O18 NTO d 869      67.586   3.405  21.446  0.00  0.00    -0.572 OA
ATOM      5  C41 NTO d 869      61.805   3.655   7.926  0.00  0.00     0.152 C 
ATOM      6  C1B NTO d 869      71.916   5.353  16.751  0.00  0.00     0.083 C 
ATOM      7  O4G NTO d 869      59.062   3.141   6.278  0.00  0.00    -0.348 OA
ATOM      8  N5G NTO d 869      55.671   5.493   8.825  0.00  0.00    -0.210 NA
ATOM      9  N1F NTO d 869      70.873   6.928  15.199  0.00  0.00    -0.210 NA
ATOM     10  O3K NTO d 869      65.651  -0.931   7.016  0.00  0.00    -0.296 OA
ATOM     11  C5N NTO d 869      53.183   3.647   6.522  0.00  0.00     0.007 C 
ATOM     12  C21 NTO d 869      68.656   3.123  13.758  0.00  0.00     0.152 C 
ATOM     13  C26 NTO d 869      68.075   5.509  13.894  0.00  0.00     0.092 C 
ATOM     14  O4E NTO d 869      60.316   1.963   2.178  0.00  0.00    -0.572 OA
ATOM     15  C50 NTO d 869      57.943   2.952   7.157  0.00  0.00     0.095 C 
ATOM     16  C49 NTO d 869      61.302   2.540   5.638  0.00  0.00     0.134 C 
ATOM     17  O2D NTO d 869      65.833   3.639  11.512  0.00  0.00    -0.348 OA
ATOM     18  O1L NTO d 869      69.618   4.463  15.494  0.00  0.00    -0.348 OA
ATOM     19  O19 NTO d 869      69.343   1.700  21.595  0.00  0.00    -0.572 OA
ATOM     20  C46 NTO d 869      62.641   2.053   6.194  0.00  0.00     0.094 C 
ATOM     21  O4A NTO d 869      60.957   1.800   4.465  0.00  0.00    -0.244 OA
ATOM     22  N3G NTO d 869      64.493  -0.528   9.275  0.00  0.00    -0.210 NA
ATOM     23  O36 NTO d 869      69.624   5.484  10.136  0.00  0.00    -0.572 OA
ATOM     24  O57 NTO d 869      57.642  -1.807   5.736  0.00  0.00    -0.572 OA
ATOM     25  C40 NTO d 869      63.023   2.909   7.399  0.00  0.00     0.103 C 
ATOM     26  O5I NTO d 869      56.278   5.822  11.281  0.00  0.00    -0.296 OA
ATOM     27  C20 NTO d 869      68.422   4.274  14.724  0.00  0.00     0.103 C 
ATOM     28  C53 NTO d 869      57.269   0.833   6.053  0.00  0.00     0.067 C 
ATOM     29  O3M NTO d 869      63.535   2.035   8.412  0.00  0.00    -0.348 OA
ATOM     30  C43 NTO d 869      62.135   4.186   9.312  0.00  0.00     0.206 C 
ATOM     31  S17 NTO d 869      68.236   2.250  20.745  0.00  0.00     0.251 S 
ATOM     32  O45 NTO d 869      62.570   3.377  10.163  0.00  0.00    -0.646 OA
ATOM     33  O47 NTO d 869      63.647   2.179   5.185  0.00  0.00    -0.390 OA
ATOM     34  O5K NTO d 869      54.048   6.510  10.527  0.00  0.00    -0.296 OA
ATOM     35  C2C NTO d 869      67.058   3.954  12.196  0.00  0.00     0.160 C 
ATOM     36  O38 NTO d 869      70.058   4.821   7.824  0.00  0.00    -0.572 OA
ATOM     37  O1J NTO d 869      71.697   9.049  14.048  0.00  0.00    -0.296 OA
ATOM     38  C12 NTO d 869      71.696   4.556  18.040  0.00  0.00     0.089 C 
ATOM     39  S4B NTO d 869      61.041   2.633   3.304  0.00  0.00     0.252 S 
ATOM     40  O4D NTO d 869      62.481   2.838   2.935  0.00  0.00    -0.572 OA
ATOM     41  C1E NTO d 869      70.731   6.289  16.513  0.00  0.00     0.081 C 
ATOM     42  C13 NTO d 869      70.321   3.884  18.037  0.00  0.00     0.090 C 
ATOM     43  C29 NTO d 869      66.836   5.206  13.049  0.00  0.00     0.110 C 
ATOM     44  O42 NTO d 869      60.673   2.771   7.998  0.00  0.00    -0.340 OA
ATOM     45  C31 NTO d 869      65.654   3.536   9.118  0.00  0.00     0.091 C 
ATOM     46  C3F NTO d 869      65.326   0.686   9.205  0.00  0.00     0.083 C 
ATOM     47  S5H NTO d 869      55.137   5.490  10.367  0.00  0.00     0.156 S 
ATOM     48  S1G NTO d 869      71.515   8.413  15.394  0.00  0.00     0.156 S 
ATOM     49  O5J NTO d 869      54.591   4.139  10.717  0.00  0.00    -0.296 OA
ATOM     50  C5F NTO d 869      56.211   4.170   8.477  0.00  0.00     0.081 C 
ATOM     51  S3H NTO d 869      64.532  -1.402   7.895  0.00  0.00     0.156 S 
ATOM     52  O25 NTO d 869      70.328   1.838  14.859  0.00  0.00    -0.646 OA
ATOM     53  O1C NTO d 869      73.119   6.119  16.862  0.00  0.00    -0.391 OA
ATOM     54  O3A NTO d 869      65.679   0.714  11.609  0.00  0.00    -0.247 OA
ATOM     55  C5L NTO d 869      55.140   3.352   7.752  0.00  0.00     0.149 C 
ATOM     56  C30 NTO d 869      66.044   2.779  10.382  0.00  0.00     0.096 C 
ATOM     57  C23 NTO d 869      69.112   1.917  14.565  0.00  0.00     0.206 C 
ATOM     58  O3E NTO d 869      63.929   1.599  12.998  0.00  0.00    -0.572 OA
ATOM     59  O14 NTO d 869      69.283   4.847  17.793  0.00  0.00    -0.349 OA
ATOM     60  O2A NTO d 869      66.558   6.321  12.201  0.00  0.00    -0.388 OA
ATOM     61  C3L NTO d 869      64.848   1.578   8.061  0.00  0.00     0.150 C 
ATOM     62  C4F NTO d 869      60.206   2.383   6.697  0.00  0.00     0.161 C 
ATOM     63  C15 NTO d 869      70.072   3.272  19.418  0.00  0.00     0.067 C 
ATOM     64  S55 NTO d 869      57.919  -1.315   7.125  0.00  0.00     0.251 S 
ATOM     65  O58 NTO d 869      57.126  -2.118   8.111  0.00  0.00    -0.572 OA
ATOM     66  C51 NTO d 869      56.807   2.241   6.435  0.00  0.00     0.091 C 
ATOM     67  O56 NTO d 869      59.382  -1.460   7.419  0.00  0.00    -0.572 OA
ATOM     68  O3J NTO d 869      64.756  -2.849   8.223  0.00  0.00    -0.296 OA
ATOM     69  O44 NTO d 869      61.962   5.412   9.536  0.00  0.00    -0.646 OA
ATOM     70  O10 NTO d 869      72.702   3.545  18.131  0.00  0.00    -0.390 OA
ATOM     71  C59 NTO d 869      57.454   4.330   7.601  0.00  0.00     0.083 C 
ATOM     72  O52 NTO d 869      55.661   2.095   7.290  0.00  0.00    -0.349 OA
ATOM     73  O27 NTO d 869      67.796   6.615  14.758  0.00  0.00    -0.390 OA
ATOM     74  O1A NTO d 869      67.214   1.184  20.493  0.00  0.00    -0.572 OA
ATOM     75  O5A NTO d 869      58.496   4.956   8.356  0.00  0.00    -0.391 OA
ATOM     76  O37 NTO d 869      68.451   6.611   8.310  0.00  0.00    -0.572 OA
ATOM     77  O24 NTO d 869      68.249   1.074  14.909  0.00  0.00    -0.646 OA
ATOM     78  O1H NTO d 869      72.839   8.295  16.089  0.00  0.00    -0.296 OA
ATOM     79  O22 NTO d 869      67.461   2.839  13.007  0.00  0.00    -0.340 OA
ATOM     80  O3D NTO d 869      65.113  -0.453  13.619  0.00  0.00    -0.572 OA
ATOM     81  C33 NTO d 869      66.588   4.738   8.952  0.00  0.00     0.067 C 
ATOM     82  S35 NTO d 869      69.009   5.301   8.781  0.00  0.00     0.251 S 
ATOM     83  S3B NTO d 869      64.592   0.361  12.472  0.00  0.00     0.252 S 
ATOM     84  O4C NTO d 869      60.398   3.958   3.588  0.00  0.00    -0.572 OA
ATOM     85  C39 NTO d 869      65.218   1.494  10.500  0.00  0.00     0.108 C 
ATOM     86  O16 NTO d 869      68.768   2.693  19.491  0.00  0.00    -0.254 OA
ATOM     87  O5M NTO d 869      54.525   4.110   6.703  0.00  0.00    -0.364 OA
ATOM     88  O3C NTO d 869      63.586  -0.453  11.714  0.00  0.00    -0.572 OA
ATOM     89  C1K NTO d 869      69.444   5.464  16.506  0.00  0.00     0.150 C 
ATOM     90  O32 NTO d 869      65.737   2.701   7.952  0.00  0.00    -0.349 OA
ATOM     91  O34 NTO d 869      67.956   4.330   8.851  0.00  0.00    -0.254 OA
ATOM     92  H   NTO d 869      63.079  -0.315   6.961  0.00  0.00     0.231 HD
ATOM     93  H   NTO d 869      69.728   9.324  15.768  0.00  0.00     0.231 HD
ATOM     94  H   NTO d 869      61.560   4.462   7.267  0.00  0.00     0.104 H 
ATOM     95  H   NTO d 869      72.001   4.676  15.927  0.00  0.00     0.089 H 
ATOM     96  H   NTO d 869      54.898   5.718   8.200  0.00  0.00     0.140 HD
ATOM     97  H   NTO d 869      69.957   7.008  14.757  0.00  0.00     0.140 HD
ATOM     98  H   NTO d 869      65.518   0.004   6.795  0.00  0.00     0.231 HD
ATOM     99  H   NTO d 869      52.715   4.207   5.741  0.00  0.00     0.066 H 
ATOM    100  H   NTO d 869      52.635   3.777   7.432  0.00  0.00     0.066 H 
ATOM    101  H   NTO d 869      53.196   2.609   6.259  0.00  0.00     0.066 H 
ATOM    102  H   NTO d 869      69.411   3.382  13.046  0.00  0.00     0.104 H 
ATOM    103  H   NTO d 869      68.902   5.756  13.262  0.00  0.00     0.091 H 
ATOM    104  H   NTO d 869      58.243   2.356   7.993  0.00  0.00     0.091 H 
ATOM    105  H   NTO d 869      61.390   3.575   5.381  0.00  0.00     0.097 H 
ATOM    106  H   NTO d 869      62.558   1.029   6.491  0.00  0.00     0.091 H 
ATOM    107  H   NTO d 869      63.528  -0.251   9.458  0.00  0.00     0.140 HD
ATOM    108  H   NTO d 869      63.760   3.633   7.120  0.00  0.00     0.092 H 
ATOM    109  H   NTO d 869      56.631   6.696  11.054  0.00  0.00     0.231 HD
ATOM    110  H   NTO d 869      67.619   4.080  15.404  0.00  0.00     0.092 H 
ATOM    111  H   NTO d 869      56.504   0.354   5.480  0.00  0.00     0.080 H 
ATOM    112  H   NTO d 869      58.168   0.908   5.477  0.00  0.00     0.080 H 
ATOM    113  H   NTO d 869      63.721   3.109   4.917  0.00  0.00     0.210 HD
ATOM    114  H   NTO d 869      54.392   7.389  10.302  0.00  0.00     0.231 HD
ATOM    115  H   NTO d 869      67.839   4.148  11.491  0.00  0.00     0.133 H 
ATOM    116  H   NTO d 869      70.837   9.122  13.606  0.00  0.00     0.231 HD
ATOM    117  H   NTO d 869      71.750   5.225  18.873  0.00  0.00     0.091 H 
ATOM    118  H   NTO d 869      70.700   7.032  17.283  0.00  0.00     0.076 H 
ATOM    119  H   NTO d 869      70.308   3.142  17.266  0.00  0.00     0.090 H 
ATOM    120  H   NTO d 869      66.007   5.031  13.703  0.00  0.00     0.094 H 
ATOM    121  H   NTO d 869      64.639   3.858   9.218  0.00  0.00     0.090 H 
ATOM    122  H   NTO d 869      66.340   0.378   9.051  0.00  0.00     0.076 H 
ATOM    123  H   NTO d 869      55.288   3.472  10.617  0.00  0.00     0.231 HD
ATOM    124  H   NTO d 869      56.490   3.653   9.371  0.00  0.00     0.076 H 
ATOM    125  H   NTO d 869      73.043   6.733  17.609  0.00  0.00     0.210 HD
ATOM    126  H   NTO d 869      54.371   3.121   8.459  0.00  0.00     0.131 H 
ATOM    127  H   NTO d 869      67.075   2.499  10.343  0.00  0.00     0.091 H 
ATOM    128  H   NTO d 869      67.312   6.475  11.611  0.00  0.00     0.210 HD
ATOM    129  H   NTO d 869      64.832   1.054   7.128  0.00  0.00     0.131 H 
ATOM    130  H   NTO d 869      59.929   1.353   6.785  0.00  0.00     0.133 H 
ATOM    131  H   NTO d 869      70.158   4.036  20.161  0.00  0.00     0.080 H 
ATOM    132  H   NTO d 869      70.798   2.504  19.587  0.00  0.00     0.080 H 
ATOM    133  H   NTO d 869      56.544   2.823   5.577  0.00  0.00     0.090 H 
ATOM    134  H   NTO d 869      64.779  -3.367   7.404  0.00  0.00     0.231 HD
ATOM    135  H   NTO d 869      72.635   2.952  17.367  0.00  0.00     0.210 HD
ATOM    136  H   NTO d 869      57.207   4.927   6.748  0.00  0.00     0.089 H 
ATOM    137  H   NTO d 869      67.046   6.395  15.334  0.00  0.00     0.210 HD
ATOM    138  H   NTO d 869      58.712   4.407   9.125  0.00  0.00     0.210 HD
ATOM    139  H   NTO d 869      72.713   7.883  16.958  0.00  0.00     0.231 HD
ATOM    140  H   NTO d 869      66.479   5.383   9.798  0.00  0.00     0.080 H 
ATOM    141  H   NTO d 869      66.322   5.247   8.048  0.00  0.00     0.080 H 
ATOM    142  H   NTO d 869      64.192   1.752  10.664  0.00  0.00     0.092 H 
ATOM    143  H   NTO d 869      68.579   6.062  16.309  0.00  0.00     0.131 H 
ENDROOT
TORSDOF 46
ENDMDL
MODEL 51
REMARK VINA RESULT:      -6.1      4.954      9.176
REMARK  0 active torsions:
REMARK  status: ('A' for Active; 'I' for Inactive)
REMARK       I    between atoms: O3I_1  and  S3H_51 
REMARK       I    between atoms: O1I_2  and  S1G_48 
REMARK       I    between atoms: O54_3  and  C53_28 
REMARK       I    between atoms: O54_3  and  S55_64 
REMARK       I    between atoms: C41_5  and  C43_30 
REMARK       I    between atoms: C1B_6  and  O1C_53 
REMARK       I    between atoms: O4G_7  and  C4F_62 
REMARK       I    between atoms: O4G_7  and  C50_15 
REMARK       I    between atoms: N5G_8  and  C5F_50 
REMARK       I    between atoms: N5G_8  and  S5H_47 
REMARK       I    between atoms: N1F_9  and  C1E_41 
REMARK       I    between atoms: N1F_9  and  S1G_48 
REMARK       I    between atoms: O3K_10  and  S3H_51 
REMARK       I    between atoms: C5N_11  and  O5M_87 
REMARK       I    between atoms: C21_12  and  C23_57 
REMARK       I    between atoms: C26_13  and  O27_73 
REMARK       I    between atoms: C49_16  and  O4A_21 
REMARK       I    between atoms: O2D_17  and  C2C_35 
REMARK       I    between atoms: O2D_17  and  C30_56 
REMARK       I    between atoms: O1L_18  and  C1K_89 
REMARK       I    between atoms: O1L_18  and  C20_27 
REMARK       I    between atoms: C46_20  and  O47_33 
REMARK       I    between atoms: O4A_21  and  S4B_39 
REMARK       I    between atoms: N3G_22  and  C3F_46 
REMARK       I    between atoms: N3G_22  and  S3H_51 
REMARK       I    between atoms: C40_25  and  O3M_29 
REMARK       I    between atoms: O5I_26  and  S5H_47 
REMARK       I    between atoms: C53_28  and  C51_66 
REMARK       I    between atoms: O3M_29  and  C3L_61 
REMARK       I    between atoms: S17_31  and  O16_86 
REMARK       I    between atoms: O5K_34  and  S5H_47 
REMARK       I    between atoms: O1J_37  and  S1G_48 
REMARK       I    between atoms: C12_38  and  O10_70 
REMARK       I    between atoms: C13_42  and  C15_63 
REMARK       I    between atoms: C29_43  and  O2A_60 
REMARK       I    between atoms: C31_45  and  C33_81 
REMARK       I    between atoms: S5H_47  and  O5J_49 
REMARK       I    between atoms: S1G_48  and  O1H_78 
REMARK       I    between atoms: S3H_51  and  O3J_68 
REMARK       I    between atoms: O3A_54  and  C39_85 
REMARK       I    between atoms: O3A_54  and  S3B_83 
REMARK       I    between atoms: C5L_55  and  O5M_87 
REMARK       I    between atoms: C15_63  and  O16_86 
REMARK       I    between atoms: C59_71  and  O5A_75 
REMARK       I    between atoms: C33_81  and  O34_91 
REMARK       I    between atoms: S35_82  and  O34_91 
ROOT
ATOM      1  O3I NTO d 869      66.084  -5.946  12.427  0.00  0.00    -0.296 OA
ATOM      2  O1I NTO d 869      61.125   8.335   8.222  0.00  0.00    -0.296 OA
ATOM      3  O54 NTO d 869      70.261  -5.247  16.450  0.00  0.00    -0.254 OA
ATOM      4  O18 NTO d 869      68.042   6.875   3.699  0.00  0.00    -0.572 OA
ATOM      5  C41 NTO d 869      65.972  -1.749  15.430  0.00  0.00     0.152 C 
ATOM      6  C1B NTO d 869      61.602   5.720   5.032  0.00  0.00     0.083 C 
ATOM      7  O4G NTO d 869      67.543  -3.351  17.769  0.00  0.00    -0.348 OA
ATOM      8  N5G NTO d 869      70.746  -0.138  19.482  0.00  0.00    -0.210 NA
ATOM      9  N1F NTO d 869      61.158   5.909   7.429  0.00  0.00    -0.210 NA
ATOM     10  O3K NTO d 869      63.947  -5.647  11.262  0.00  0.00    -0.296 OA
ATOM     11  C5N NTO d 869      72.231  -3.169  21.356  0.00  0.00     0.007 C 
ATOM     12  C21 NTO d 869      63.496   1.911   7.575  0.00  0.00     0.152 C 
ATOM     13  C26 NTO d 869      63.241   3.815   9.110  0.00  0.00     0.092 C 
ATOM     14  O4E NTO d 869      64.909  -6.755  18.884  0.00  0.00    -0.572 OA
ATOM     15  C50 NTO d 869      68.939  -3.017  17.795  0.00  0.00     0.095 C 
ATOM     16  C49 NTO d 869      65.624  -4.079  16.516  0.00  0.00     0.134 C 
ATOM     17  O2D NTO d 869      64.496   0.732  10.874  0.00  0.00    -0.348 OA
ATOM     18  O1L NTO d 869      63.130   4.099   6.673  0.00  0.00    -0.348 OA
ATOM     19  O19 NTO d 869      67.265   5.752   1.662  0.00  0.00    -0.572 OA
ATOM     20  C46 NTO d 869      64.979  -4.027  15.130  0.00  0.00     0.094 C 
ATOM     21  O4A NTO d 869      65.569  -5.410  17.034  0.00  0.00    -0.244 OA
ATOM     22  N3G NTO d 869      65.857  -3.991  10.792  0.00  0.00    -0.210 NA
ATOM     23  O36 NTO d 869      60.155   1.540  10.460  0.00  0.00    -0.572 OA
ATOM     24  O57 NTO d 869      70.060  -7.625  16.290  0.00  0.00    -0.572 OA
ATOM     25  C40 NTO d 869      64.980  -2.583  14.632  0.00  0.00     0.103 C 
ATOM     26  O5I NTO d 869      71.355   1.692  17.812  0.00  0.00    -0.296 OA
ATOM     27  C20 NTO d 869      63.778   3.396   7.742  0.00  0.00     0.103 C 
ATOM     28  C53 NTO d 869      69.641  -5.397  17.729  0.00  0.00     0.067 C 
ATOM     29  O3M NTO d 869      65.355  -2.598  13.249  0.00  0.00    -0.348 OA
ATOM     30  C43 NTO d 869      66.213  -0.449  14.679  0.00  0.00     0.206 C 
ATOM     31  S17 NTO d 869      67.557   5.579   3.123  0.00  0.00     0.251 S 
ATOM     32  O45 NTO d 869      66.548  -0.518  13.474  0.00  0.00    -0.646 OA
ATOM     33  O47 NTO d 869      63.631  -4.498  15.216  0.00  0.00    -0.390 OA
ATOM     34  O5K NTO d 869      72.554   1.617  19.951  0.00  0.00    -0.296 OA
ATOM     35  C2C NTO d 869      63.741   1.481   9.907  0.00  0.00     0.160 C 
ATOM     36  O38 NTO d 869      58.889  -0.395  11.251  0.00  0.00    -0.572 OA
ATOM     37  O1J NTO d 869      59.226   6.889   8.774  0.00  0.00    -0.296 OA
ATOM     38  C12 NTO d 869      62.677   5.894   3.955  0.00  0.00     0.089 C 
ATOM     39  S4B NTO d 869      64.656  -5.484  18.132  0.00  0.00     0.252 S 
ATOM     40  O4D NTO d 869      63.247  -5.467  17.618  0.00  0.00    -0.572 OA
ATOM     41  C1E NTO d 869      62.129   6.225   6.375  0.00  0.00     0.081 C 
ATOM     42  C13 NTO d 869      64.005   5.284   4.408  0.00  0.00     0.090 C 
ATOM     43  C29 NTO d 869      63.924   2.974  10.190  0.00  0.00     0.110 C 
ATOM     44  O42 NTO d 869      67.213  -2.462  15.580  0.00  0.00    -0.340 OA
ATOM     45  C31 NTO d 869      63.498  -0.857  12.375  0.00  0.00     0.091 C 
ATOM     46  C3F NTO d 869      64.748  -3.039  10.992  0.00  0.00     0.083 C 
ATOM     47  S5H NTO d 869      71.935   0.792  18.862  0.00  0.00     0.156 S 
ATOM     48  S1G NTO d 869      60.245   7.225   7.726  0.00  0.00     0.156 S 
ATOM     49  O5J NTO d 869      72.995  -0.074  18.249  0.00  0.00    -0.296 OA
ATOM     50  C5F NTO d 869      70.579  -1.351  18.668  0.00  0.00     0.081 C 
ATOM     51  S3H NTO d 869      65.437  -5.532  11.138  0.00  0.00     0.156 S 
ATOM     52  O25 NTO d 869      63.117   1.704   5.235  0.00  0.00    -0.646 OA
ATOM     53  O1C NTO d 869      60.435   6.459   4.665  0.00  0.00    -0.391 OA
ATOM     54  O3A NTO d 869      65.637  -1.492   9.343  0.00  0.00    -0.247 OA
ATOM     55  C5L NTO d 869      71.357  -2.507  19.300  0.00  0.00     0.149 C 
ATOM     56  C30 NTO d 869      64.055  -0.631  10.976  0.00  0.00     0.096 C 
ATOM     57  C23 NTO d 869      63.925   1.506   6.172  0.00  0.00     0.206 C 
ATOM     58  O3E NTO d 869      67.435  -0.042  10.006  0.00  0.00    -0.572 OA
ATOM     59  O14 NTO d 869      64.403   5.815   5.682  0.00  0.00    -0.349 OA
ATOM     60  O2A NTO d 869      63.362   3.293  11.464  0.00  0.00    -0.388 OA
ATOM     61  C3L NTO d 869      64.276  -3.091  12.444  0.00  0.00     0.150 C 
ATOM     62  C4F NTO d 869      67.078  -3.607  16.436  0.00  0.00     0.161 C 
ATOM     63  C15 NTO d 869      65.087   5.656   3.391  0.00  0.00     0.067 C 
ATOM     64  S55 NTO d 869      70.356  -6.356  15.548  0.00  0.00     0.251 S 
ATOM     65  O58 NTO d 869      71.746  -6.412  14.989  0.00  0.00    -0.572 OA
ATOM     66  C51 NTO d 869      69.735  -4.091  18.522  0.00  0.00     0.091 C 
ATOM     67  O56 NTO d 869      69.370  -6.194  14.430  0.00  0.00    -0.572 OA
ATOM     68  O3J NTO d 869      65.897  -6.437  10.034  0.00  0.00    -0.296 OA
ATOM     69  O44 NTO d 869      66.056   0.634  15.300  0.00  0.00    -0.646 OA
ATOM     70  O10 NTO d 869      62.246   5.227   2.766  0.00  0.00    -0.390 OA
ATOM     71  C59 NTO d 869      69.094  -1.698  18.551  0.00  0.00     0.083 C 
ATOM     72  O52 NTO d 869      71.126  -3.742  18.602  0.00  0.00    -0.349 OA
ATOM     73  O27 NTO d 869      63.524   5.198   9.342  0.00  0.00    -0.390 OA
ATOM     74  O1A NTO d 869      68.609   4.529   3.308  0.00  0.00    -0.572 OA
ATOM     75  O5A NTO d 869      68.419  -0.674  17.814  0.00  0.00    -0.391 OA
ATOM     76  O37 NTO d 869      59.829   1.201  12.860  0.00  0.00    -0.572 OA
ATOM     77  O24 NTO d 869      65.068   1.013   6.022  0.00  0.00    -0.646 OA
ATOM     78  O1H NTO d 869      59.559   7.650   6.462  0.00  0.00    -0.296 OA
ATOM     79  O22 NTO d 869      64.184   1.147   8.581  0.00  0.00    -0.340 OA
ATOM     80  O3D NTO d 869      67.466  -1.176   7.835  0.00  0.00    -0.572 OA
ATOM     81  C33 NTO d 869      62.265   0.031  12.568  0.00  0.00     0.067 C 
ATOM     82  S35 NTO d 869      60.045   0.512  11.546  0.00  0.00     0.251 S 
ATOM     83  S3B NTO d 869      67.053  -1.294   9.272  0.00  0.00     0.252 S 
ATOM     84  O4C NTO d 869      64.875  -4.316  19.048  0.00  0.00    -0.572 OA
ATOM     85  C39 NTO d 869      65.204  -1.608  10.704  0.00  0.00     0.108 C 
ATOM     86  O16 NTO d 869      66.366   5.172   3.806  0.00  0.00    -0.254 OA
ATOM     87  O5M NTO d 869      71.086  -2.612  20.703  0.00  0.00    -0.364 OA
ATOM     88  O3C NTO d 869      67.761  -2.463   9.889  0.00  0.00    -0.572 OA
ATOM     89  C1K NTO d 869      63.437   5.500   6.697  0.00  0.00     0.150 C 
ATOM     90  O32 NTO d 869      63.134  -2.231  12.586  0.00  0.00    -0.349 OA
ATOM     91  O34 NTO d 869      61.249  -0.264  11.605  0.00  0.00    -0.254 OA
ATOM     92  H   NTO d 869      65.787  -5.361  13.141  0.00  0.00     0.231 HD
ATOM     93  H   NTO d 869      61.566   8.056   9.040  0.00  0.00     0.231 HD
ATOM     94  H   NTO d 869      65.579  -1.549  16.404  0.00  0.00     0.104 H 
ATOM     95  H   NTO d 869      61.354   4.683   5.120  0.00  0.00     0.089 H 
ATOM     96  H   NTO d 869      70.988  -0.402  20.437  0.00  0.00     0.140 HD
ATOM     97  H   NTO d 869      61.652   5.638   8.279  0.00  0.00     0.140 HD
ATOM     98  H   NTO d 869      63.636  -5.065  11.974  0.00  0.00     0.231 HD
ATOM     99  H   NTO d 869      72.039  -3.251  22.406  0.00  0.00     0.066 H 
ATOM    100  H   NTO d 869      73.076  -2.533  21.198  0.00  0.00     0.066 H 
ATOM    101  H   NTO d 869      72.435  -4.139  20.954  0.00  0.00     0.066 H 
ATOM    102  H   NTO d 869      62.452   1.713   7.699  0.00  0.00     0.104 H 
ATOM    103  H   NTO d 869      62.182   3.663   9.138  0.00  0.00     0.091 H 
ATOM    104  H   NTO d 869      69.305  -2.938  16.793  0.00  0.00     0.091 H 
ATOM    105  H   NTO d 869      65.083  -3.431  17.173  0.00  0.00     0.097 H 
ATOM    106  H   NTO d 869      65.531  -4.643  14.452  0.00  0.00     0.091 H 
ATOM    107  H   NTO d 869      66.632  -3.721  11.398  0.00  0.00     0.140 HD
ATOM    108  H   NTO d 869      64.009  -2.150  14.753  0.00  0.00     0.092 H 
ATOM    109  H   NTO d 869      70.670   2.252  18.209  0.00  0.00     0.231 HD
ATOM    110  H   NTO d 869      64.824   3.621   7.701  0.00  0.00     0.092 H 
ATOM    111  H   NTO d 869      70.134  -6.175  18.271  0.00  0.00     0.080 H 
ATOM    112  H   NTO d 869      68.609  -5.644  17.588  0.00  0.00     0.080 H 
ATOM    113  H   NTO d 869      63.132  -3.939  15.831  0.00  0.00     0.210 HD
ATOM    114  H   NTO d 869      71.875   2.181  20.354  0.00  0.00     0.231 HD
ATOM    115  H   NTO d 869      62.701   1.238   9.977  0.00  0.00     0.133 H 
ATOM    116  H   NTO d 869      59.677   6.616   9.588  0.00  0.00     0.231 HD
ATOM    117  H   NTO d 869      62.821   6.938   3.776  0.00  0.00     0.091 H 
ATOM    118  H   NTO d 869      62.287   7.283   6.324  0.00  0.00     0.076 H 
ATOM    119  H   NTO d 869      63.884   4.223   4.486  0.00  0.00     0.090 H 
ATOM    120  H   NTO d 869      64.971   3.196  10.189  0.00  0.00     0.094 H 
ATOM    121  H   NTO d 869      64.258  -0.607  13.085  0.00  0.00     0.090 H 
ATOM    122  H   NTO d 869      63.958  -3.312  10.324  0.00  0.00     0.076 H 
ATOM    123  H   NTO d 869      72.605  -0.612  17.543  0.00  0.00     0.231 HD
ATOM    124  H   NTO d 869      70.964  -1.176  17.685  0.00  0.00     0.076 H 
ATOM    125  H   NTO d 869      60.659   7.400   4.586  0.00  0.00     0.210 HD
ATOM    126  H   NTO d 869      72.400  -2.292  19.202  0.00  0.00     0.131 H 
ATOM    127  H   NTO d 869      63.299  -0.809  10.241  0.00  0.00     0.091 H 
ATOM    128  H   NTO d 869      62.413   3.091  11.459  0.00  0.00     0.210 HD
ATOM    129  H   NTO d 869      64.004  -4.084  12.739  0.00  0.00     0.131 H 
ATOM    130  H   NTO d 869      67.686  -4.369  15.996  0.00  0.00     0.133 H 
ATOM    131  H   NTO d 869      65.130   6.721   3.298  0.00  0.00     0.080 H 
ATOM    132  H   NTO d 869      64.841   5.210   2.450  0.00  0.00     0.080 H 
ATOM    133  H   NTO d 869      69.332  -4.193  19.508  0.00  0.00     0.090 H 
ATOM    134  H   NTO d 869      65.647  -7.351  10.240  0.00  0.00     0.231 HD
ATOM    135  H   NTO d 869      62.121   4.284   2.952  0.00  0.00     0.210 HD
ATOM    136  H   NTO d 869      68.676  -1.782  19.532  0.00  0.00     0.089 H 
ATOM    137  H   NTO d 869      64.483   5.341   9.318  0.00  0.00     0.210 HD
ATOM    138  H   NTO d 869      68.804  -0.606  16.927  0.00  0.00     0.210 HD
ATOM    139  H   NTO d 869      60.224   7.866   5.790  0.00  0.00     0.231 HD
ATOM    140  H   NTO d 869      62.555   1.055  12.464  0.00  0.00     0.080 H 
ATOM    141  H   NTO d 869      61.867  -0.156  13.544  0.00  0.00     0.080 H 
ATOM    142  H   NTO d 869      66.026  -1.368  11.346  0.00  0.00     0.092 H 
ATOM    143  H   NTO d 869      63.839   5.788   7.646  0.00  0.00     0.131 H 
ENDROOT
TORSDOF 46
ENDMDL
MODEL 52
REMARK VINA RESULT:      -6.0      3.345      6.310
REMARK  0 active torsions:
REMARK  status: ('A' for Active; 'I' for Inactive)
REMARK       I    between atoms: O3I_1  and  S3H_51 
REMARK       I    between atoms: O1I_2  and  S1G_48 
REMARK       I    between atoms: O54_3  and  C53_28 
REMARK       I    between atoms: O54_3  and  S55_64 
REMARK       I    between atoms: C41_5  and  C43_30 
REMARK       I    between atoms: C1B_6  and  O1C_53 
REMARK       I    between atoms: O4G_7  and  C4F_62 
REMARK       I    between atoms: O4G_7  and  C50_15 
REMARK       I    between atoms: N5G_8  and  C5F_50 
REMARK       I    between atoms: N5G_8  and  S5H_47 
REMARK       I    between atoms: N1F_9  and  C1E_41 
REMARK       I    between atoms: N1F_9  and  S1G_48 
REMARK       I    between atoms: O3K_10  and  S3H_51 
REMARK       I    between atoms: C5N_11  and  O5M_87 
REMARK       I    between atoms: C21_12  and  C23_57 
REMARK       I    between atoms: C26_13  and  O27_73 
REMARK       I    between atoms: C49_16  and  O4A_21 
REMARK       I    between atoms: O2D_17  and  C2C_35 
REMARK       I    between atoms: O2D_17  and  C30_56 
REMARK       I    between atoms: O1L_18  and  C1K_89 
REMARK       I    between atoms: O1L_18  and  C20_27 
REMARK       I    between atoms: C46_20  and  O47_33 
REMARK       I    between atoms: O4A_21  and  S4B_39 
REMARK       I    between atoms: N3G_22  and  C3F_46 
REMARK       I    between atoms: N3G_22  and  S3H_51 
REMARK       I    between atoms: C40_25  and  O3M_29 
REMARK       I    between atoms: O5I_26  and  S5H_47 
REMARK       I    between atoms: C53_28  and  C51_66 
REMARK       I    between atoms: O3M_29  and  C3L_61 
REMARK       I    between atoms: S17_31  and  O16_86 
REMARK       I    between atoms: O5K_34  and  S5H_47 
REMARK       I    between atoms: O1J_37  and  S1G_48 
REMARK       I    between atoms: C12_38  and  O10_70 
REMARK       I    between atoms: C13_42  and  C15_63 
REMARK       I    between atoms: C29_43  and  O2A_60 
REMARK       I    between atoms: C31_45  and  C33_81 
REMARK       I    between atoms: S5H_47  and  O5J_49 
REMARK       I    between atoms: S1G_48  and  O1H_78 
REMARK       I    between atoms: S3H_51  and  O3J_68 
REMARK       I    between atoms: O3A_54  and  C39_85 
REMARK       I    between atoms: O3A_54  and  S3B_83 
REMARK       I    between atoms: C5L_55  and  O5M_87 
REMARK       I    between atoms: C15_63  and  O16_86 
REMARK       I    between atoms: C59_71  and  O5A_75 
REMARK       I    between atoms: C33_81  and  O34_91 
REMARK       I    between atoms: S35_82  and  O34_91 
ROOT
ATOM      1  O3I NTO d 869      67.978  -1.484   8.575  0.00  0.00    -0.296 OA
ATOM      2  O1I NTO d 869      53.009   3.219   8.728  0.00  0.00    -0.296 OA
ATOM      3  O54 NTO d 869      70.543   0.645  13.372  0.00  0.00    -0.254 OA
ATOM      4  O18 NTO d 869      57.403   9.625   5.551  0.00  0.00    -0.572 OA
ATOM      5  C41 NTO d 869      65.094  -0.624  12.768  0.00  0.00     0.152 C 
ATOM      6  C1B NTO d 869      54.814   3.495   4.998  0.00  0.00     0.083 C 
ATOM      7  O4G NTO d 869      67.685  -1.049  14.669  0.00  0.00    -0.348 OA
ATOM      8  N5G NTO d 869      67.284   2.414  18.039  0.00  0.00    -0.210 NA
ATOM      9  N1F NTO d 869      54.821   2.345   7.157  0.00  0.00    -0.210 NA
ATOM     10  O3K NTO d 869      66.298  -2.583   7.167  0.00  0.00    -0.296 OA
ATOM     11  C5N NTO d 869      70.882   1.390  18.994  0.00  0.00     0.007 C 
ATOM     12  C21 NTO d 869      59.385   2.160   6.375  0.00  0.00     0.152 C 
ATOM     13  C26 NTO d 869      57.987   2.325   8.391  0.00  0.00     0.092 C 
ATOM     14  O4E NTO d 869      69.057  -5.214  13.929  0.00  0.00    -0.572 OA
ATOM     15  C50 NTO d 869      68.234   0.203  15.105  0.00  0.00     0.095 C 
ATOM     16  C49 NTO d 869      66.933  -2.450  12.863  0.00  0.00     0.134 C 
ATOM     17  O2D NTO d 869      61.474   1.136   9.178  0.00  0.00    -0.348 OA
ATOM     18  O1L NTO d 869      57.275   3.286   6.246  0.00  0.00    -0.348 OA
ATOM     19  O19 NTO d 869      57.493   9.219   3.134  0.00  0.00    -0.572 OA
ATOM     20  C46 NTO d 869      66.278  -2.415  11.482  0.00  0.00     0.094 C 
ATOM     21  O4A NTO d 869      68.051  -3.342  12.855  0.00  0.00    -0.244 OA
ATOM     22  N3G NTO d 869      66.008  -0.091   7.726  0.00  0.00    -0.210 NA
ATOM     23  O36 NTO d 869      58.239  -1.726   8.168  0.00  0.00    -0.572 OA
ATOM     24  O57 NTO d 869      72.291  -0.624  12.345  0.00  0.00    -0.572 OA
ATOM     25  C40 NTO d 869      65.043  -1.518  11.537  0.00  0.00     0.103 C 
ATOM     26  O5I NTO d 869      65.893   4.417  17.291  0.00  0.00    -0.296 OA
ATOM     27  C20 NTO d 869      58.395   3.051   7.110  0.00  0.00     0.103 C 
ATOM     28  C53 NTO d 869      70.523  -0.393  14.354  0.00  0.00     0.067 C 
ATOM     29  O3M NTO d 869      65.033  -0.714  10.351  0.00  0.00    -0.348 OA
ATOM     30  C43 NTO d 869      64.069   0.486  12.593  0.00  0.00     0.206 C 
ATOM     31  S17 NTO d 869      58.053   8.819   4.466  0.00  0.00     0.251 S 
ATOM     32  O45 NTO d 869      64.110   1.164  11.541  0.00  0.00    -0.646 OA
ATOM     33  O47 NTO d 869      65.885  -3.739  11.110  0.00  0.00    -0.390 OA
ATOM     34  O5K NTO d 869      67.018   4.525  19.467  0.00  0.00    -0.296 OA
ATOM     35  C2C NTO d 869      60.272   1.271   8.400  0.00  0.00     0.160 C 
ATOM     36  O38 NTO d 869      59.182  -3.969   7.939  0.00  0.00    -0.572 OA
ATOM     37  O1J NTO d 869      53.153   0.807   8.320  0.00  0.00    -0.296 OA
ATOM     38  C12 NTO d 869      55.114   4.827   4.305  0.00  0.00     0.089 C 
ATOM     39  S4B NTO d 869      67.769  -4.506  13.638  0.00  0.00     0.252 S 
ATOM     40  O4D NTO d 869      66.848  -5.413  12.877  0.00  0.00    -0.572 OA
ATOM     41  C1E NTO d 869      54.951   3.657   6.512  0.00  0.00     0.081 C 
ATOM     42  C13 NTO d 869      56.448   5.402   4.784  0.00  0.00     0.090 C 
ATOM     43  C29 NTO d 869      59.240   2.046   9.224  0.00  0.00     0.110 C 
ATOM     44  O42 NTO d 869      66.407  -0.055  12.917  0.00  0.00    -0.340 OA
ATOM     45  C31 NTO d 869      62.419  -0.991   9.775  0.00  0.00     0.091 C 
ATOM     46  C3F NTO d 869      64.642  -0.568   8.010  0.00  0.00     0.083 C 
ATOM     47  S5H NTO d 869      67.127   4.038  18.052  0.00  0.00     0.156 S 
ATOM     48  S1G NTO d 869      53.295   2.165   7.698  0.00  0.00     0.156 S 
ATOM     49  O5J NTO d 869      68.325   4.674  17.413  0.00  0.00    -0.296 OA
ATOM     50  C5F NTO d 869      68.011   1.988  16.834  0.00  0.00     0.081 C 
ATOM     51  S3H NTO d 869      67.050  -1.308   7.409  0.00  0.00     0.156 S 
ATOM     52  O25 NTO d 869      58.924   2.632   4.088  0.00  0.00    -0.646 OA
ATOM     53  O1C NTO d 869      53.485   3.077   4.678  0.00  0.00    -0.391 OA
ATOM     54  O3A NTO d 869      63.641   1.508   7.239  0.00  0.00    -0.247 OA
ATOM     55  C5L NTO d 869      69.492   1.795  17.167  0.00  0.00     0.149 C 
ATOM     56  C30 NTO d 869      62.320   0.080   8.697  0.00  0.00     0.096 C 
ATOM     57  C23 NTO d 869      59.713   2.820   5.044  0.00  0.00     0.206 C 
ATOM     58  O3E NTO d 869      63.646   3.389   8.735  0.00  0.00    -0.572 OA
ATOM     59  O14 NTO d 869      56.477   5.502   6.217  0.00  0.00    -0.349 OA
ATOM     60  O2A NTO d 869      58.880   1.286  10.378  0.00  0.00    -0.388 OA
ATOM     61  C3L NTO d 869      64.660  -1.506   9.215  0.00  0.00     0.150 C 
ATOM     62  C4F NTO d 869      67.388  -1.044  13.265  0.00  0.00     0.161 C 
ATOM     63  C15 NTO d 869      56.604   6.816   4.216  0.00  0.00     0.067 C 
ATOM     64  S55 NTO d 869      71.324   0.511  12.179  0.00  0.00     0.251 S 
ATOM     65  O58 NTO d 869      72.079   1.784  11.943  0.00  0.00    -0.572 OA
ATOM     66  C51 NTO d 869      69.676   0.029  15.557  0.00  0.00     0.091 C 
ATOM     67  O56 NTO d 869      70.430   0.231  11.008  0.00  0.00    -0.572 OA
ATOM     68  O3J NTO d 869      67.846  -0.982   6.180  0.00  0.00    -0.296 OA
ATOM     69  O44 NTO d 869      63.223   0.664  13.508  0.00  0.00    -0.646 OA
ATOM     70  O10 NTO d 869      55.188   4.603   2.895  0.00  0.00    -0.390 OA
ATOM     71  C59 NTO d 869      67.406   0.693  16.291  0.00  0.00     0.083 C 
ATOM     72  O52 NTO d 869      70.220   1.265  16.047  0.00  0.00    -0.349 OA
ATOM     73  O27 NTO d 869      57.091   3.142   9.150  0.00  0.00    -0.390 OA
ATOM     74  O1A NTO d 869      59.531   9.061   4.488  0.00  0.00    -0.572 OA
ATOM     75  O5A NTO d 869      66.071   0.941  15.838  0.00  0.00    -0.391 OA
ATOM     76  O37 NTO d 869      58.735  -3.044  10.168  0.00  0.00    -0.572 OA
ATOM     77  O24 NTO d 869      60.743   3.532   4.975  0.00  0.00    -0.646 OA
ATOM     78  O1H NTO d 869      52.340   2.306   6.551  0.00  0.00    -0.296 OA
ATOM     79  O22 NTO d 869      60.566   1.949   7.168  0.00  0.00    -0.340 OA
ATOM     80  O3D NTO d 869      64.191   3.664   6.362  0.00  0.00    -0.572 OA
ATOM     81  C33 NTO d 869      61.030  -1.595  10.004  0.00  0.00     0.067 C 
ATOM     82  S35 NTO d 869      59.182  -2.723   8.772  0.00  0.00     0.251 S 
ATOM     83  S3B NTO d 869      64.292   2.745   7.543  0.00  0.00     0.252 S 
ATOM     84  O4C NTO d 869      67.125  -4.100  14.931  0.00  0.00    -0.572 OA
ATOM     85  C39 NTO d 869      63.717   0.603   8.347  0.00  0.00     0.108 C 
ATOM     86  O16 NTO d 869      57.804   7.427   4.694  0.00  0.00    -0.254 OA
ATOM     87  O5M NTO d 869      69.661   1.007  18.352  0.00  0.00    -0.364 OA
ATOM     88  O3C NTO d 869      65.741   2.496   7.844  0.00  0.00    -0.572 OA
ATOM     89  C1K NTO d 869      56.342   4.208   6.826  0.00  0.00     0.150 C 
ATOM     90  O32 NTO d 869      63.337  -2.033   9.406  0.00  0.00    -0.349 OA
ATOM     91  O34 NTO d 869      60.509  -2.181   8.807  0.00  0.00    -0.254 OA
ATOM     92  H   NTO d 869      67.464  -1.695   9.369  0.00  0.00     0.231 HD
ATOM     93  H   NTO d 869      53.628   3.124   9.468  0.00  0.00     0.231 HD
ATOM     94  H   NTO d 869      64.875  -1.198  13.644  0.00  0.00     0.104 H 
ATOM     95  H   NTO d 869      55.510   2.756   4.660  0.00  0.00     0.089 H 
ATOM     96  H   NTO d 869      67.800   2.118  18.867  0.00  0.00     0.140 HD
ATOM     97  H   NTO d 869      55.471   2.283   7.940  0.00  0.00     0.140 HD
ATOM     98  H   NTO d 869      65.778  -2.807   7.956  0.00  0.00     0.231 HD
ATOM     99  H   NTO d 869      71.018   0.807  19.880  0.00  0.00     0.066 H 
ATOM    100  H   NTO d 869      70.839   2.427  19.252  0.00  0.00     0.066 H 
ATOM    101  H   NTO d 869      71.703   1.222  18.327  0.00  0.00     0.066 H 
ATOM    102  H   NTO d 869      58.957   1.195   6.197  0.00  0.00     0.104 H 
ATOM    103  H   NTO d 869      57.498   1.407   8.139  0.00  0.00     0.091 H 
ATOM    104  H   NTO d 869      68.211   0.903  14.296  0.00  0.00     0.091 H 
ATOM    105  H   NTO d 869      66.217  -2.801  13.577  0.00  0.00     0.097 H 
ATOM    106  H   NTO d 869      66.971  -2.031  10.763  0.00  0.00     0.091 H 
ATOM    107  H   NTO d 869      66.348   0.427   8.537  0.00  0.00     0.140 HD
ATOM    108  H   NTO d 869      64.157  -2.113  11.596  0.00  0.00     0.092 H 
ATOM    109  H   NTO d 869      65.119   4.006  17.705  0.00  0.00     0.231 HD
ATOM    110  H   NTO d 869      58.816   3.999   7.372  0.00  0.00     0.092 H 
ATOM    111  H   NTO d 869      71.523  -0.590  14.678  0.00  0.00     0.080 H 
ATOM    112  H   NTO d 869      70.097  -1.273  13.920  0.00  0.00     0.080 H 
ATOM    113  H   NTO d 869      65.257  -4.086  11.762  0.00  0.00     0.210 HD
ATOM    114  H   NTO d 869      66.245   4.119  19.890  0.00  0.00     0.231 HD
ATOM    115  H   NTO d 869      59.874   0.308   8.159  0.00  0.00     0.133 H 
ATOM    116  H   NTO d 869      53.773   0.724   9.061  0.00  0.00     0.231 HD
ATOM    117  H   NTO d 869      54.335   5.522   4.541  0.00  0.00     0.091 H 
ATOM    118  H   NTO d 869      54.192   4.321   6.872  0.00  0.00     0.076 H 
ATOM    119  H   NTO d 869      57.235   4.755   4.455  0.00  0.00     0.090 H 
ATOM    120  H   NTO d 869      59.671   2.978   9.522  0.00  0.00     0.094 H 
ATOM    121  H   NTO d 869      62.784  -0.535  10.671  0.00  0.00     0.090 H 
ATOM    122  H   NTO d 869      64.285  -1.074   7.137  0.00  0.00     0.076 H 
ATOM    123  H   NTO d 869      68.405   4.365  16.497  0.00  0.00     0.231 HD
ATOM    124  H   NTO d 869      67.926   2.744  16.081  0.00  0.00     0.076 H 
ATOM    125  H   NTO d 869      52.853   3.747   4.985  0.00  0.00     0.210 HD
ATOM    126  H   NTO d 869      69.909   2.757  17.375  0.00  0.00     0.131 H 
ATOM    127  H   NTO d 869      61.896  -0.329   7.804  0.00  0.00     0.091 H 
ATOM    128  H   NTO d 869      58.489   0.442  10.102  0.00  0.00     0.210 HD
ATOM    129  H   NTO d 869      65.343  -2.318   9.076  0.00  0.00     0.131 H 
ATOM    130  H   NTO d 869      68.271  -0.778  12.723  0.00  0.00     0.133 H 
ATOM    131  H   NTO d 869      55.765   7.408   4.516  0.00  0.00     0.080 H 
ATOM    132  H   NTO d 869      56.653   6.753   3.149  0.00  0.00     0.080 H 
ATOM    133  H   NTO d 869      69.694  -0.705  16.335  0.00  0.00     0.090 H 
ATOM    134  H   NTO d 869      68.464  -1.705   5.993  0.00  0.00     0.231 HD
ATOM    135  H   NTO d 869      55.899   3.971   2.706  0.00  0.00     0.210 HD
ATOM    136  H   NTO d 869      67.400  -0.043  17.068  0.00  0.00     0.089 H 
ATOM    137  H   NTO d 869      57.530   3.976   9.381  0.00  0.00     0.210 HD
ATOM    138  H   NTO d 869      66.087   1.608  15.135  0.00  0.00     0.210 HD
ATOM    139  H   NTO d 869      52.438   3.186   6.154  0.00  0.00     0.231 HD
ATOM    140  H   NTO d 869      60.365  -0.824  10.331  0.00  0.00     0.080 H 
ATOM    141  H   NTO d 869      61.116  -2.364  10.743  0.00  0.00     0.080 H 
ATOM    142  H   NTO d 869      64.115   1.128   9.191  0.00  0.00     0.092 H 
ATOM    143  H   NTO d 869      56.511   4.313   7.878  0.00  0.00     0.131 H 
ENDROOT
TORSDOF 46
ENDMDL
MODEL 53
REMARK VINA RESULT:      -6.0      4.193     14.304
REMARK  0 active torsions:
REMARK  status: ('A' for Active; 'I' for Inactive)
REMARK       I    between atoms: O3I_1  and  S3H_51 
REMARK       I    between atoms: O1I_2  and  S1G_48 
REMARK       I    between atoms: O54_3  and  C53_28 
REMARK       I    between atoms: O54_3  and  S55_64 
REMARK       I    between atoms: C41_5  and  C43_30 
REMARK       I    between atoms: C1B_6  and  O1C_53 
REMARK       I    between atoms: O4G_7  and  C4F_62 
REMARK       I    between atoms: O4G_7  and  C50_15 
REMARK       I    between atoms: N5G_8  and  C5F_50 
REMARK       I    between atoms: N5G_8  and  S5H_47 
REMARK       I    between atoms: N1F_9  and  C1E_41 
REMARK       I    between atoms: N1F_9  and  S1G_48 
REMARK       I    between atoms: O3K_10  and  S3H_51 
REMARK       I    between atoms: C5N_11  and  O5M_87 
REMARK       I    between atoms: C21_12  and  C23_57 
REMARK       I    between atoms: C26_13  and  O27_73 
REMARK       I    between atoms: C49_16  and  O4A_21 
REMARK       I    between atoms: O2D_17  and  C2C_35 
REMARK       I    between atoms: O2D_17  and  C30_56 
REMARK       I    between atoms: O1L_18  and  C1K_89 
REMARK       I    between atoms: O1L_18  and  C20_27 
REMARK       I    between atoms: C46_20  and  O47_33 
REMARK       I    between atoms: O4A_21  and  S4B_39 
REMARK       I    between atoms: N3G_22  and  C3F_46 
REMARK       I    between atoms: N3G_22  and  S3H_51 
REMARK       I    between atoms: C40_25  and  O3M_29 
REMARK       I    between atoms: O5I_26  and  S5H_47 
REMARK       I    between atoms: C53_28  and  C51_66 
REMARK       I    between atoms: O3M_29  and  C3L_61 
REMARK       I    between atoms: S17_31  and  O16_86 
REMARK       I    between atoms: O5K_34  and  S5H_47 
REMARK       I    between atoms: O1J_37  and  S1G_48 
REMARK       I    between atoms: C12_38  and  O10_70 
REMARK       I    between atoms: C13_42  and  C15_63 
REMARK       I    between atoms: C29_43  and  O2A_60 
REMARK       I    between atoms: C31_45  and  C33_81 
REMARK       I    between atoms: S5H_47  and  O5J_49 
REMARK       I    between atoms: S1G_48  and  O1H_78 
REMARK       I    between atoms: S3H_51  and  O3J_68 
REMARK       I    between atoms: O3A_54  and  C39_85 
REMARK       I    between atoms: O3A_54  and  S3B_83 
REMARK       I    between atoms: C5L_55  and  O5M_87 
REMARK       I    between atoms: C15_63  and  O16_86 
REMARK       I    between atoms: C59_71  and  O5A_75 
REMARK       I    between atoms: C33_81  and  O34_91 
REMARK       I    between atoms: S35_82  and  O34_91 
ROOT
ATOM      1  O3I NTO d 869      62.146  -1.361   7.708  0.00  0.00    -0.296 OA
ATOM      2  O1I NTO d 869      71.216   9.567  14.382  0.00  0.00    -0.296 OA
ATOM      3  O54 NTO d 869      57.104   1.193   6.235  0.00  0.00    -0.254 OA
ATOM      4  O18 NTO d 869      66.120   6.788  20.443  0.00  0.00    -0.572 OA
ATOM      5  C41 NTO d 869      62.133   3.687   6.632  0.00  0.00     0.152 C 
ATOM      6  C1B NTO d 869      71.303   5.900  16.328  0.00  0.00     0.083 C 
ATOM      7  O4G NTO d 869      59.549   3.296   4.714  0.00  0.00    -0.348 OA
ATOM      8  N5G NTO d 869      56.732   7.118   5.701  0.00  0.00    -0.210 NA
ATOM      9  N1F NTO d 869      70.931   7.037  14.195  0.00  0.00    -0.210 NA
ATOM     10  O3K NTO d 869      64.564  -1.702   7.942  0.00  0.00    -0.296 OA
ATOM     11  C5N NTO d 869      54.076   5.232   3.629  0.00  0.00     0.007 C 
ATOM     12  C21 NTO d 869      67.875   3.609  13.578  0.00  0.00     0.152 C 
ATOM     13  C26 NTO d 869      67.998   5.958  12.862  0.00  0.00     0.092 C 
ATOM     14  O4E NTO d 869      60.839   0.506   1.500  0.00  0.00    -0.572 OA
ATOM     15  C50 NTO d 869      58.336   3.695   5.370  0.00  0.00     0.095 C 
ATOM     16  C49 NTO d 869      61.575   1.999   4.742  0.00  0.00     0.134 C 
ATOM     17  O2D NTO d 869      65.578   3.965  10.772  0.00  0.00    -0.348 OA
ATOM     18  O1L NTO d 869      68.993   5.199  14.975  0.00  0.00    -0.348 OA
ATOM     19  O19 NTO d 869      67.284   4.877  21.449  0.00  0.00    -0.572 OA
ATOM     20  C46 NTO d 869      62.649   1.434   5.672  0.00  0.00     0.094 C 
ATOM     21  O4A NTO d 869      61.159   1.001   3.807  0.00  0.00    -0.244 OA
ATOM     22  N3G NTO d 869      63.337  -0.277   9.696  0.00  0.00    -0.210 NA
ATOM     23  O36 NTO d 869      69.864   4.263   9.674  0.00  0.00    -0.572 OA
ATOM     24  O57 NTO d 869      56.826  -1.045   5.440  0.00  0.00    -0.572 OA
ATOM     25  C40 NTO d 869      63.132   2.539   6.609  0.00  0.00     0.103 C 
ATOM     26  O5I NTO d 869      57.143   8.126   8.008  0.00  0.00    -0.296 OA
ATOM     27  C20 NTO d 869      67.883   5.044  14.081  0.00  0.00     0.103 C 
ATOM     28  C53 NTO d 869      57.201   1.549   4.855  0.00  0.00     0.067 C 
ATOM     29  O3M NTO d 869      63.258   1.976   7.921  0.00  0.00    -0.348 OA
ATOM     30  C43 NTO d 869      62.452   4.571   7.827  0.00  0.00     0.206 C 
ATOM     31  S17 NTO d 869      66.480   5.342  20.271  0.00  0.00     0.251 S 
ATOM     32  O45 NTO d 869      62.542   4.030   8.953  0.00  0.00    -0.646 OA
ATOM     33  O47 NTO d 869      63.750   0.959   4.892  0.00  0.00    -0.390 OA
ATOM     34  O5K NTO d 869      55.300   9.016   6.656  0.00  0.00    -0.296 OA
ATOM     35  C2C NTO d 869      66.762   4.198  11.554  0.00  0.00     0.160 C 
ATOM     36  O38 NTO d 869      70.332   2.756   7.807  0.00  0.00    -0.572 OA
ATOM     37  O1J NTO d 869      72.450   8.367  12.638  0.00  0.00    -0.296 OA
ATOM     38  C12 NTO d 869      70.726   5.677  17.729  0.00  0.00     0.089 C 
ATOM     39  S4B NTO d 869      61.603   1.334   2.488  0.00  0.00     0.252 S 
ATOM     40  O4D NTO d 869      63.070   1.051   2.365  0.00  0.00    -0.572 OA
ATOM     41  C1E NTO d 869      70.471   6.947  15.587  0.00  0.00     0.081 C 
ATOM     42  C13 NTO d 869      69.224   5.391  17.660  0.00  0.00     0.090 C 
ATOM     43  C29 NTO d 869      66.821   5.683  11.923  0.00  0.00     0.110 C 
ATOM     44  O42 NTO d 869      60.792   3.177   6.747  0.00  0.00    -0.340 OA
ATOM     45  C31 NTO d 869      65.633   3.082   8.538  0.00  0.00     0.091 C 
ATOM     46  C3F NTO d 869      64.489   0.604   9.424  0.00  0.00     0.083 C 
ATOM     47  S5H NTO d 869      56.059   7.778   7.032  0.00  0.00     0.156 S 
ATOM     48  S1G NTO d 869      71.950   8.300  14.050  0.00  0.00     0.156 S 
ATOM     49  O5J NTO d 869      55.111   6.802   7.664  0.00  0.00    -0.296 OA
ATOM     50  C5F NTO d 869      56.900   5.669   5.886  0.00  0.00     0.081 C 
ATOM     51  S3H NTO d 869      63.269  -1.558   8.685  0.00  0.00     0.156 S 
ATOM     52  O25 NTO d 869      68.977   2.429  15.326  0.00  0.00    -0.646 OA
ATOM     53  O1C NTO d 869      72.656   6.348  16.435  0.00  0.00    -0.391 OA
ATOM     54  O3A NTO d 869      64.576   1.380  11.725  0.00  0.00    -0.247 OA
ATOM     55  C5L NTO d 869      55.722   4.928   5.250  0.00  0.00     0.149 C 
ATOM     56  C30 NTO d 869      65.650   2.742  10.022  0.00  0.00     0.096 C 
ATOM     57  C23 NTO d 869      67.875   2.686  14.787  0.00  0.00     0.206 C 
ATOM     58  O3E NTO d 869      63.019   3.080  12.404  0.00  0.00    -0.572 OA
ATOM     59  O14 NTO d 869      68.540   6.425  16.934  0.00  0.00    -0.349 OA
ATOM     60  O2A NTO d 869      66.969   6.466  10.737  0.00  0.00    -0.388 OA
ATOM     61  C3L NTO d 869      64.413   1.129   7.991  0.00  0.00     0.150 C 
ATOM     62  C4F NTO d 869      60.375   2.484   5.561  0.00  0.00     0.161 C 
ATOM     63  C15 NTO d 869      68.663   5.374  19.084  0.00  0.00     0.067 C 
ATOM     64  S55 NTO d 869      57.084  -0.182   6.638  0.00  0.00     0.251 S 
ATOM     65  O58 NTO d 869      55.992  -0.380   7.646  0.00  0.00    -0.572 OA
ATOM     66  C51 NTO d 869      57.128   3.069   4.691  0.00  0.00     0.091 C 
ATOM     67  O56 NTO d 869      58.403  -0.558   7.244  0.00  0.00    -0.572 OA
ATOM     68  O3J NTO d 869      63.029  -2.810   9.476  0.00  0.00    -0.296 OA
ATOM     69  O44 NTO d 869      62.618   5.803   7.627  0.00  0.00    -0.646 OA
ATOM     70  O10 NTO d 869      71.382   4.553  18.321  0.00  0.00    -0.390 OA
ATOM     71  C59 NTO d 869      58.222   5.215   5.266  0.00  0.00     0.083 C 
ATOM     72  O52 NTO d 869      55.904   3.504   5.305  0.00  0.00    -0.349 OA
ATOM     73  O27 NTO d 869      67.959   7.327  13.274  0.00  0.00    -0.390 OA
ATOM     74  O1A NTO d 869      65.226   4.530  20.160  0.00  0.00    -0.572 OA
ATOM     75  O5A NTO d 869      59.314   5.799   5.984  0.00  0.00    -0.391 OA
ATOM     76  O37 NTO d 869      69.269   4.929   7.397  0.00  0.00    -0.572 OA
ATOM     77  O24 NTO d 869      66.774   2.245  15.195  0.00  0.00    -0.646 OA
ATOM     78  O1H NTO d 869      73.101   8.121  14.994  0.00  0.00    -0.296 OA
ATOM     79  O22 NTO d 869      66.737   3.373  12.730  0.00  0.00    -0.340 OA
ATOM     80  O3D NTO d 869      63.487   1.153  13.842  0.00  0.00    -0.572 OA
ATOM     81  C33 NTO d 869      66.887   3.894   8.200  0.00  0.00     0.067 C 
ATOM     82  S35 NTO d 869      69.371   3.772   8.346  0.00  0.00     0.251 S 
ATOM     83  S3B NTO d 869      63.348   1.617  12.422  0.00  0.00     0.252 S 
ATOM     84  O4C NTO d 869      61.343   2.787   2.221  0.00  0.00    -0.572 OA
ATOM     85  C39 NTO d 869      64.481   1.812  10.362  0.00  0.00     0.108 C 
ATOM     86  O16 NTO d 869      67.247   5.183  19.072  0.00  0.00    -0.254 OA
ATOM     87  O5M NTO d 869      55.468   5.397   3.920  0.00  0.00    -0.364 OA
ATOM     88  O3C NTO d 869      62.236   0.853  11.767  0.00  0.00    -0.572 OA
ATOM     89  C1K NTO d 869      69.009   6.501  15.579  0.00  0.00     0.150 C 
ATOM     90  O32 NTO d 869      65.595   1.900   7.723  0.00  0.00    -0.349 OA
ATOM     91  O34 NTO d 869      68.081   3.165   8.499  0.00  0.00    -0.254 OA
ATOM     92  H   NTO d 869      62.301  -0.553   7.196  0.00  0.00     0.231 HD
ATOM     93  H   NTO d 869      70.473   9.679  13.769  0.00  0.00     0.231 HD
ATOM     94  H   NTO d 869      62.203   4.248   5.724  0.00  0.00     0.104 H 
ATOM     95  H   NTO d 869      71.275   4.979  15.783  0.00  0.00     0.089 H 
ATOM     96  H   NTO d 869      56.127   7.288   4.897  0.00  0.00     0.140 HD
ATOM     97  H   NTO d 869      70.129   7.172  13.579  0.00  0.00     0.140 HD
ATOM     98  H   NTO d 869      64.731  -0.898   7.425  0.00  0.00     0.231 HD
ATOM     99  H   NTO d 869      53.876   5.580   2.637  0.00  0.00     0.066 H 
ATOM    100  H   NTO d 869      53.495   5.795   4.328  0.00  0.00     0.066 H 
ATOM    101  H   NTO d 869      53.817   4.196   3.703  0.00  0.00     0.066 H 
ATOM    102  H   NTO d 869      68.745   3.417  12.984  0.00  0.00     0.104 H 
ATOM    103  H   NTO d 869      68.923   5.767  12.360  0.00  0.00     0.091 H 
ATOM    104  H   NTO d 869      58.361   3.374   6.390  0.00  0.00     0.091 H 
ATOM    105  H   NTO d 869      61.985   2.828   4.204  0.00  0.00     0.097 H 
ATOM    106  H   NTO d 869      62.243   0.627   6.245  0.00  0.00     0.091 H 
ATOM    107  H   NTO d 869      62.480   0.267   9.592  0.00  0.00     0.140 HD
ATOM    108  H   NTO d 869      64.072   2.923   6.273  0.00  0.00     0.092 H 
ATOM    109  H   NTO d 869      57.755   8.757   7.599  0.00  0.00     0.231 HD
ATOM    110  H   NTO d 869      66.990   5.294  14.615  0.00  0.00     0.092 H 
ATOM    111  H   NTO d 869      56.396   1.096   4.317  0.00  0.00     0.080 H 
ATOM    112  H   NTO d 869      58.139   1.203   4.473  0.00  0.00     0.080 H 
ATOM    113  H   NTO d 869      64.118   1.692   4.373  0.00  0.00     0.210 HD
ATOM    114  H   NTO d 869      55.905   9.654   6.246  0.00  0.00     0.231 HD
ATOM    115  H   NTO d 869      67.635   3.944  10.992  0.00  0.00     0.133 H 
ATOM    116  H   NTO d 869      71.700   8.483  12.034  0.00  0.00     0.231 HD
ATOM    117  H   NTO d 869      70.882   6.560  18.311  0.00  0.00     0.091 H 
ATOM    118  H   NTO d 869      70.574   7.896  16.071  0.00  0.00     0.076 H 
ATOM    119  H   NTO d 869      69.079   4.453  17.166  0.00  0.00     0.090 H 
ATOM    120  H   NTO d 869      65.912   5.947  12.422  0.00  0.00     0.094 H 
ATOM    121  H   NTO d 869      64.749   3.649   8.333  0.00  0.00     0.090 H 
ATOM    122  H   NTO d 869      65.380   0.031   9.574  0.00  0.00     0.076 H 
ATOM    123  H   NTO d 869      55.592   5.998   7.911  0.00  0.00     0.231 HD
ATOM    124  H   NTO d 869      56.921   5.444   6.932  0.00  0.00     0.076 H 
ATOM    125  H   NTO d 869      72.682   7.184  16.928  0.00  0.00     0.210 HD
ATOM    126  H   NTO d 869      54.849   5.147   5.827  0.00  0.00     0.131 H 
ATOM    127  H   NTO d 869      66.555   2.229  10.276  0.00  0.00     0.091 H 
ATOM    128  H   NTO d 869      67.794   6.222  10.290  0.00  0.00     0.210 HD
ATOM    129  H   NTO d 869      64.345   0.332   7.279  0.00  0.00     0.131 H 
ATOM    130  H   NTO d 869      59.804   1.646   5.902  0.00  0.00     0.133 H 
ATOM    131  H   NTO d 869      68.887   6.306  19.561  0.00  0.00     0.080 H 
ATOM    132  H   NTO d 869      69.113   4.564  19.620  0.00  0.00     0.080 H 
ATOM    133  H   NTO d 869      57.136   3.360   3.661  0.00  0.00     0.090 H 
ATOM    134  H   NTO d 869      62.989  -3.570   8.875  0.00  0.00     0.231 HD
ATOM    135  H   NTO d 869      71.227   3.765  17.776  0.00  0.00     0.210 HD
ATOM    136  H   NTO d 869      58.251   5.520   4.241  0.00  0.00     0.089 H 
ATOM    137  H   NTO d 869      67.121   7.505  13.730  0.00  0.00     0.210 HD
ATOM    138  H   NTO d 869      59.279   5.517   6.911  0.00  0.00     0.210 HD
ATOM    139  H   NTO d 869      72.769   8.079  15.905  0.00  0.00     0.231 HD
ATOM    140  H   NTO d 869      66.879   4.798   8.770  0.00  0.00     0.080 H 
ATOM    141  H   NTO d 869      66.877   4.104   7.150  0.00  0.00     0.080 H 
ATOM    142  H   NTO d 869      63.562   2.346  10.234  0.00  0.00     0.092 H 
ATOM    143  H   NTO d 869      68.379   7.180  15.042  0.00  0.00     0.131 H 
ENDROOT
TORSDOF 46
ENDMDL
MODEL 54
REMARK VINA RESULT:      -5.9      4.573     14.121
REMARK  0 active torsions:
REMARK  status: ('A' for Active; 'I' for Inactive)
REMARK       I    between atoms: O3I_1  and  S3H_51 
REMARK       I    between atoms: O1I_2  and  S1G_48 
REMARK       I    between atoms: O54_3  and  C53_28 
REMARK       I    between atoms: O54_3  and  S55_64 
REMARK       I    between atoms: C41_5  and  C43_30 
REMARK       I    between atoms: C1B_6  and  O1C_53 
REMARK       I    between atoms: O4G_7  and  C4F_62 
REMARK       I    between atoms: O4G_7  and  C50_15 
REMARK       I    between atoms: N5G_8  and  C5F_50 
REMARK       I    between atoms: N5G_8  and  S5H_47 
REMARK       I    between atoms: N1F_9  and  C1E_41 
REMARK       I    between atoms: N1F_9  and  S1G_48 
REMARK       I    between atoms: O3K_10  and  S3H_51 
REMARK       I    between atoms: C5N_11  and  O5M_87 
REMARK       I    between atoms: C21_12  and  C23_57 
REMARK       I    between atoms: C26_13  and  O27_73 
REMARK       I    between atoms: C49_16  and  O4A_21 
REMARK       I    between atoms: O2D_17  and  C2C_35 
REMARK       I    between atoms: O2D_17  and  C30_56 
REMARK       I    between atoms: O1L_18  and  C1K_89 
REMARK       I    between atoms: O1L_18  and  C20_27 
REMARK       I    between atoms: C46_20  and  O47_33 
REMARK       I    between atoms: O4A_21  and  S4B_39 
REMARK       I    between atoms: N3G_22  and  C3F_46 
REMARK       I    between atoms: N3G_22  and  S3H_51 
REMARK       I    between atoms: C40_25  and  O3M_29 
REMARK       I    between atoms: O5I_26  and  S5H_47 
REMARK       I    between atoms: C53_28  and  C51_66 
REMARK       I    between atoms: O3M_29  and  C3L_61 
REMARK       I    between atoms: S17_31  and  O16_86 
REMARK       I    between atoms: O5K_34  and  S5H_47 
REMARK       I    between atoms: O1J_37  and  S1G_48 
REMARK       I    between atoms: C12_38  and  O10_70 
REMARK       I    between atoms: C13_42  and  C15_63 
REMARK       I    between atoms: C29_43  and  O2A_60 
REMARK       I    between atoms: C31_45  and  C33_81 
REMARK       I    between atoms: S5H_47  and  O5J_49 
REMARK       I    between atoms: S1G_48  and  O1H_78 
REMARK       I    between atoms: S3H_51  and  O3J_68 
REMARK       I    between atoms: O3A_54  and  C39_85 
REMARK       I    between atoms: O3A_54  and  S3B_83 
REMARK       I    between atoms: C5L_55  and  O5M_87 
REMARK       I    between atoms: C15_63  and  O16_86 
REMARK       I    between atoms: C59_71  and  O5A_75 
REMARK       I    between atoms: C33_81  and  O34_91 
REMARK       I    between atoms: S35_82  and  O34_91 
ROOT
ATOM      1  O3I NTO d 869      61.920  -2.747   8.085  0.00  0.00    -0.296 OA
ATOM      2  O1I NTO d 869      70.582   9.623  12.349  0.00  0.00    -0.296 OA
ATOM      3  O54 NTO d 869      57.127  -0.713   5.437  0.00  0.00    -0.254 OA
ATOM      4  O18 NTO d 869      64.824   8.655  18.378  0.00  0.00    -0.572 OA
ATOM      5  C41 NTO d 869      62.160   1.796   5.645  0.00  0.00     0.152 C 
ATOM      6  C1B NTO d 869      70.367   6.651  15.241  0.00  0.00     0.083 C 
ATOM      7  O4G NTO d 869      59.773   0.880   3.653  0.00  0.00    -0.348 OA
ATOM      8  N5G NTO d 869      56.982   4.823   3.232  0.00  0.00    -0.210 NA
ATOM      9  N1F NTO d 869      70.245   7.142  12.849  0.00  0.00    -0.210 NA
ATOM     10  O3K NTO d 869      64.291  -3.006   8.657  0.00  0.00    -0.296 OA
ATOM     11  C5N NTO d 869      54.495   2.429   1.504  0.00  0.00     0.007 C 
ATOM     12  C21 NTO d 869      67.169   3.676  12.898  0.00  0.00     0.152 C 
ATOM     13  C26 NTO d 869      67.431   5.730  11.571  0.00  0.00     0.092 C 
ATOM     14  O4E NTO d 869      61.299  -2.699   1.501  0.00  0.00    -0.572 OA
ATOM     15  C50 NTO d 869      58.512   1.446   4.041  0.00  0.00     0.095 C 
ATOM     16  C49 NTO d 869      61.747  -0.355   4.255  0.00  0.00     0.134 C 
ATOM     17  O2D NTO d 869      65.178   3.228   9.880  0.00  0.00    -0.348 OA
ATOM     18  O1L NTO d 869      68.186   5.597  13.904  0.00  0.00    -0.348 OA
ATOM     19  O19 NTO d 869      65.825   7.105  19.993  0.00  0.00    -0.572 OA
ATOM     20  C46 NTO d 869      62.706  -0.636   5.414  0.00  0.00     0.094 C 
ATOM     21  O4A NTO d 869      61.399  -1.576   3.598  0.00  0.00    -0.244 OA
ATOM     22  N3G NTO d 869      62.936  -1.146   9.803  0.00  0.00    -0.210 NA
ATOM     23  O36 NTO d 869      69.560   3.209   9.197  0.00  0.00    -0.572 OA
ATOM     24  O57 NTO d 869      56.867  -3.084   5.274  0.00  0.00    -0.572 OA
ATOM     25  C40 NTO d 869      63.123   0.688   6.050  0.00  0.00     0.103 C 
ATOM     26  O5I NTO d 869      57.187   6.439   5.195  0.00  0.00    -0.296 OA
ATOM     27  C20 NTO d 869      67.167   5.195  12.977  0.00  0.00     0.103 C 
ATOM     28  C53 NTO d 869      57.373  -0.759   4.031  0.00  0.00     0.067 C 
ATOM     29  O3M NTO d 869      63.101   0.517   7.472  0.00  0.00    -0.348 OA
ATOM     30  C43 NTO d 869      62.382   2.981   6.572  0.00  0.00     0.206 C 
ATOM     31  S17 NTO d 869      65.157   7.220  18.655  0.00  0.00     0.251 S 
ATOM     32  O45 NTO d 869      62.343   2.778   7.807  0.00  0.00    -0.646 OA
ATOM     33  O47 NTO d 869      63.865  -1.310   4.916  0.00  0.00    -0.390 OA
ATOM     34  O5K NTO d 869      55.516   6.912   3.463  0.00  0.00    -0.296 OA
ATOM     35  C2C NTO d 869      66.283   3.673  10.685  0.00  0.00     0.160 C 
ATOM     36  O38 NTO d 869      70.169   1.238   7.886  0.00  0.00    -0.572 OA
ATOM     37  O1J NTO d 869      71.951   7.982  11.150  0.00  0.00    -0.296 OA
ATOM     38  C12 NTO d 869      69.646   6.830  16.580  0.00  0.00     0.089 C 
ATOM     39  S4B NTO d 869      61.983  -1.627   2.293  0.00  0.00     0.252 S 
ATOM     40  O4D NTO d 869      63.447  -1.932   2.408  0.00  0.00    -0.572 OA
ATOM     41  C1E NTO d 869      69.645   7.447  14.154  0.00  0.00     0.081 C 
ATOM     42  C13 NTO d 869      68.151   6.535  16.437  0.00  0.00     0.090 C 
ATOM     43  C29 NTO d 869      66.347   5.201  10.628  0.00  0.00     0.110 C 
ATOM     44  O42 NTO d 869      60.801   1.338   5.757  0.00  0.00    -0.340 OA
ATOM     45  C31 NTO d 869      65.432   1.753   8.000  0.00  0.00     0.091 C 
ATOM     46  C3F NTO d 869      64.133  -0.377   9.419  0.00  0.00     0.083 C 
ATOM     47  S5H NTO d 869      56.197   5.830   4.248  0.00  0.00     0.156 S 
ATOM     48  S1G NTO d 869      71.309   8.315  12.464  0.00  0.00     0.156 S 
ATOM     49  O5J NTO d 869      55.163   5.070   5.024  0.00  0.00    -0.296 OA
ATOM     50  C5F NTO d 869      57.088   3.485   3.832  0.00  0.00     0.081 C 
ATOM     51  S3H NTO d 869      62.933  -2.660   9.190  0.00  0.00     0.156 S 
ATOM     52  O25 NTO d 869      68.056   3.036  15.011  0.00  0.00    -0.646 OA
ATOM     53  O1C NTO d 869      71.715   7.112  15.359  0.00  0.00    -0.391 OA
ATOM     54  O3A NTO d 869      64.011   1.015  11.407  0.00  0.00    -0.247 OA
ATOM     55  C5L NTO d 869      55.960   2.594   3.309  0.00  0.00     0.149 C 
ATOM     56  C30 NTO d 869      65.290   1.844   9.514  0.00  0.00     0.096 C 
ATOM     57  C23 NTO d 869      67.021   3.131  14.310  0.00  0.00     0.206 C 
ATOM     58  O3E NTO d 869      62.443   2.836  11.417  0.00  0.00    -0.572 OA
ATOM     59  O14 NTO d 869      67.573   7.324  15.384  0.00  0.00    -0.349 OA
ATOM     60  O2A NTO d 869      66.636   5.620   9.294  0.00  0.00    -0.388 OA
ATOM     61  C3L NTO d 869      64.218  -0.276   7.897  0.00  0.00     0.150 C 
ATOM     62  C4F NTO d 869      60.485   0.339   4.775  0.00  0.00     0.161 C 
ATOM     63  C15 NTO d 869      67.449   6.919  17.743  0.00  0.00     0.067 C 
ATOM     64  S55 NTO d 869      57.028  -1.919   6.204  0.00  0.00     0.251 S 
ATOM     65  O58 NTO d 869      55.835  -1.827   7.107  0.00  0.00    -0.572 OA
ATOM     66  C51 NTO d 869      57.360   0.653   3.441  0.00  0.00     0.091 C 
ATOM     67  O56 NTO d 869      58.268  -2.108   7.026  0.00  0.00    -0.572 OA
ATOM     68  O3J NTO d 869      62.579  -3.639  10.270  0.00  0.00    -0.296 OA
ATOM     69  O44 NTO d 869      62.603   4.107   6.055  0.00  0.00    -0.646 OA
ATOM     70  O10 NTO d 869      70.206   5.918  17.528  0.00  0.00    -0.390 OA
ATOM     71  C59 NTO d 869      58.453   2.876   3.506  0.00  0.00     0.083 C 
ATOM     72  O52 NTO d 869      56.094   1.243   3.778  0.00  0.00    -0.349 OA
ATOM     73  O27 NTO d 869      67.391   7.160  11.577  0.00  0.00    -0.390 OA
ATOM     74  O1A NTO d 869      63.898   6.408  18.645  0.00  0.00    -0.572 OA
ATOM     75  O5A NTO d 869      59.483   3.639   4.141  0.00  0.00    -0.391 OA
ATOM     76  O37 NTO d 869      69.216   3.208   6.775  0.00  0.00    -0.572 OA
ATOM     77  O24 NTO d 869      65.872   2.822  14.707  0.00  0.00    -0.646 OA
ATOM     78  O1H NTO d 869      72.354   8.409  13.536  0.00  0.00    -0.296 OA
ATOM     79  O22 NTO d 869      66.116   3.211  12.035  0.00  0.00    -0.340 OA
ATOM     80  O3D NTO d 869      62.708   1.391  13.377  0.00  0.00    -0.572 OA
ATOM     81  C33 NTO d 869      66.736   2.438   7.582  0.00  0.00     0.067 C 
ATOM     82  S35 NTO d 869      69.188   2.365   8.015  0.00  0.00     0.251 S 
ATOM     83  S3B NTO d 869      62.727   1.437  11.878  0.00  0.00     0.252 S 
ATOM     84  O4C NTO d 869      61.793  -0.307   1.605  0.00  0.00    -0.572 OA
ATOM     85  C39 NTO d 869      64.066   1.046   9.976  0.00  0.00     0.108 C 
ATOM     86  O16 NTO d 869      66.037   6.731  17.636  0.00  0.00    -0.254 OA
ATOM     87  O5M NTO d 869      55.854   2.671   1.881  0.00  0.00    -0.364 OA
ATOM     88  O3C NTO d 869      61.665   0.519  11.349  0.00  0.00    -0.572 OA
ATOM     89  C1K NTO d 869      68.178   7.015  14.118  0.00  0.00     0.150 C 
ATOM     90  O32 NTO d 869      65.442   0.390   7.549  0.00  0.00    -0.349 OA
ATOM     91  O34 NTO d 869      67.873   1.824   8.197  0.00  0.00    -0.254 OA
ATOM     92  H   NTO d 869      62.149  -2.114   7.387  0.00  0.00     0.231 HD
ATOM     93  H   NTO d 869      69.908   9.558  11.655  0.00  0.00     0.231 HD
ATOM     94  H   NTO d 869      62.337   2.079   4.629  0.00  0.00     0.104 H 
ATOM     95  H   NTO d 869      70.368   5.614  14.976  0.00  0.00     0.089 H 
ATOM     96  H   NTO d 869      56.466   4.760   2.355  0.00  0.00     0.140 HD
ATOM     97  H   NTO d 869      69.513   7.099  12.139  0.00  0.00     0.140 HD
ATOM     98  H   NTO d 869      64.532  -2.379   7.956  0.00  0.00     0.231 HD
ATOM     99  H   NTO d 869      54.405   2.484   0.439  0.00  0.00     0.066 H 
ATOM    100  H   NTO d 869      53.863   3.166   1.953  0.00  0.00     0.066 H 
ATOM    101  H   NTO d 869      54.200   1.455   1.837  0.00  0.00     0.066 H 
ATOM    102  H   NTO d 869      68.089   3.326  12.476  0.00  0.00     0.104 H 
ATOM    103  H   NTO d 869      68.396   5.407  11.242  0.00  0.00     0.091 H 
ATOM    104  H   NTO d 869      58.425   1.425   5.107  0.00  0.00     0.091 H 
ATOM    105  H   NTO d 869      62.233   0.289   3.553  0.00  0.00     0.097 H 
ATOM    106  H   NTO d 869      62.220  -1.249   6.143  0.00  0.00     0.091 H 
ATOM    107  H   NTO d 869      62.109  -0.655   9.463  0.00  0.00     0.140 HD
ATOM    108  H   NTO d 869      64.103   0.964   5.720  0.00  0.00     0.092 H 
ATOM    109  H   NTO d 869      57.855   6.930   4.693  0.00  0.00     0.231 HD
ATOM    110  H   NTO d 869      66.233   5.585  13.324  0.00  0.00     0.092 H 
ATOM    111  H   NTO d 869      56.613  -1.345   3.559  0.00  0.00     0.080 H 
ATOM    112  H   NTO d 869      58.335  -1.197   3.861  0.00  0.00     0.080 H 
ATOM    113  H   NTO d 869      64.305  -0.752   4.255  0.00  0.00     0.210 HD
ATOM    114  H   NTO d 869      56.177   7.410   2.957  0.00  0.00     0.231 HD
ATOM    115  H   NTO d 869      67.201   3.272  10.311  0.00  0.00     0.133 H 
ATOM    116  H   NTO d 869      71.269   7.923  10.463  0.00  0.00     0.231 HD
ATOM    117  H   NTO d 869      69.767   7.842  16.905  0.00  0.00     0.091 H 
ATOM    118  H   NTO d 869      69.726   8.493  14.362  0.00  0.00     0.076 H 
ATOM    119  H   NTO d 869      68.029   5.496  16.213  0.00  0.00     0.090 H 
ATOM    120  H   NTO d 869      65.401   5.594  10.936  0.00  0.00     0.094 H 
ATOM    121  H   NTO d 869      64.590   2.239   7.553  0.00  0.00     0.090 H 
ATOM    122  H   NTO d 869      64.988  -0.884   9.816  0.00  0.00     0.076 H 
ATOM    123  H   NTO d 869      55.593   4.368   5.536  0.00  0.00     0.231 HD
ATOM    124  H   NTO d 869      56.998   3.563   4.895  0.00  0.00     0.076 H 
ATOM    125  H   NTO d 869      71.715   8.053  15.599  0.00  0.00     0.210 HD
ATOM    126  H   NTO d 869      55.039   2.965   3.707  0.00  0.00     0.131 H 
ATOM    127  H   NTO d 869      66.149   1.424   9.994  0.00  0.00     0.091 H 
ATOM    128  H   NTO d 869      67.495   5.261   9.021  0.00  0.00     0.210 HD
ATOM    129  H   NTO d 869      64.199  -1.240   7.432  0.00  0.00     0.131 H 
ATOM    130  H   NTO d 869      59.859  -0.370   5.276  0.00  0.00     0.133 H 
ATOM    131  H   NTO d 869      67.651   7.947  17.960  0.00  0.00     0.080 H 
ATOM    132  H   NTO d 869      67.820   6.292  18.527  0.00  0.00     0.080 H 
ATOM    133  H   NTO d 869      57.481   0.644   2.378  0.00  0.00     0.090 H 
ATOM    134  H   NTO d 869      62.577  -4.538   9.905  0.00  0.00     0.231 HD
ATOM    135  H   NTO d 869      70.085   5.009  17.212  0.00  0.00     0.210 HD
ATOM    136  H   NTO d 869      58.593   2.880   2.445  0.00  0.00     0.089 H 
ATOM    137  H   NTO d 869      66.516   7.458  11.875  0.00  0.00     0.210 HD
ATOM    138  H   NTO d 869      59.347   3.629   5.101  0.00  0.00     0.210 HD
ATOM    139  H   NTO d 869      71.931   8.624  14.382  0.00  0.00     0.231 HD
ATOM    140  H   NTO d 869      66.697   3.467   7.872  0.00  0.00     0.080 H 
ATOM    141  H   NTO d 869      66.838   2.345   6.520  0.00  0.00     0.080 H 
ATOM    142  H   NTO d 869      63.181   1.522   9.608  0.00  0.00     0.092 H 
ATOM    143  H   NTO d 869      67.626   7.516  13.350  0.00  0.00     0.131 H 
ENDROOT
TORSDOF 46
ENDMDL
MODEL 55
REMARK VINA RESULT:      -5.9      4.973     14.100
REMARK  0 active torsions:
REMARK  status: ('A' for Active; 'I' for Inactive)
REMARK       I    between atoms: O3I_1  and  S3H_51 
REMARK       I    between atoms: O1I_2  and  S1G_48 
REMARK       I    between atoms: O54_3  and  C53_28 
REMARK       I    between atoms: O54_3  and  S55_64 
REMARK       I    between atoms: C41_5  and  C43_30 
REMARK       I    between atoms: C1B_6  and  O1C_53 
REMARK       I    between atoms: O4G_7  and  C4F_62 
REMARK       I    between atoms: O4G_7  and  C50_15 
REMARK       I    between atoms: N5G_8  and  C5F_50 
REMARK       I    between atoms: N5G_8  and  S5H_47 
REMARK       I    between atoms: N1F_9  and  C1E_41 
REMARK       I    between atoms: N1F_9  and  S1G_48 
REMARK       I    between atoms: O3K_10  and  S3H_51 
REMARK       I    between atoms: C5N_11  and  O5M_87 
REMARK       I    between atoms: C21_12  and  C23_57 
REMARK       I    between atoms: C26_13  and  O27_73 
REMARK       I    between atoms: C49_16  and  O4A_21 
REMARK       I    between atoms: O2D_17  and  C2C_35 
REMARK       I    between atoms: O2D_17  and  C30_56 
REMARK       I    between atoms: O1L_18  and  C1K_89 
REMARK       I    between atoms: O1L_18  and  C20_27 
REMARK       I    between atoms: C46_20  and  O47_33 
REMARK       I    between atoms: O4A_21  and  S4B_39 
REMARK       I    between atoms: N3G_22  and  C3F_46 
REMARK       I    between atoms: N3G_22  and  S3H_51 
REMARK       I    between atoms: C40_25  and  O3M_29 
REMARK       I    between atoms: O5I_26  and  S5H_47 
REMARK       I    between atoms: C53_28  and  C51_66 
REMARK       I    between atoms: O3M_29  and  C3L_61 
REMARK       I    between atoms: S17_31  and  O16_86 
REMARK       I    between atoms: O5K_34  and  S5H_47 
REMARK       I    between atoms: O1J_37  and  S1G_48 
REMARK       I    between atoms: C12_38  and  O10_70 
REMARK       I    between atoms: C13_42  and  C15_63 
REMARK       I    between atoms: C29_43  and  O2A_60 
REMARK       I    between atoms: C31_45  and  C33_81 
REMARK       I    between atoms: S5H_47  and  O5J_49 
REMARK       I    between atoms: S1G_48  and  O1H_78 
REMARK       I    between atoms: S3H_51  and  O3J_68 
REMARK       I    between atoms: O3A_54  and  C39_85 
REMARK       I    between atoms: O3A_54  and  S3B_83 
REMARK       I    between atoms: C5L_55  and  O5M_87 
REMARK       I    between atoms: C15_63  and  O16_86 
REMARK       I    between atoms: C59_71  and  O5A_75 
REMARK       I    between atoms: C33_81  and  O34_91 
REMARK       I    between atoms: S35_82  and  O34_91 
ROOT
ATOM      1  O3I NTO d 869      70.303   1.844   6.738  0.00  0.00    -0.296 OA
ATOM      2  O1I NTO d 869      65.241   7.973  20.268  0.00  0.00    -0.296 OA
ATOM      3  O54 NTO d 869      65.719  -0.641   4.105  0.00  0.00    -0.254 OA
ATOM      4  O18 NTO d 869      66.654  -0.156  21.807  0.00  0.00    -0.572 OA
ATOM      5  C41 NTO d 869      65.583   3.719   7.661  0.00  0.00     0.152 C 
ATOM      6  C1B NTO d 869      68.890   6.014  20.576  0.00  0.00     0.083 C 
ATOM      7  O4G NTO d 869      64.574   2.672   4.764  0.00  0.00    -0.348 OA
ATOM      8  N5G NTO d 869      60.152   0.869   5.612  0.00  0.00    -0.210 NA
ATOM      9  N1F NTO d 869      67.370   7.213  19.081  0.00  0.00    -0.210 NA
ATOM     10  O3K NTO d 869      71.629   3.525   7.934  0.00  0.00    -0.296 OA
ATOM     11  C5N NTO d 869      60.434  -0.526   2.023  0.00  0.00     0.007 C 
ATOM     12  C21 NTO d 869      69.112   4.292  15.934  0.00  0.00     0.152 C 
ATOM     13  C26 NTO d 869      66.933   5.387  16.249  0.00  0.00     0.092 C 
ATOM     14  O4E NTO d 869      67.085   4.792   1.769  0.00  0.00    -0.572 OA
ATOM     15  C50 NTO d 869      63.829   1.450   4.872  0.00  0.00     0.095 C 
ATOM     16  C49 NTO d 869      66.568   3.919   5.269  0.00  0.00     0.134 C 
ATOM     17  O2D NTO d 869      67.404   4.161  12.718  0.00  0.00    -0.348 OA
ATOM     18  O1L NTO d 869      68.362   4.785  18.154  0.00  0.00    -0.348 OA
ATOM     19  O19 NTO d 869      69.007  -0.293  22.482  0.00  0.00    -0.572 OA
ATOM     20  C46 NTO d 869      67.663   4.095   6.322  0.00  0.00     0.094 C 
ATOM     21  O4A NTO d 869      67.144   3.867   3.962  0.00  0.00    -0.244 OA
ATOM     22  N3G NTO d 869      70.133   1.933   9.289  0.00  0.00    -0.210 NA
ATOM     23  O36 NTO d 869      68.698   8.224  13.935  0.00  0.00    -0.572 OA
ATOM     24  O57 NTO d 869      67.490  -0.976   2.533  0.00  0.00    -0.572 OA
ATOM     25  C40 NTO d 869      67.018   4.226   7.699  0.00  0.00     0.103 C 
ATOM     26  O5I NTO d 869      59.787   0.145   8.031  0.00  0.00    -0.296 OA
ATOM     27  C20 NTO d 869      67.906   4.378  16.856  0.00  0.00     0.103 C 
ATOM     28  C53 NTO d 869      65.214   0.305   3.160  0.00  0.00     0.067 C 
ATOM     29  O3M NTO d 869      67.788   3.443   8.619  0.00  0.00    -0.348 OA
ATOM     30  C43 NTO d 869      65.111   3.519   9.093  0.00  0.00     0.206 C 
ATOM     31  S17 NTO d 869      68.071  -0.142  21.320  0.00  0.00     0.251 S 
ATOM     32  O45 NTO d 869      65.817   2.818   9.853  0.00  0.00    -0.646 OA
ATOM     33  O47 NTO d 869      68.411   5.281   6.034  0.00  0.00    -0.390 OA
ATOM     34  O5K NTO d 869      58.019  -0.315   6.394  0.00  0.00    -0.296 OA
ATOM     35  C2C NTO d 869      67.802   4.708  13.986  0.00  0.00     0.160 C 
ATOM     36  O38 NTO d 869      69.941   9.263  12.104  0.00  0.00    -0.572 OA
ATOM     37  O1J NTO d 869      66.539   9.623  19.004  0.00  0.00    -0.296 OA
ATOM     38  C12 NTO d 869      69.083   4.714  21.361  0.00  0.00     0.089 C 
ATOM     39  S4B NTO d 869      66.812   5.045   3.220  0.00  0.00     0.252 S 
ATOM     40  O4D NTO d 869      67.642   6.196   3.704  0.00  0.00    -0.572 OA
ATOM     41  C1E NTO d 869      67.490   6.044  19.961  0.00  0.00     0.081 C 
ATOM     42  C13 NTO d 869      68.719   3.500  20.503  0.00  0.00     0.090 C 
ATOM     43  C29 NTO d 869      66.551   4.923  14.842  0.00  0.00     0.110 C 
ATOM     44  O42 NTO d 869      65.515   2.472   6.947  0.00  0.00    -0.340 OA
ATOM     45  C31 NTO d 869      67.858   5.241  10.620  0.00  0.00     0.091 C 
ATOM     46  C3F NTO d 869      69.765   3.214   9.920  0.00  0.00     0.083 C 
ATOM     47  S5H NTO d 869      59.502  -0.244   6.611  0.00  0.00     0.156 S 
ATOM     48  S1G NTO d 869      66.625   8.415  19.890  0.00  0.00     0.156 S 
ATOM     49  O5J NTO d 869      60.097  -1.592   6.333  0.00  0.00    -0.296 OA
ATOM     50  C5F NTO d 869      61.554   0.530   5.324  0.00  0.00     0.081 C 
ATOM     51  S3H NTO d 869      71.094   2.125   7.982  0.00  0.00     0.156 S 
ATOM     52  O25 NTO d 869      70.904   3.873  17.442  0.00  0.00    -0.646 OA
ATOM     53  O1C NTO d 869      69.053   7.131  21.453  0.00  0.00    -0.391 OA
ATOM     54  O3A NTO d 869      69.476   2.181  12.100  0.00  0.00    -0.247 OA
ATOM     55  C5L NTO d 869      61.639  -0.225   3.996  0.00  0.00     0.149 C 
ATOM     56  C30 NTO d 869      68.411   4.331  11.709  0.00  0.00     0.096 C 
ATOM     57  C23 NTO d 869      70.138   3.376  16.584  0.00  0.00     0.206 C 
ATOM     58  O3E NTO d 869      67.424   1.005  12.530  0.00  0.00    -0.572 OA
ATOM     59  O14 NTO d 869      67.393   3.634  19.966  0.00  0.00    -0.349 OA
ATOM     60  O2A NTO d 869      65.714   5.906  14.231  0.00  0.00    -0.388 OA
ATOM     61  C3L NTO d 869      69.030   4.096   8.913  0.00  0.00     0.150 C 
ATOM     62  C4F NTO d 869      65.777   2.637   5.545  0.00  0.00     0.161 C 
ATOM     63  C15 NTO d 869      68.737   2.251  21.389  0.00  0.00     0.067 C 
ATOM     64  S55 NTO d 869      67.012  -1.231   3.932  0.00  0.00     0.251 S 
ATOM     65  O58 NTO d 869      66.911  -2.708   4.167  0.00  0.00    -0.572 OA
ATOM     66  C51 NTO d 869      63.791   0.725   3.535  0.00  0.00     0.091 C 
ATOM     67  O56 NTO d 869      67.985  -0.632   4.904  0.00  0.00    -0.572 OA
ATOM     68  O3J NTO d 869      72.251   1.173   8.065  0.00  0.00    -0.296 OA
ATOM     69  O44 NTO d 869      64.039   4.074   9.448  0.00  0.00    -0.646 OA
ATOM     70  O10 NTO d 869      70.456   4.611  21.746  0.00  0.00    -0.390 OA
ATOM     71  C59 NTO d 869      62.399   1.804   5.277  0.00  0.00     0.083 C 
ATOM     72  O52 NTO d 869      63.002  -0.474   3.617  0.00  0.00    -0.349 OA
ATOM     73  O27 NTO d 869      65.753   5.472  17.053  0.00  0.00    -0.390 OA
ATOM     74  O1A NTO d 869      68.275  -1.270  20.356  0.00  0.00    -0.572 OA
ATOM     75  O5A NTO d 869      62.433   2.404   6.575  0.00  0.00    -0.391 OA
ATOM     76  O37 NTO d 869      67.488   9.210  12.051  0.00  0.00    -0.572 OA
ATOM     77  O24 NTO d 869      70.153   2.169  16.243  0.00  0.00    -0.646 OA
ATOM     78  O1H NTO d 869      67.407   8.742  21.127  0.00  0.00    -0.296 OA
ATOM     79  O22 NTO d 869      68.725   3.816  14.633  0.00  0.00    -0.340 OA
ATOM     80  O3D NTO d 869      69.581   0.073  13.225  0.00  0.00    -0.572 OA
ATOM     81  C33 NTO d 869      67.582   6.622  11.221  0.00  0.00     0.067 C 
ATOM     82  S35 NTO d 869      68.724   8.461  12.454  0.00  0.00     0.251 S 
ATOM     83  S3B NTO d 869      68.877   0.883  12.177  0.00  0.00     0.252 S 
ATOM     84  O4C NTO d 869      65.356   5.359   3.401  0.00  0.00    -0.572 OA
ATOM     85  C39 NTO d 869      68.828   2.985  11.107  0.00  0.00     0.108 C 
ATOM     86  O16 NTO d 869      68.332   1.097  20.650  0.00  0.00    -0.254 OA
ATOM     87  O5M NTO d 869      60.898   0.444   2.967  0.00  0.00    -0.364 OA
ATOM     88  O3C NTO d 869      69.006   0.185  10.855  0.00  0.00    -0.572 OA
ATOM     89  C1K NTO d 869      67.296   4.786  19.114  0.00  0.00     0.150 C 
ATOM     90  O32 NTO d 869      68.774   5.372   9.522  0.00  0.00    -0.349 OA
ATOM     91  O34 NTO d 869      68.771   7.207  11.761  0.00  0.00    -0.254 OA
ATOM     92  H   NTO d 869      69.555   2.459   6.684  0.00  0.00     0.231 HD
ATOM     93  H   NTO d 869      64.739   7.763  19.465  0.00  0.00     0.231 HD
ATOM     94  H   NTO d 869      64.960   4.428   7.159  0.00  0.00     0.104 H 
ATOM     95  H   NTO d 869      69.618   6.067  19.794  0.00  0.00     0.089 H 
ATOM     96  H   NTO d 869      59.624   0.890   4.740  0.00  0.00     0.140 HD
ATOM     97  H   NTO d 869      66.823   6.965  18.257  0.00  0.00     0.140 HD
ATOM     98  H   NTO d 869      70.890   4.152   7.880  0.00  0.00     0.231 HD
ATOM     99  H   NTO d 869      59.879  -0.036   1.251  0.00  0.00     0.066 H 
ATOM    100  H   NTO d 869      59.805  -1.235   2.520  0.00  0.00     0.066 H 
ATOM    101  H   NTO d 869      61.272  -1.034   1.593  0.00  0.00     0.066 H 
ATOM    102  H   NTO d 869      69.542   5.262  15.791  0.00  0.00     0.104 H 
ATOM    103  H   NTO d 869      67.399   6.350  16.207  0.00  0.00     0.091 H 
ATOM    104  H   NTO d 869      64.293   0.812   5.594  0.00  0.00     0.091 H 
ATOM    105  H   NTO d 869      65.902   4.756   5.320  0.00  0.00     0.097 H 
ATOM    106  H   NTO d 869      68.317   3.249   6.308  0.00  0.00     0.091 H 
ATOM    107  H   NTO d 869      69.279   1.455   8.999  0.00  0.00     0.140 HD
ATOM    108  H   NTO d 869      66.999   5.252   8.003  0.00  0.00     0.092 H 
ATOM    109  H   NTO d 869      59.402   1.017   8.210  0.00  0.00     0.231 HD
ATOM    110  H   NTO d 869      67.405   3.438  16.961  0.00  0.00     0.092 H 
ATOM    111  H   NTO d 869      65.207  -0.139   2.187  0.00  0.00     0.080 H 
ATOM    112  H   NTO d 869      65.844   1.170   3.165  0.00  0.00     0.080 H 
ATOM    113  H   NTO d 869      67.817   6.048   6.047  0.00  0.00     0.210 HD
ATOM    114  H   NTO d 869      57.624   0.554   6.572  0.00  0.00     0.231 HD
ATOM    115  H   NTO d 869      68.294   5.648  13.848  0.00  0.00     0.133 H 
ATOM    116  H   NTO d 869      66.033   9.403  18.207  0.00  0.00     0.231 HD
ATOM    117  H   NTO d 869      68.446   4.731  22.220  0.00  0.00     0.091 H 
ATOM    118  H   NTO d 869      66.758   6.092  20.740  0.00  0.00     0.076 H 
ATOM    119  H   NTO d 869      69.424   3.427  19.701  0.00  0.00     0.090 H 
ATOM    120  H   NTO d 869      66.025   3.994  14.917  0.00  0.00     0.094 H 
ATOM    121  H   NTO d 869      66.956   4.806  10.245  0.00  0.00     0.090 H 
ATOM    122  H   NTO d 869      70.667   3.685  10.254  0.00  0.00     0.076 H 
ATOM    123  H   NTO d 869      61.056  -1.557   6.470  0.00  0.00     0.231 HD
ATOM    124  H   NTO d 869      61.934  -0.101   6.100  0.00  0.00     0.076 H 
ATOM    125  H   NTO d 869      68.393   7.084  22.163  0.00  0.00     0.210 HD
ATOM    126  H   NTO d 869      61.181  -1.181   4.133  0.00  0.00     0.131 H 
ATOM    127  H   NTO d 869      69.281   4.769  12.153  0.00  0.00     0.091 H 
ATOM    128  H   NTO d 869      66.196   6.746  14.167  0.00  0.00     0.210 HD
ATOM    129  H   NTO d 869      69.603   4.243   8.020  0.00  0.00     0.131 H 
ATOM    130  H   NTO d 869      66.354   1.783   5.256  0.00  0.00     0.133 H 
ATOM    131  H   NTO d 869      68.068   2.394  22.211  0.00  0.00     0.080 H 
ATOM    132  H   NTO d 869      69.735   2.098  21.743  0.00  0.00     0.080 H 
ATOM    133  H   NTO d 869      63.365   1.386   2.810  0.00  0.00     0.090 H 
ATOM    134  H   NTO d 869      72.820   1.288   7.288  0.00  0.00     0.231 HD
ATOM    135  H   NTO d 869      71.013   4.597  20.952  0.00  0.00     0.210 HD
ATOM    136  H   NTO d 869      61.970   2.482   4.569  0.00  0.00     0.089 H 
ATOM    137  H   NTO d 869      65.327   4.601  17.095  0.00  0.00     0.210 HD
ATOM    138  H   NTO d 869      62.823   1.783   7.209  0.00  0.00     0.210 HD
ATOM    139  H   NTO d 869      67.458   7.957  21.695  0.00  0.00     0.231 HD
ATOM    140  H   NTO d 869      66.858   6.524  12.002  0.00  0.00     0.080 H 
ATOM    141  H   NTO d 869      67.219   7.260  10.442  0.00  0.00     0.080 H 
ATOM    142  H   NTO d 869      67.954   2.470  10.766  0.00  0.00     0.092 H 
ATOM    143  H   NTO d 869      66.343   4.766  18.628  0.00  0.00     0.131 H 
ENDROOT
TORSDOF 46
ENDMDL
MODEL 56
REMARK VINA RESULT:      -5.9      4.861     14.367
REMARK  0 active torsions:
REMARK  status: ('A' for Active; 'I' for Inactive)
REMARK       I    between atoms: O3I_1  and  S3H_51 
REMARK       I    between atoms: O1I_2  and  S1G_48 
REMARK       I    between atoms: O54_3  and  C53_28 
REMARK       I    between atoms: O54_3  and  S55_64 
REMARK       I    between atoms: C41_5  and  C43_30 
REMARK       I    between atoms: C1B_6  and  O1C_53 
REMARK       I    between atoms: O4G_7  and  C4F_62 
REMARK       I    between atoms: O4G_7  and  C50_15 
REMARK       I    between atoms: N5G_8  and  C5F_50 
REMARK       I    between atoms: N5G_8  and  S5H_47 
REMARK       I    between atoms: N1F_9  and  C1E_41 
REMARK       I    between atoms: N1F_9  and  S1G_48 
REMARK       I    between atoms: O3K_10  and  S3H_51 
REMARK       I    between atoms: C5N_11  and  O5M_87 
REMARK       I    between atoms: C21_12  and  C23_57 
REMARK       I    between atoms: C26_13  and  O27_73 
REMARK       I    between atoms: C49_16  and  O4A_21 
REMARK       I    between atoms: O2D_17  and  C2C_35 
REMARK       I    between atoms: O2D_17  and  C30_56 
REMARK       I    between atoms: O1L_18  and  C1K_89 
REMARK       I    between atoms: O1L_18  and  C20_27 
REMARK       I    between atoms: C46_20  and  O47_33 
REMARK       I    between atoms: O4A_21  and  S4B_39 
REMARK       I    between atoms: N3G_22  and  C3F_46 
REMARK       I    between atoms: N3G_22  and  S3H_51 
REMARK       I    between atoms: C40_25  and  O3M_29 
REMARK       I    between atoms: O5I_26  and  S5H_47 
REMARK       I    between atoms: C53_28  and  C51_66 
REMARK       I    between atoms: O3M_29  and  C3L_61 
REMARK       I    between atoms: S17_31  and  O16_86 
REMARK       I    between atoms: O5K_34  and  S5H_47 
REMARK       I    between atoms: O1J_37  and  S1G_48 
REMARK       I    between atoms: C12_38  and  O10_70 
REMARK       I    between atoms: C13_42  and  C15_63 
REMARK       I    between atoms: C29_43  and  O2A_60 
REMARK       I    between atoms: C31_45  and  C33_81 
REMARK       I    between atoms: S5H_47  and  O5J_49 
REMARK       I    between atoms: S1G_48  and  O1H_78 
REMARK       I    between atoms: S3H_51  and  O3J_68 
REMARK       I    between atoms: O3A_54  and  C39_85 
REMARK       I    between atoms: O3A_54  and  S3B_83 
REMARK       I    between atoms: C5L_55  and  O5M_87 
REMARK       I    between atoms: C15_63  and  O16_86 
REMARK       I    between atoms: C59_71  and  O5A_75 
REMARK       I    between atoms: C33_81  and  O34_91 
REMARK       I    between atoms: S35_82  and  O34_91 
ROOT
ATOM      1  O3I NTO d 869      70.155   2.561   6.467  0.00  0.00    -0.296 OA
ATOM      2  O1I NTO d 869      65.920   7.559  20.726  0.00  0.00    -0.296 OA
ATOM      3  O54 NTO d 869      65.307   0.878   3.677  0.00  0.00    -0.254 OA
ATOM      4  O18 NTO d 869      66.499  -0.795  21.291  0.00  0.00    -0.572 OA
ATOM      5  C41 NTO d 869      65.667   4.786   7.711  0.00  0.00     0.152 C 
ATOM      6  C1B NTO d 869      69.349   5.217  20.721  0.00  0.00     0.083 C 
ATOM      7  O4G NTO d 869      64.520   4.191   4.738  0.00  0.00    -0.348 OA
ATOM      8  N5G NTO d 869      59.946   2.761   5.480  0.00  0.00    -0.210 NA
ATOM      9  N1F NTO d 869      67.944   6.730  19.410  0.00  0.00    -0.210 NA
ATOM     10  O3K NTO d 869      71.663   3.949   7.815  0.00  0.00    -0.296 OA
ATOM     11  C5N NTO d 869      60.038   1.770   1.750  0.00  0.00     0.007 C 
ATOM     12  C21 NTO d 869      69.336   4.032  15.908  0.00  0.00     0.152 C 
ATOM     13  C26 NTO d 869      67.286   5.299  16.399  0.00  0.00     0.092 C 
ATOM     14  O4E NTO d 869      67.202   6.378   1.946  0.00  0.00    -0.572 OA
ATOM     15  C50 NTO d 869      63.654   3.047   4.723  0.00  0.00     0.095 C 
ATOM     16  C49 NTO d 869      66.638   5.162   5.335  0.00  0.00     0.134 C 
ATOM     17  O2D NTO d 869      67.584   4.449  12.741  0.00  0.00    -0.348 OA
ATOM     18  O1L NTO d 869      68.667   4.337  18.187  0.00  0.00    -0.348 OA
ATOM     19  O19 NTO d 869      68.834  -1.248  21.890  0.00  0.00    -0.572 OA
ATOM     20  C46 NTO d 869      67.759   5.102   6.374  0.00  0.00     0.094 C 
ATOM     21  O4A NTO d 869      67.191   5.204   4.017  0.00  0.00    -0.244 OA
ATOM     22  N3G NTO d 869      70.027   2.370   9.015  0.00  0.00    -0.210 NA
ATOM     23  O36 NTO d 869      69.308   8.191  14.382  0.00  0.00    -0.572 OA
ATOM     24  O57 NTO d 869      67.015   0.549   2.036  0.00  0.00    -0.572 OA
ATOM     25  C40 NTO d 869      67.147   5.137   7.773  0.00  0.00     0.103 C 
ATOM     26  O5I NTO d 869      59.537   1.801   7.808  0.00  0.00    -0.296 OA
ATOM     27  C20 NTO d 869      68.156   4.132  16.863  0.00  0.00     0.103 C 
ATOM     28  C53 NTO d 869      64.892   1.973   2.859  0.00  0.00     0.067 C 
ATOM     29  O3M NTO d 869      67.843   4.178   8.578  0.00  0.00    -0.348 OA
ATOM     30  C43 NTO d 869      65.194   4.470   9.121  0.00  0.00     0.206 C 
ATOM     31  S17 NTO d 869      67.905  -0.869  20.775  0.00  0.00     0.251 S 
ATOM     32  O45 NTO d 869      65.832   3.617   9.779  0.00  0.00    -0.646 OA
ATOM     33  O47 NTO d 869      68.622   6.231   6.206  0.00  0.00    -0.390 OA
ATOM     34  O5K NTO d 869      57.711   1.717   6.172  0.00  0.00    -0.296 OA
ATOM     35  C2C NTO d 869      68.052   4.803  14.053  0.00  0.00     0.160 C 
ATOM     36  O38 NTO d 869      70.630   9.304  12.653  0.00  0.00    -0.572 OA
ATOM     37  O1J NTO d 869      67.366   9.203  19.628  0.00  0.00    -0.296 OA
ATOM     38  C12 NTO d 869      69.415   3.821  21.347  0.00  0.00     0.089 C 
ATOM     39  S4B NTO d 869      66.973   6.487   3.423  0.00  0.00     0.252 S 
ATOM     40  O4D NTO d 869      67.925   7.484   4.015  0.00  0.00    -0.572 OA
ATOM     41  C1E NTO d 869      67.953   5.460  20.147  0.00  0.00     0.081 C 
ATOM     42  C13 NTO d 869      68.917   2.759  20.365  0.00  0.00     0.090 C 
ATOM     43  C29 NTO d 869      66.840   5.043  14.958  0.00  0.00     0.110 C 
ATOM     44  O42 NTO d 869      65.462   3.644   6.861  0.00  0.00    -0.340 OA
ATOM     45  C31 NTO d 869      68.123   5.714  10.770  0.00  0.00     0.091 C 
ATOM     46  C3F NTO d 869      69.801   3.599   9.797  0.00  0.00     0.083 C 
ATOM     47  S5H NTO d 869      59.195   1.610   6.360  0.00  0.00     0.156 S 
ATOM     48  S1G NTO d 869      67.337   7.899  20.368  0.00  0.00     0.156 S 
ATOM     49  O5J NTO d 869      59.644   0.250   5.915  0.00  0.00    -0.296 OA
ATOM     50  C5F NTO d 869      61.301   2.316   5.121  0.00  0.00     0.081 C 
ATOM     51  S3H NTO d 869      70.986   2.614   7.716  0.00  0.00     0.156 S 
ATOM     52  O25 NTO d 869      71.092   3.261  17.316  0.00  0.00    -0.646 OA
ATOM     53  O1C NTO d 869      69.638   6.202  21.716  0.00  0.00    -0.391 OA
ATOM     54  O3A NTO d 869      69.432   2.355  11.851  0.00  0.00    -0.247 OA
ATOM     55  C5L NTO d 869      61.291   1.717   3.714  0.00  0.00     0.149 C 
ATOM     56  C30 NTO d 869      68.592   4.632  11.734  0.00  0.00     0.096 C 
ATOM     57  C23 NTO d 869      70.268   2.947  16.425  0.00  0.00     0.206 C 
ATOM     58  O3E NTO d 869      67.275   1.351  12.193  0.00  0.00    -0.572 OA
ATOM     59  O14 NTO d 869      67.606   3.088  19.878  0.00  0.00    -0.349 OA
ATOM     60  O2A NTO d 869      66.103   6.170  14.483  0.00  0.00    -0.388 OA
ATOM     61  C3L NTO d 869      69.150   4.663   8.915  0.00  0.00     0.150 C 
ATOM     62  C4F NTO d 869      65.722   3.943   5.481  0.00  0.00     0.161 C 
ATOM     63  C15 NTO d 869      68.816   1.420  21.101  0.00  0.00     0.067 C 
ATOM     64  S55 NTO d 869      66.530   0.183   3.407  0.00  0.00     0.251 S 
ATOM     65  O58 NTO d 869      66.279  -1.293   3.475  0.00  0.00    -0.572 OA
ATOM     66  C51 NTO d 869      63.525   2.489   3.313  0.00  0.00     0.091 C 
ATOM     67  O56 NTO d 869      67.571   0.563   4.418  0.00  0.00    -0.572 OA
ATOM     68  O3J NTO d 869      72.039   1.546   7.661  0.00  0.00    -0.296 OA
ATOM     69  O44 NTO d 869      64.189   5.086   9.563  0.00  0.00    -0.646 OA
ATOM     70  O10 NTO d 869      70.775   3.535  21.684  0.00  0.00    -0.390 OA
ATOM     71  C59 NTO d 869      62.273   3.494   5.200  0.00  0.00     0.083 C 
ATOM     72  O52 NTO d 869      62.617   1.376   3.277  0.00  0.00    -0.349 OA
ATOM     73  O27 NTO d 869      66.130   5.409  17.235  0.00  0.00    -0.390 OA
ATOM     74  O1A NTO d 869      67.979  -1.893  19.684  0.00  0.00    -0.572 OA
ATOM     75  O5A NTO d 869      62.385   3.934   6.558  0.00  0.00    -0.391 OA
ATOM     76  O37 NTO d 869      68.184   9.507  12.653  0.00  0.00    -0.572 OA
ATOM     77  O24 NTO d 869      70.154   1.793  15.948  0.00  0.00    -0.646 OA
ATOM     78  O1H NTO d 869      68.163   7.999  21.616  0.00  0.00    -0.296 OA
ATOM     79  O22 NTO d 869      68.885   3.753  14.571  0.00  0.00    -0.340 OA
ATOM     80  O3D NTO d 869      69.331   0.131  12.725  0.00  0.00    -0.572 OA
ATOM     81  C33 NTO d 869      67.999   7.038  11.531  0.00  0.00     0.067 C 
ATOM     82  S35 NTO d 869      69.340   8.595  12.939  0.00  0.00     0.251 S 
ATOM     83  S3B NTO d 869      68.703   1.124  11.793  0.00  0.00     0.252 S 
ATOM     84  O4C NTO d 869      65.560   6.925   3.673  0.00  0.00    -0.572 OA
ATOM     85  C39 NTO d 869      68.859   3.330  10.972  0.00  0.00     0.108 C 
ATOM     86  O16 NTO d 869      68.284   0.407  20.246  0.00  0.00    -0.254 OA
ATOM     87  O5M NTO d 869      60.611   2.572   2.787  0.00  0.00    -0.364 OA
ATOM     88  O3C NTO d 869      68.743   0.576  10.397  0.00  0.00    -0.572 OA
ATOM     89  C1K NTO d 869      67.619   4.335  19.167  0.00  0.00     0.150 C 
ATOM     90  O32 NTO d 869      69.034   5.878   9.671  0.00  0.00    -0.349 OA
ATOM     91  O34 NTO d 869      69.249   7.432  12.105  0.00  0.00    -0.254 OA
ATOM     92  H   NTO d 869      69.475   3.251   6.502  0.00  0.00     0.231 HD
ATOM     93  H   NTO d 869      65.389   7.495  19.916  0.00  0.00     0.231 HD
ATOM     94  H   NTO d 869      65.114   5.609   7.308  0.00  0.00     0.104 H 
ATOM     95  H   NTO d 869      70.069   5.285  19.933  0.00  0.00     0.089 H 
ATOM     96  H   NTO d 869      59.412   2.936   4.629  0.00  0.00     0.140 HD
ATOM     97  H   NTO d 869      67.364   6.636  18.576  0.00  0.00     0.140 HD
ATOM     98  H   NTO d 869      70.992   4.649   7.851  0.00  0.00     0.231 HD
ATOM     99  H   NTO d 869      59.528   2.401   1.052  0.00  0.00     0.066 H 
ATOM    100  H   NTO d 869      59.345   1.076   2.177  0.00  0.00     0.066 H 
ATOM    101  H   NTO d 869      60.814   1.234   1.244  0.00  0.00     0.066 H 
ATOM    102  H   NTO d 869      69.861   4.964  15.867  0.00  0.00     0.104 H 
ATOM    103  H   NTO d 869      67.849   6.207  16.455  0.00  0.00     0.091 H 
ATOM    104  H   NTO d 869      64.058   2.285   5.357  0.00  0.00     0.091 H 
ATOM    105  H   NTO d 869      66.064   6.050   5.497  0.00  0.00     0.097 H 
ATOM    106  H   NTO d 869      68.321   4.201   6.248  0.00  0.00     0.091 H 
ATOM    107  H   NTO d 869      69.124   2.018   8.693  0.00  0.00     0.140 HD
ATOM    108  H   NTO d 869      67.238   6.117   8.192  0.00  0.00     0.092 H 
ATOM    109  H   NTO d 869      59.246   2.681   8.095  0.00  0.00     0.231 HD
ATOM    110  H   NTO d 869      67.561   3.243  16.872  0.00  0.00     0.092 H 
ATOM    111  H   NTO d 869      64.827   1.649   1.842  0.00  0.00     0.080 H 
ATOM    112  H   NTO d 869      65.608   2.764   2.948  0.00  0.00     0.080 H 
ATOM    113  H   NTO d 869      68.111   7.048   6.321  0.00  0.00     0.210 HD
ATOM    114  H   NTO d 869      57.411   2.595   6.458  0.00  0.00     0.231 HD
ATOM    115  H   NTO d 869      68.637   5.697  14.012  0.00  0.00     0.133 H 
ATOM    116  H   NTO d 869      66.830   9.131  18.824  0.00  0.00     0.231 HD
ATOM    117  H   NTO d 869      68.794   3.803  22.218  0.00  0.00     0.091 H 
ATOM    118  H   NTO d 869      67.238   5.491  20.944  0.00  0.00     0.076 H 
ATOM    119  H   NTO d 869      69.601   2.708  19.544  0.00  0.00     0.090 H 
ATOM    120  H   NTO d 869      66.222   4.170  14.938  0.00  0.00     0.094 H 
ATOM    121  H   NTO d 869      67.176   5.420  10.368  0.00  0.00     0.090 H 
ATOM    122  H   NTO d 869      70.751   3.934  10.160  0.00  0.00     0.076 H 
ATOM    123  H   NTO d 869      60.603   0.171   6.033  0.00  0.00     0.231 HD
ATOM    124  H   NTO d 869      61.623   1.565   5.811  0.00  0.00     0.076 H 
ATOM    125  H   NTO d 869      68.984   6.140  22.431  0.00  0.00     0.210 HD
ATOM    126  H   NTO d 869      60.738   0.802   3.752  0.00  0.00     0.131 H 
ATOM    127  H   NTO d 869      69.507   4.925  12.204  0.00  0.00     0.091 H 
ATOM    128  H   NTO d 869      66.668   6.958  14.503  0.00  0.00     0.210 HD
ATOM    129  H   NTO d 869      69.724   4.854   8.032  0.00  0.00     0.131 H 
ATOM    130  H   NTO d 869      66.204   3.075   5.083  0.00  0.00     0.133 H 
ATOM    131  H   NTO d 869      68.175   1.534  21.950  0.00  0.00     0.080 H 
ATOM    132  H   NTO d 869      69.797   1.126  21.412  0.00  0.00     0.080 H 
ATOM    133  H   NTO d 869      63.161   3.270   2.679  0.00  0.00     0.090 H 
ATOM    134  H   NTO d 869      72.608   1.692   6.890  0.00  0.00     0.231 HD
ATOM    135  H   NTO d 869      71.318   3.557  20.882  0.00  0.00     0.210 HD
ATOM    136  H   NTO d 869      61.909   4.290   4.585  0.00  0.00     0.089 H 
ATOM    137  H   NTO d 869      65.616   4.587  17.187  0.00  0.00     0.210 HD
ATOM    138  H   NTO d 869      62.716   3.206   7.106  0.00  0.00     0.210 HD
ATOM    139  H   NTO d 869      68.139   7.152  22.089  0.00  0.00     0.231 HD
ATOM    140  H   NTO d 869      67.278   6.923  12.312  0.00  0.00     0.080 H 
ATOM    141  H   NTO d 869      67.695   7.795  10.838  0.00  0.00     0.080 H 
ATOM    142  H   NTO d 869      67.933   2.950  10.595  0.00  0.00     0.092 H 
ATOM    143  H   NTO d 869      66.663   4.469  18.705  0.00  0.00     0.131 H 
ENDROOT
TORSDOF 46
ENDMDL
MODEL 57
REMARK VINA RESULT:      -5.9      4.628      6.637
REMARK  0 active torsions:
REMARK  status: ('A' for Active; 'I' for Inactive)
REMARK       I    between atoms: O3I_1  and  S3H_51 
REMARK       I    between atoms: O1I_2  and  S1G_48 
REMARK       I    between atoms: O54_3  and  C53_28 
REMARK       I    between atoms: O54_3  and  S55_64 
REMARK       I    between atoms: C41_5  and  C43_30 
REMARK       I    between atoms: C1B_6  and  O1C_53 
REMARK       I    between atoms: O4G_7  and  C4F_62 
REMARK       I    between atoms: O4G_7  and  C50_15 
REMARK       I    between atoms: N5G_8  and  C5F_50 
REMARK       I    between atoms: N5G_8  and  S5H_47 
REMARK       I    between atoms: N1F_9  and  C1E_41 
REMARK       I    between atoms: N1F_9  and  S1G_48 
REMARK       I    between atoms: O3K_10  and  S3H_51 
REMARK       I    between atoms: C5N_11  and  O5M_87 
REMARK       I    between atoms: C21_12  and  C23_57 
REMARK       I    between atoms: C26_13  and  O27_73 
REMARK       I    between atoms: C49_16  and  O4A_21 
REMARK       I    between atoms: O2D_17  and  C2C_35 
REMARK       I    between atoms: O2D_17  and  C30_56 
REMARK       I    between atoms: O1L_18  and  C1K_89 
REMARK       I    between atoms: O1L_18  and  C20_27 
REMARK       I    between atoms: C46_20  and  O47_33 
REMARK       I    between atoms: O4A_21  and  S4B_39 
REMARK       I    between atoms: N3G_22  and  C3F_46 
REMARK       I    between atoms: N3G_22  and  S3H_51 
REMARK       I    between atoms: C40_25  and  O3M_29 
REMARK       I    between atoms: O5I_26  and  S5H_47 
REMARK       I    between atoms: C53_28  and  C51_66 
REMARK       I    between atoms: O3M_29  and  C3L_61 
REMARK       I    between atoms: S17_31  and  O16_86 
REMARK       I    between atoms: O5K_34  and  S5H_47 
REMARK       I    between atoms: O1J_37  and  S1G_48 
REMARK       I    between atoms: C12_38  and  O10_70 
REMARK       I    between atoms: C13_42  and  C15_63 
REMARK       I    between atoms: C29_43  and  O2A_60 
REMARK       I    between atoms: C31_45  and  C33_81 
REMARK       I    between atoms: S5H_47  and  O5J_49 
REMARK       I    between atoms: S1G_48  and  O1H_78 
REMARK       I    between atoms: S3H_51  and  O3J_68 
REMARK       I    between atoms: O3A_54  and  C39_85 
REMARK       I    between atoms: O3A_54  and  S3B_83 
REMARK       I    between atoms: C5L_55  and  O5M_87 
REMARK       I    between atoms: C15_63  and  O16_86 
REMARK       I    between atoms: C59_71  and  O5A_75 
REMARK       I    between atoms: C33_81  and  O34_91 
REMARK       I    between atoms: S35_82  and  O34_91 
ROOT
ATOM      1  O3I NTO d 869      68.196   3.400   6.090  0.00  0.00    -0.296 OA
ATOM      2  O1I NTO d 869      54.564  -4.287   7.237  0.00  0.00    -0.296 OA
ATOM      3  O54 NTO d 869      68.880   6.515  10.984  0.00  0.00    -0.254 OA
ATOM      4  O18 NTO d 869      52.638   3.433   4.568  0.00  0.00    -0.572 OA
ATOM      5  C41 NTO d 869      66.007   1.706  10.447  0.00  0.00     0.152 C 
ATOM      6  C1B NTO d 869      55.239  -2.622   3.493  0.00  0.00     0.083 C 
ATOM      7  O4G NTO d 869      68.272   3.219  12.203  0.00  0.00    -0.348 OA
ATOM      8  N5G NTO d 869      65.823   5.150  15.916  0.00  0.00    -0.210 NA
ATOM      9  N1F NTO d 869      56.284  -3.497   5.524  0.00  0.00    -0.210 NA
ATOM     10  O3K NTO d 869      67.703   1.485   4.639  0.00  0.00    -0.296 OA
ATOM     11  C5N NTO d 869      69.119   7.027  16.637  0.00  0.00     0.007 C 
ATOM     12  C21 NTO d 869      59.466  -0.267   4.568  0.00  0.00     0.152 C 
ATOM     13  C26 NTO d 869      58.586  -1.260   6.638  0.00  0.00     0.092 C 
ATOM     14  O4E NTO d 869      72.148   1.400  11.001  0.00  0.00    -0.572 OA
ATOM     15  C50 NTO d 869      67.786   4.456  12.743  0.00  0.00     0.095 C 
ATOM     16  C49 NTO d 869      68.595   1.791  10.293  0.00  0.00     0.134 C 
ATOM     17  O2D NTO d 869      61.909   0.430   7.180  0.00  0.00    -0.348 OA
ATOM     18  O1L NTO d 869      57.196  -1.027   4.626  0.00  0.00    -0.348 OA
ATOM     19  O19 NTO d 869      52.758   3.326   2.120  0.00  0.00    -0.572 OA
ATOM     20  C46 NTO d 869      67.986   1.398   8.947  0.00  0.00     0.094 C 
ATOM     21  O4A NTO d 869      70.003   1.995  10.157  0.00  0.00    -0.244 OA
ATOM     22  N3G NTO d 869      65.758   2.955   5.454  0.00  0.00    -0.210 NA
ATOM     23  O36 NTO d 869      61.663  -3.838   6.001  0.00  0.00    -0.572 OA
ATOM     24  O57 NTO d 869      70.893   6.963   9.774  0.00  0.00    -0.572 OA
ATOM     25  C40 NTO d 869      66.498   1.111   9.134  0.00  0.00     0.103 C 
ATOM     26  O5I NTO d 869      63.351   5.540  15.422  0.00  0.00    -0.296 OA
ATOM     27  C20 NTO d 869      58.217  -0.410   5.423  0.00  0.00     0.103 C 
ATOM     28  C53 NTO d 869      69.711   5.748  11.857  0.00  0.00     0.067 C 
ATOM     29  O3M NTO d 869      65.796   1.705   8.036  0.00  0.00    -0.348 OA
ATOM     30  C43 NTO d 869      64.486   1.727  10.419  0.00  0.00     0.206 C 
ATOM     31  S17 NTO d 869      53.559   3.402   3.386  0.00  0.00     0.251 S 
ATOM     32  O45 NTO d 869      63.922   2.267   9.440  0.00  0.00    -0.646 OA
ATOM     33  O47 NTO d 869      68.638   0.223   8.457  0.00  0.00    -0.390 OA
ATOM     34  O5K NTO d 869      64.255   6.338  17.557  0.00  0.00    -0.296 OA
ATOM     35  C2C NTO d 869      60.913  -0.318   6.462  0.00  0.00     0.160 C 
ATOM     36  O38 NTO d 869      63.907  -4.677   5.515  0.00  0.00    -0.572 OA
ATOM     37  O1J NTO d 869      56.366  -5.815   6.584  0.00  0.00    -0.296 OA
ATOM     38  C12 NTO d 869      54.415  -1.462   2.927  0.00  0.00     0.089 C 
ATOM     39  S4B NTO d 869      70.727   0.959  10.828  0.00  0.00     0.252 S 
ATOM     40  O4D NTO d 869      70.678  -0.299  10.012  0.00  0.00    -0.572 OA
ATOM     41  C1E NTO d 869      55.362  -2.477   5.010  0.00  0.00     0.081 C 
ATOM     42  C13 NTO d 869      54.960  -0.118   3.414  0.00  0.00     0.090 C 
ATOM     43  C29 NTO d 869      59.726  -0.575   7.394  0.00  0.00     0.110 C 
ATOM     44  O42 NTO d 869      66.509   3.045  10.605  0.00  0.00    -0.340 OA
ATOM     45  C31 NTO d 869      64.151  -0.363   7.527  0.00  0.00     0.091 C 
ATOM     46  C3F NTO d 869      65.195   1.622   5.736  0.00  0.00     0.083 C 
ATOM     47  S5H NTO d 869      64.544   6.146  16.098  0.00  0.00     0.156 S 
ATOM     48  S1G NTO d 869      55.422  -4.755   6.097  0.00  0.00     0.156 S 
ATOM     49  O5J NTO d 869      64.843   7.481  15.484  0.00  0.00    -0.296 OA
ATOM     50  C5F NTO d 869      66.512   5.440  14.650  0.00  0.00     0.081 C 
ATOM     51  S3H NTO d 869      67.321   2.894   4.981  0.00  0.00     0.156 S 
ATOM     52  O25 NTO d 869      58.588  -0.181   2.358  0.00  0.00    -0.646 OA
ATOM     53  O1C NTO d 869      54.600  -3.861   3.179  0.00  0.00    -0.391 OA
ATOM     54  O3A NTO d 869      62.936   2.347   5.214  0.00  0.00    -0.247 OA
ATOM     55  C5L NTO d 869      67.698   6.371  14.910  0.00  0.00     0.149 C 
ATOM     56  C30 NTO d 869      63.205   0.345   6.566  0.00  0.00     0.096 C 
ATOM     57  C23 NTO d 869      59.085   0.481   3.299  0.00  0.00     0.206 C 
ATOM     58  O3E NTO d 869      61.725   3.573   6.889  0.00  0.00    -0.572 OA
ATOM     59  O14 NTO d 869      55.047  -0.091   4.848  0.00  0.00    -0.349 OA
ATOM     60  O2A NTO d 869      60.141  -1.407   8.479  0.00  0.00    -0.388 OA
ATOM     61  C3L NTO d 869      66.003   0.941   6.840  0.00  0.00     0.150 C 
ATOM     62  C4F NTO d 869      67.929   3.067  10.818  0.00  0.00     0.161 C 
ATOM     63  C15 NTO d 869      53.990   0.987   2.986  0.00  0.00     0.067 C 
ATOM     64  S55 NTO d 869      69.396   7.043   9.757  0.00  0.00     0.251 S 
ATOM     65  O58 NTO d 869      68.970   8.474   9.623  0.00  0.00    -0.572 OA
ATOM     66  C51 NTO d 869      68.944   5.367  13.125  0.00  0.00     0.091 C 
ATOM     67  O56 NTO d 869      68.872   6.252   8.596  0.00  0.00    -0.572 OA
ATOM     68  O3J NTO d 869      67.511   3.751   3.764  0.00  0.00    -0.296 OA
ATOM     69  O44 NTO d 869      63.867   1.193  11.377  0.00  0.00    -0.646 OA
ATOM     70  O10 NTO d 869      54.491  -1.500   1.500  0.00  0.00    -0.390 OA
ATOM     71  C59 NTO d 869      66.980   4.137  14.001  0.00  0.00     0.083 C 
ATOM     72  O52 NTO d 869      68.470   6.588  13.717  0.00  0.00    -0.349 OA
ATOM     73  O27 NTO d 869      57.456  -1.386   7.506  0.00  0.00    -0.390 OA
ATOM     74  O1A NTO d 869      54.399   4.643   3.379  0.00  0.00    -0.572 OA
ATOM     75  O5A NTO d 869      65.843   3.355  13.622  0.00  0.00    -0.391 OA
ATOM     76  O37 NTO d 869      63.149  -4.466   7.840  0.00  0.00    -0.572 OA
ATOM     77  O24 NTO d 869      59.269   1.721   3.266  0.00  0.00    -0.646 OA
ATOM     78  O1H NTO d 869      54.555  -5.304   5.004  0.00  0.00    -0.296 OA
ATOM     79  O22 NTO d 869      60.505   0.414   5.294  0.00  0.00    -0.340 OA
ATOM     80  O3D NTO d 869      61.670   4.261   4.539  0.00  0.00    -0.572 OA
ATOM     81  C33 NTO d 869      63.658  -1.797   7.742  0.00  0.00     0.067 C 
ATOM     82  S35 NTO d 869      63.087  -3.860   6.469  0.00  0.00     0.251 S 
ATOM     83  S3B NTO d 869      62.517   3.655   5.618  0.00  0.00     0.252 S 
ATOM     84  O4C NTO d 869      70.118   0.713  12.177  0.00  0.00    -0.572 OA
ATOM     85  C39 NTO d 869      63.749   1.736   6.222  0.00  0.00     0.108 C 
ATOM     86  O16 NTO d 869      54.416   2.259   3.481  0.00  0.00    -0.254 OA
ATOM     87  O5M NTO d 869      68.498   5.904  16.003  0.00  0.00    -0.364 OA
ATOM     88  O3C NTO d 869      63.718   4.526   5.840  0.00  0.00    -0.572 OA
ATOM     89  C1K NTO d 869      55.948  -1.100   5.329  0.00  0.00     0.150 C 
ATOM     90  O32 NTO d 869      65.496  -0.390   7.024  0.00  0.00    -0.349 OA
ATOM     91  O34 NTO d 869      63.608  -2.525   6.512  0.00  0.00    -0.254 OA
ATOM     92  H   NTO d 869      68.074   2.846   6.877  0.00  0.00     0.231 HD
ATOM     93  H   NTO d 869      55.129  -3.933   7.942  0.00  0.00     0.231 HD
ATOM     94  H   NTO d 869      66.356   1.116  11.267  0.00  0.00     0.104 H 
ATOM     95  H   NTO d 869      56.217  -2.606   3.059  0.00  0.00     0.089 H 
ATOM     96  H   NTO d 869      66.471   5.287  16.692  0.00  0.00     0.140 HD
ATOM     97  H   NTO d 869      56.850  -3.100   6.274  0.00  0.00     0.140 HD
ATOM     98  H   NTO d 869      67.585   0.920   5.418  0.00  0.00     0.231 HD
ATOM     99  H   NTO d 869      69.719   6.688  17.455  0.00  0.00     0.066 H 
ATOM    100  H   NTO d 869      68.366   7.694  16.999  0.00  0.00     0.066 H 
ATOM    101  H   NTO d 869      69.737   7.538  15.929  0.00  0.00     0.066 H 
ATOM    102  H   NTO d 869      59.854  -1.231   4.310  0.00  0.00     0.104 H 
ATOM    103  H   NTO d 869      58.890  -2.233   6.313  0.00  0.00     0.091 H 
ATOM    104  H   NTO d 869      67.186   4.954  12.011  0.00  0.00     0.091 H 
ATOM    105  H   NTO d 869      68.427   0.999  10.993  0.00  0.00     0.097 H 
ATOM    106  H   NTO d 869      68.114   2.197   8.246  0.00  0.00     0.091 H 
ATOM    107  H   NTO d 869      65.696   3.522   6.301  0.00  0.00     0.140 HD
ATOM    108  H   NTO d 869      66.327   0.056   9.164  0.00  0.00     0.092 H 
ATOM    109  H   NTO d 869      63.158   4.677  15.819  0.00  0.00     0.231 HD
ATOM    110  H   NTO d 869      57.846   0.534   5.764  0.00  0.00     0.092 H 
ATOM    111  H   NTO d 869      70.570   6.327  12.124  0.00  0.00     0.080 H 
ATOM    112  H   NTO d 869      70.013   4.854  11.352  0.00  0.00     0.080 H 
ATOM    113  H   NTO d 869      68.521  -0.500   9.093  0.00  0.00     0.210 HD
ATOM    114  H   NTO d 869      64.060   5.479  17.964  0.00  0.00     0.231 HD
ATOM    115  H   NTO d 869      61.313  -1.256   6.140  0.00  0.00     0.133 H 
ATOM    116  H   NTO d 869      56.922  -5.452   7.291  0.00  0.00     0.231 HD
ATOM    117  H   NTO d 869      53.403  -1.564   3.258  0.00  0.00     0.091 H 
ATOM    118  H   NTO d 869      54.398  -2.590   5.461  0.00  0.00     0.076 H 
ATOM    119  H   NTO d 869      55.934   0.027   2.995  0.00  0.00     0.090 H 
ATOM    120  H   NTO d 869      59.377   0.364   7.769  0.00  0.00     0.094 H 
ATOM    121  H   NTO d 869      64.158   0.177   8.451  0.00  0.00     0.090 H 
ATOM    122  H   NTO d 869      65.232   1.054   4.830  0.00  0.00     0.076 H 
ATOM    123  H   NTO d 869      65.031   7.368  14.539  0.00  0.00     0.231 HD
ATOM    124  H   NTO d 869      65.835   5.928  13.980  0.00  0.00     0.076 H 
ATOM    125  H   NTO d 869      53.713  -3.876   3.574  0.00  0.00     0.210 HD
ATOM    126  H   NTO d 869      67.308   7.325  15.198  0.00  0.00     0.131 H 
ATOM    127  H   NTO d 869      63.123  -0.205   5.652  0.00  0.00     0.091 H 
ATOM    128  H   NTO d 869      60.456  -2.257   8.133  0.00  0.00     0.210 HD
ATOM    129  H   NTO d 869      67.044   0.889   6.597  0.00  0.00     0.131 H 
ATOM    130  H   NTO d 869      68.289   3.916  10.275  0.00  0.00     0.133 H 
ATOM    131  H   NTO d 869      53.017   0.769   3.374  0.00  0.00     0.080 H 
ATOM    132  H   NTO d 869      53.966   1.027   1.917  0.00  0.00     0.080 H 
ATOM    133  H   NTO d 869      69.561   4.844  13.824  0.00  0.00     0.090 H 
ATOM    134  H   NTO d 869      68.438   3.715   3.484  0.00  0.00     0.231 HD
ATOM    135  H   NTO d 869      55.416  -1.407   1.223  0.00  0.00     0.210 HD
ATOM    136  H   NTO d 869      67.583   3.595  14.700  0.00  0.00     0.089 H 
ATOM    137  H   NTO d 869      57.176  -0.506   7.804  0.00  0.00     0.210 HD
ATOM    138  H   NTO d 869      65.304   3.854  12.989  0.00  0.00     0.210 HD
ATOM    139  H   NTO d 869      53.948  -4.613   4.695  0.00  0.00     0.231 HD
ATOM    140  H   NTO d 869      62.677  -1.767   8.168  0.00  0.00     0.080 H 
ATOM    141  H   NTO d 869      64.344  -2.292   8.397  0.00  0.00     0.080 H 
ATOM    142  H   NTO d 869      63.724   2.347   7.100  0.00  0.00     0.092 H 
ATOM    143  H   NTO d 869      56.090  -0.952   6.379  0.00  0.00     0.131 H 
ENDROOT
TORSDOF 46
ENDMDL
MODEL 58
REMARK VINA RESULT:      -5.9      4.793     14.375
REMARK  0 active torsions:
REMARK  status: ('A' for Active; 'I' for Inactive)
REMARK       I    between atoms: O3I_1  and  S3H_51 
REMARK       I    between atoms: O1I_2  and  S1G_48 
REMARK       I    between atoms: O54_3  and  C53_28 
REMARK       I    between atoms: O54_3  and  S55_64 
REMARK       I    between atoms: C41_5  and  C43_30 
REMARK       I    between atoms: C1B_6  and  O1C_53 
REMARK       I    between atoms: O4G_7  and  C4F_62 
REMARK       I    between atoms: O4G_7  and  C50_15 
REMARK       I    between atoms: N5G_8  and  C5F_50 
REMARK       I    between atoms: N5G_8  and  S5H_47 
REMARK       I    between atoms: N1F_9  and  C1E_41 
REMARK       I    between atoms: N1F_9  and  S1G_48 
REMARK       I    between atoms: O3K_10  and  S3H_51 
REMARK       I    between atoms: C5N_11  and  O5M_87 
REMARK       I    between atoms: C21_12  and  C23_57 
REMARK       I    between atoms: C26_13  and  O27_73 
REMARK       I    between atoms: C49_16  and  O4A_21 
REMARK       I    between atoms: O2D_17  and  C2C_35 
REMARK       I    between atoms: O2D_17  and  C30_56 
REMARK       I    between atoms: O1L_18  and  C1K_89 
REMARK       I    between atoms: O1L_18  and  C20_27 
REMARK       I    between atoms: C46_20  and  O47_33 
REMARK       I    between atoms: O4A_21  and  S4B_39 
REMARK       I    between atoms: N3G_22  and  C3F_46 
REMARK       I    between atoms: N3G_22  and  S3H_51 
REMARK       I    between atoms: C40_25  and  O3M_29 
REMARK       I    between atoms: O5I_26  and  S5H_47 
REMARK       I    between atoms: C53_28  and  C51_66 
REMARK       I    between atoms: O3M_29  and  C3L_61 
REMARK       I    between atoms: S17_31  and  O16_86 
REMARK       I    between atoms: O5K_34  and  S5H_47 
REMARK       I    between atoms: O1J_37  and  S1G_48 
REMARK       I    between atoms: C12_38  and  O10_70 
REMARK       I    between atoms: C13_42  and  C15_63 
REMARK       I    between atoms: C29_43  and  O2A_60 
REMARK       I    between atoms: C31_45  and  C33_81 
REMARK       I    between atoms: S5H_47  and  O5J_49 
REMARK       I    between atoms: S1G_48  and  O1H_78 
REMARK       I    between atoms: S3H_51  and  O3J_68 
REMARK       I    between atoms: O3A_54  and  C39_85 
REMARK       I    between atoms: O3A_54  and  S3B_83 
REMARK       I    between atoms: C5L_55  and  O5M_87 
REMARK       I    between atoms: C15_63  and  O16_86 
REMARK       I    between atoms: C59_71  and  O5A_75 
REMARK       I    between atoms: C33_81  and  O34_91 
REMARK       I    between atoms: S35_82  and  O34_91 
ROOT
ATOM      1  O3I NTO d 869      56.244  -2.615   7.184  0.00  0.00    -0.296 OA
ATOM      2  O1I NTO d 869      71.901  -2.100   8.086  0.00  0.00    -0.296 OA
ATOM      3  O54 NTO d 869      54.284   2.883   7.407  0.00  0.00    -0.254 OA
ATOM      4  O18 NTO d 869      69.123  -1.652  15.993  0.00  0.00    -0.572 OA
ATOM      5  C41 NTO d 869      59.276   1.183   5.444  0.00  0.00     0.152 C 
ATOM      6  C1B NTO d 869      70.189  -5.108  10.379  0.00  0.00     0.083 C 
ATOM      7  O4G NTO d 869      56.670   2.983   4.758  0.00  0.00    -0.348 OA
ATOM      8  N5G NTO d 869      57.898   7.459   6.165  0.00  0.00    -0.210 NA
ATOM      9  N1F NTO d 869      69.924  -3.681   8.411  0.00  0.00    -0.210 NA
ATOM     10  O3K NTO d 869      57.609  -4.539   6.513  0.00  0.00    -0.296 OA
ATOM     11  C5N NTO d 869      54.166   8.266   5.595  0.00  0.00     0.007 C 
ATOM     12  C21 NTO d 869      65.441  -3.950   9.552  0.00  0.00     0.152 C 
ATOM     13  C26 NTO d 869      66.851  -2.234   8.497  0.00  0.00     0.092 C 
ATOM     14  O4E NTO d 869      54.349   0.660   1.760  0.00  0.00    -0.572 OA
ATOM     15  C50 NTO d 869      56.434   3.981   5.763  0.00  0.00     0.095 C 
ATOM     16  C49 NTO d 869      57.058   0.676   4.198  0.00  0.00     0.134 C 
ATOM     17  O2D NTO d 869      63.187  -1.660   7.835  0.00  0.00    -0.348 OA
ATOM     18  O1L NTO d 869      67.755  -3.810  10.149  0.00  0.00    -0.348 OA
ATOM     19  O19 NTO d 869      68.925  -3.977  16.747  0.00  0.00    -0.572 OA
ATOM     20  C46 NTO d 869      57.695  -0.614   4.714  0.00  0.00     0.094 C 
ATOM     21  O4A NTO d 869      55.762   0.405   3.659  0.00  0.00    -0.244 OA
ATOM     22  N3G NTO d 869      58.482  -2.986   8.367  0.00  0.00    -0.210 NA
ATOM     23  O36 NTO d 869      65.648  -4.171   5.132  0.00  0.00    -0.572 OA
ATOM     24  O57 NTO d 869      52.280   1.608   7.131  0.00  0.00    -0.572 OA
ATOM     25  C40 NTO d 869      59.107  -0.312   5.211  0.00  0.00     0.103 C 
ATOM     26  O5I NTO d 869      59.718   7.508   7.952  0.00  0.00    -0.296 OA
ATOM     27  C20 NTO d 869      66.617  -3.015   9.789  0.00  0.00     0.103 C 
ATOM     28  C53 NTO d 869      54.065   3.305   6.060  0.00  0.00     0.067 C 
ATOM     29  O3M NTO d 869      59.298  -1.022   6.441  0.00  0.00    -0.348 OA
ATOM     30  C43 NTO d 869      60.533   1.395   6.273  0.00  0.00     0.206 C 
ATOM     31  S17 NTO d 869      68.295  -2.899  15.916  0.00  0.00     0.251 S 
ATOM     32  O45 NTO d 869      60.646   0.757   7.344  0.00  0.00    -0.646 OA
ATOM     33  O47 NTO d 869      57.761  -1.569   3.650  0.00  0.00    -0.390 OA
ATOM     34  O5K NTO d 869      58.663   9.625   7.300  0.00  0.00    -0.296 OA
ATOM     35  C2C NTO d 869      64.381  -2.430   8.052  0.00  0.00     0.160 C 
ATOM     36  O38 NTO d 869      64.201  -5.249   3.482  0.00  0.00    -0.572 OA
ATOM     37  O1J NTO d 869      71.190  -3.499   6.205  0.00  0.00    -0.296 OA
ATOM     38  C12 NTO d 869      70.208  -5.112  11.910  0.00  0.00     0.089 C 
ATOM     39  S4B NTO d 869      55.766   0.565   2.238  0.00  0.00     0.252 S 
ATOM     40  O4D NTO d 869      56.441  -0.613   1.600  0.00  0.00    -0.572 OA
ATOM     41  C1E NTO d 869      70.104  -3.669   9.868  0.00  0.00     0.081 C 
ATOM     42  C13 NTO d 869      69.049  -4.285  12.472  0.00  0.00     0.090 C 
ATOM     43  C29 NTO d 869      65.573  -1.473   8.140  0.00  0.00     0.110 C 
ATOM     44  O42 NTO d 869      58.135   1.710   6.144  0.00  0.00    -0.340 OA
ATOM     45  C31 NTO d 869      61.770  -1.949   5.915  0.00  0.00     0.091 C 
ATOM     46  C3F NTO d 869      59.699  -3.093   7.540  0.00  0.00     0.083 C 
ATOM     47  S5H NTO d 869      58.433   8.161   7.537  0.00  0.00     0.156 S 
ATOM     48  S1G NTO d 869      71.368  -3.446   7.693  0.00  0.00     0.156 S 
ATOM     49  O5J NTO d 869      57.415   8.001   8.626  0.00  0.00    -0.296 OA
ATOM     50  C5F NTO d 869      57.083   6.278   6.489  0.00  0.00     0.081 C 
ATOM     51  S3H NTO d 869      57.180  -3.683   7.668  0.00  0.00     0.156 S 
ATOM     52  O25 NTO d 869      65.986  -5.838  10.894  0.00  0.00    -0.646 OA
ATOM     53  O1C NTO d 869      71.380  -5.724   9.885  0.00  0.00    -0.391 OA
ATOM     54  O3A NTO d 869      61.157  -2.987   9.481  0.00  0.00    -0.247 OA
ATOM     55  C5L NTO d 869      55.601   6.656   6.479  0.00  0.00     0.149 C 
ATOM     56  C30 NTO d 869      62.112  -2.456   7.310  0.00  0.00     0.096 C 
ATOM     57  C23 NTO d 869      65.270  -4.814  10.792  0.00  0.00     0.206 C 
ATOM     58  O3E NTO d 869      61.605  -0.831  10.443  0.00  0.00    -0.572 OA
ATOM     59  O14 NTO d 869      69.054  -2.959  11.920  0.00  0.00    -0.349 OA
ATOM     60  O2A NTO d 869      65.750  -0.813   6.885  0.00  0.00    -0.388 OA
ATOM     61  C3L NTO d 869      59.467  -2.424   6.187  0.00  0.00     0.150 C 
ATOM     62  C4F NTO d 869      56.951   1.699   5.333  0.00  0.00     0.161 C 
ATOM     63  C15 NTO d 869      69.228  -4.158  13.988  0.00  0.00     0.067 C 
ATOM     64  S55 NTO d 869      53.486   1.847   7.990  0.00  0.00     0.251 S 
ATOM     65  O58 NTO d 869      53.051   2.275   9.359  0.00  0.00    -0.572 OA
ATOM     66  C51 NTO d 869      54.995   4.469   5.709  0.00  0.00     0.091 C 
ATOM     67  O56 NTO d 869      54.282   0.579   8.088  0.00  0.00    -0.572 OA
ATOM     68  O3J NTO d 869      56.476  -4.549   8.671  0.00  0.00    -0.296 OA
ATOM     69  O44 NTO d 869      61.402   2.196   5.841  0.00  0.00    -0.646 OA
ATOM     70  O10 NTO d 869      70.074  -6.461  12.366  0.00  0.00    -0.390 OA
ATOM     71  C59 NTO d 869      57.363   5.161   5.483  0.00  0.00     0.083 C 
ATOM     72  O52 NTO d 869      54.762   5.506   6.675  0.00  0.00    -0.349 OA
ATOM     73  O27 NTO d 869      67.919  -1.300   8.678  0.00  0.00    -0.390 OA
ATOM     74  O1A NTO d 869      66.915  -2.610  16.424  0.00  0.00    -0.572 OA
ATOM     75  O5A NTO d 869      58.715   4.715   5.624  0.00  0.00    -0.391 OA
ATOM     76  O37 NTO d 869      64.867  -2.905   3.190  0.00  0.00    -0.572 OA
ATOM     77  O24 NTO d 869      64.436  -4.450  11.656  0.00  0.00    -0.646 OA
ATOM     78  O1H NTO d 869      72.322  -4.516   8.133  0.00  0.00    -0.296 OA
ATOM     79  O22 NTO d 869      64.248  -3.202   9.257  0.00  0.00    -0.340 OA
ATOM     80  O3D NTO d 869      61.126  -2.769  11.863  0.00  0.00    -0.572 OA
ATOM     81  C33 NTO d 869      62.978  -2.163   4.999  0.00  0.00     0.067 C 
ATOM     82  S35 NTO d 869      64.501  -3.962   4.190  0.00  0.00     0.251 S 
ATOM     83  S3B NTO d 869      60.817  -2.103  10.555  0.00  0.00     0.252 S 
ATOM     84  O4C NTO d 869      56.495   1.825   1.875  0.00  0.00    -0.572 OA
ATOM     85  C39 NTO d 869      60.876  -2.384   8.213  0.00  0.00     0.108 C 
ATOM     86  O16 NTO d 869      68.210  -3.331  14.553  0.00  0.00    -0.254 OA
ATOM     87  O5M NTO d 869      55.258   7.390   5.297  0.00  0.00    -0.364 OA
ATOM     88  O3C NTO d 869      59.353  -1.782  10.504  0.00  0.00    -0.572 OA
ATOM     89  C1K NTO d 869      68.883  -2.994  10.494  0.00  0.00     0.150 C 
ATOM     90  O32 NTO d 869      60.629  -2.630   5.368  0.00  0.00    -0.349 OA
ATOM     91  O34 NTO d 869      63.339  -3.546   4.921  0.00  0.00    -0.254 OA
ATOM     92  H   NTO d 869      56.699  -2.055   6.536  0.00  0.00     0.231 HD
ATOM     93  H   NTO d 869      71.281  -1.411   7.799  0.00  0.00     0.231 HD
ATOM     94  H   NTO d 869      59.359   1.690   4.506  0.00  0.00     0.104 H 
ATOM     95  H   NTO d 869      69.336  -5.654  10.035  0.00  0.00     0.089 H 
ATOM     96  H   NTO d 869      57.332   8.127   5.643  0.00  0.00     0.140 HD
ATOM     97  H   NTO d 869      69.283  -2.936   8.140  0.00  0.00     0.140 HD
ATOM     98  H   NTO d 869      58.066  -3.990   5.857  0.00  0.00     0.231 HD
ATOM     99  H   NTO d 869      53.902   8.819   4.717  0.00  0.00     0.066 H 
ATOM    100  H   NTO d 869      54.454   8.944   6.370  0.00  0.00     0.066 H 
ATOM    101  H   NTO d 869      53.325   7.690   5.920  0.00  0.00     0.066 H 
ATOM    102  H   NTO d 869      65.627  -4.577   8.704  0.00  0.00     0.104 H 
ATOM    103  H   NTO d 869      67.108  -2.914   7.711  0.00  0.00     0.091 H 
ATOM    104  H   NTO d 869      56.617   3.561   6.731  0.00  0.00     0.091 H 
ATOM    105  H   NTO d 869      57.676   1.081   3.423  0.00  0.00     0.097 H 
ATOM    106  H   NTO d 869      57.107  -1.012   5.514  0.00  0.00     0.091 H 
ATOM    107  H   NTO d 869      58.279  -1.998   8.521  0.00  0.00     0.140 HD
ATOM    108  H   NTO d 869      59.828  -0.618   4.484  0.00  0.00     0.092 H 
ATOM    109  H   NTO d 869      60.376   7.612   7.248  0.00  0.00     0.231 HD
ATOM    110  H   NTO d 869      66.434  -2.321  10.582  0.00  0.00     0.092 H 
ATOM    111  H   NTO d 869      53.048   3.621   5.951  0.00  0.00     0.080 H 
ATOM    112  H   NTO d 869      54.269   2.487   5.402  0.00  0.00     0.080 H 
ATOM    113  H   NTO d 869      58.295  -1.207   2.924  0.00  0.00     0.210 HD
ATOM    114  H   NTO d 869      59.322   9.739   6.596  0.00  0.00     0.231 HD
ATOM    115  H   NTO d 869      64.539  -3.110   7.242  0.00  0.00     0.133 H 
ATOM    116  H   NTO d 869      70.572  -2.805   5.928  0.00  0.00     0.231 HD
ATOM    117  H   NTO d 869      71.129  -4.686  12.246  0.00  0.00     0.091 H 
ATOM    118  H   NTO d 869      71.000  -3.144  10.125  0.00  0.00     0.076 H 
ATOM    119  H   NTO d 869      68.130  -4.773  12.222  0.00  0.00     0.090 H 
ATOM    120  H   NTO d 869      65.375  -0.752   8.905  0.00  0.00     0.094 H 
ATOM    121  H   NTO d 869      61.528  -0.909   5.984  0.00  0.00     0.090 H 
ATOM    122  H   NTO d 869      59.921  -4.133   7.419  0.00  0.00     0.076 H 
ATOM    123  H   NTO d 869      57.260   7.057   8.787  0.00  0.00     0.231 HD
ATOM    124  H   NTO d 869      57.339   5.926   7.466  0.00  0.00     0.076 H 
ATOM    125  H   NTO d 869      72.154  -5.229  10.197  0.00  0.00     0.210 HD
ATOM    126  H   NTO d 869      55.424   7.308   7.309  0.00  0.00     0.131 H 
ATOM    127  H   NTO d 869      62.422  -3.479   7.269  0.00  0.00     0.091 H 
ATOM    128  H   NTO d 869      65.929  -1.471   6.196  0.00  0.00     0.210 HD
ATOM    129  H   NTO d 869      58.611  -2.825   5.686  0.00  0.00     0.131 H 
ATOM    130  H   NTO d 869      56.152   1.430   5.991  0.00  0.00     0.133 H 
ATOM    131  H   NTO d 869      70.185  -3.725  14.193  0.00  0.00     0.080 H 
ATOM    132  H   NTO d 869      69.159  -5.133  14.423  0.00  0.00     0.080 H 
ATOM    133  H   NTO d 869      54.809   4.846   4.725  0.00  0.00     0.090 H 
ATOM    134  H   NTO d 869      55.703  -4.962   8.255  0.00  0.00     0.231 HD
ATOM    135  H   NTO d 869      69.233  -6.826  12.050  0.00  0.00     0.210 HD
ATOM    136  H   NTO d 869      57.200   5.533   4.493  0.00  0.00     0.089 H 
ATOM    137  H   NTO d 869      67.691  -0.681   9.390  0.00  0.00     0.210 HD
ATOM    138  H   NTO d 869      58.852   4.380   6.524  0.00  0.00     0.210 HD
ATOM    139  H   NTO d 869      72.432  -4.475   9.097  0.00  0.00     0.231 HD
ATOM    140  H   NTO d 869      63.808  -1.609   5.384  0.00  0.00     0.080 H 
ATOM    141  H   NTO d 869      62.718  -1.829   4.017  0.00  0.00     0.080 H 
ATOM    142  H   NTO d 869      60.619  -1.357   8.371  0.00  0.00     0.092 H 
ATOM    143  H   NTO d 869      68.751  -1.990  10.147  0.00  0.00     0.131 H 
ENDROOT
TORSDOF 46
ENDMDL
MODEL 59
REMARK VINA RESULT:      -5.8      3.489     14.113
REMARK  0 active torsions:
REMARK  status: ('A' for Active; 'I' for Inactive)
REMARK       I    between atoms: O3I_1  and  S3H_51 
REMARK       I    between atoms: O1I_2  and  S1G_48 
REMARK       I    between atoms: O54_3  and  C53_28 
REMARK       I    between atoms: O54_3  and  S55_64 
REMARK       I    between atoms: C41_5  and  C43_30 
REMARK       I    between atoms: C1B_6  and  O1C_53 
REMARK       I    between atoms: O4G_7  and  C4F_62 
REMARK       I    between atoms: O4G_7  and  C50_15 
REMARK       I    between atoms: N5G_8  and  C5F_50 
REMARK       I    between atoms: N5G_8  and  S5H_47 
REMARK       I    between atoms: N1F_9  and  C1E_41 
REMARK       I    between atoms: N1F_9  and  S1G_48 
REMARK       I    between atoms: O3K_10  and  S3H_51 
REMARK       I    between atoms: C5N_11  and  O5M_87 
REMARK       I    between atoms: C21_12  and  C23_57 
REMARK       I    between atoms: C26_13  and  O27_73 
REMARK       I    between atoms: C49_16  and  O4A_21 
REMARK       I    between atoms: O2D_17  and  C2C_35 
REMARK       I    between atoms: O2D_17  and  C30_56 
REMARK       I    between atoms: O1L_18  and  C1K_89 
REMARK       I    between atoms: O1L_18  and  C20_27 
REMARK       I    between atoms: C46_20  and  O47_33 
REMARK       I    between atoms: O4A_21  and  S4B_39 
REMARK       I    between atoms: N3G_22  and  C3F_46 
REMARK       I    between atoms: N3G_22  and  S3H_51 
REMARK       I    between atoms: C40_25  and  O3M_29 
REMARK       I    between atoms: O5I_26  and  S5H_47 
REMARK       I    between atoms: C53_28  and  C51_66 
REMARK       I    between atoms: O3M_29  and  C3L_61 
REMARK       I    between atoms: S17_31  and  O16_86 
REMARK       I    between atoms: O5K_34  and  S5H_47 
REMARK       I    between atoms: O1J_37  and  S1G_48 
REMARK       I    between atoms: C12_38  and  O10_70 
REMARK       I    between atoms: C13_42  and  C15_63 
REMARK       I    between atoms: C29_43  and  O2A_60 
REMARK       I    between atoms: C31_45  and  C33_81 
REMARK       I    between atoms: S5H_47  and  O5J_49 
REMARK       I    between atoms: S1G_48  and  O1H_78 
REMARK       I    between atoms: S3H_51  and  O3J_68 
REMARK       I    between atoms: O3A_54  and  C39_85 
REMARK       I    between atoms: O3A_54  and  S3B_83 
REMARK       I    between atoms: C5L_55  and  O5M_87 
REMARK       I    between atoms: C15_63  and  O16_86 
REMARK       I    between atoms: C59_71  and  O5A_75 
REMARK       I    between atoms: C33_81  and  O34_91 
REMARK       I    between atoms: S35_82  and  O34_91 
ROOT
ATOM      1  O3I NTO d 869      65.988   2.149   5.662  0.00  0.00    -0.296 OA
ATOM      2  O1I NTO d 869      67.333   5.887  20.842  0.00  0.00    -0.296 OA
ATOM      3  O54 NTO d 869      60.291   2.022   4.376  0.00  0.00    -0.254 OA
ATOM      4  O18 NTO d 869      65.870  -2.375  20.625  0.00  0.00    -0.572 OA
ATOM      5  C41 NTO d 869      62.757   5.130   8.367  0.00  0.00     0.152 C 
ATOM      6  C1B NTO d 869      69.899   2.856  19.629  0.00  0.00     0.083 C 
ATOM      7  O4G NTO d 869      60.714   5.240   5.853  0.00  0.00    -0.348 OA
ATOM      8  N5G NTO d 869      56.320   4.789   7.855  0.00  0.00    -0.210 NA
ATOM      9  N1F NTO d 869      68.625   4.818  18.917  0.00  0.00    -0.210 NA
ATOM     10  O3K NTO d 869      68.116   2.954   6.578  0.00  0.00    -0.296 OA
ATOM     11  C5N NTO d 869      55.110   4.347   4.216  0.00  0.00     0.007 C 
ATOM     12  C21 NTO d 869      68.240   2.405  14.980  0.00  0.00     0.152 C 
ATOM     13  C26 NTO d 869      66.807   4.018  16.160  0.00  0.00     0.092 C 
ATOM     14  O4E NTO d 869      62.981   7.141   2.534  0.00  0.00    -0.572 OA
ATOM     15  C50 NTO d 869      59.613   4.335   6.024  0.00  0.00     0.095 C 
ATOM     16  C49 NTO d 869      63.090   5.612   5.840  0.00  0.00     0.134 C 
ATOM     17  O2D NTO d 869      65.845   3.655  12.536  0.00  0.00    -0.348 OA
ATOM     18  O1L NTO d 869      68.336   2.524  17.370  0.00  0.00    -0.348 OA
ATOM     19  O19 NTO d 869      68.080  -3.424  20.449  0.00  0.00    -0.572 OA
ATOM     20  C46 NTO d 869      64.401   5.153   6.481  0.00  0.00     0.094 C 
ATOM     21  O4A NTO d 869      63.245   5.716   4.423  0.00  0.00    -0.244 OA
ATOM     22  N3G NTO d 869      66.529   1.631   8.108  0.00  0.00    -0.210 NA
ATOM     23  O36 NTO d 869      68.863   6.637  13.827  0.00  0.00    -0.572 OA
ATOM     24  O57 NTO d 869      61.328   1.553   2.273  0.00  0.00    -0.572 OA
ATOM     25  C40 NTO d 869      64.234   5.125   7.998  0.00  0.00     0.103 C 
ATOM     26  O5I NTO d 869      56.342   3.625  10.125  0.00  0.00    -0.296 OA
ATOM     27  C20 NTO d 869      67.440   2.631  16.254  0.00  0.00     0.103 C 
ATOM     28  C53 NTO d 869      59.962   3.287   3.802  0.00  0.00     0.067 C 
ATOM     29  O3M NTO d 869      64.854   3.929   8.484  0.00  0.00    -0.348 OA
ATOM     30  C43 NTO d 869      62.630   4.731   9.829  0.00  0.00     0.206 C 
ATOM     31  S17 NTO d 869      67.007  -2.690  19.701  0.00  0.00     0.251 S 
ATOM     32  O45 NTO d 869      63.184   3.671  10.200  0.00  0.00    -0.646 OA
ATOM     33  O47 NTO d 869      65.444   6.070   6.135  0.00  0.00    -0.390 OA
ATOM     34  O5K NTO d 869      54.176   4.190   9.123  0.00  0.00    -0.296 OA
ATOM     35  C2C NTO d 869      66.735   3.702  13.664  0.00  0.00     0.160 C 
ATOM     36  O38 NTO d 869      69.891   7.657  11.858  0.00  0.00    -0.572 OA
ATOM     37  O1J NTO d 869      68.790   7.302  19.472  0.00  0.00    -0.296 OA
ATOM     38  C12 NTO d 869      69.775   1.407  20.107  0.00  0.00     0.089 C 
ATOM     39  S4B NTO d 869      63.209   7.086   4.014  0.00  0.00     0.252 S 
ATOM     40  O4D NTO d 869      64.512   7.748   4.355  0.00  0.00    -0.572 OA
ATOM     41  C1E NTO d 869      68.510   3.488  19.527  0.00  0.00     0.081 C 
ATOM     42  C13 NTO d 869      68.766   0.636  19.253  0.00  0.00     0.090 C 
ATOM     43  C29 NTO d 869      65.927   4.078  14.909  0.00  0.00     0.110 C 
ATOM     44  O42 NTO d 869      62.035   4.197   7.543  0.00  0.00    -0.340 OA
ATOM     45  C31 NTO d 869      66.120   5.033  10.587  0.00  0.00     0.091 C 
ATOM     46  C3F NTO d 869      66.856   2.755   9.004  0.00  0.00     0.083 C 
ATOM     47  S5H NTO d 869      55.574   3.725   8.841  0.00  0.00     0.156 S 
ATOM     48  S1G NTO d 869      68.632   5.946  20.094  0.00  0.00     0.156 S 
ATOM     49  O5J NTO d 869      55.514   2.377   8.188  0.00  0.00    -0.296 OA
ATOM     50  C5F NTO d 869      57.359   4.106   7.071  0.00  0.00     0.081 C 
ATOM     51  S3H NTO d 869      67.118   1.834   6.598  0.00  0.00     0.156 S 
ATOM     52  O25 NTO d 869      70.058   1.064  15.727  0.00  0.00    -0.646 OA
ATOM     53  O1C NTO d 869      70.698   3.598  20.554  0.00  0.00    -0.391 OA
ATOM     54  O3A NTO d 869      66.765   1.346  10.981  0.00  0.00    -0.247 OA
ATOM     55  C5L NTO d 869      56.803   3.732   5.695  0.00  0.00     0.149 C 
ATOM     56  C30 NTO d 869      66.544   3.747  11.284  0.00  0.00     0.096 C 
ATOM     57  C23 NTO d 869      68.967   1.075  15.111  0.00  0.00     0.206 C 
ATOM     58  O3E NTO d 869      64.606   0.817  11.895  0.00  0.00    -0.572 OA
ATOM     59  O14 NTO d 869      67.502   1.319  19.214  0.00  0.00    -0.349 OA
ATOM     60  O2A NTO d 869      65.404   5.399  14.761  0.00  0.00    -0.388 OA
ATOM     61  C3L NTO d 869      66.282   4.053   8.439  0.00  0.00     0.150 C 
ATOM     62  C4F NTO d 869      61.969   4.624   6.174  0.00  0.00     0.161 C 
ATOM     63  C15 NTO d 869      68.532  -0.737  19.890  0.00  0.00     0.067 C 
ATOM     64  S55 NTO d 869      61.168   1.114   3.698  0.00  0.00     0.251 S 
ATOM     65  O58 NTO d 869      60.573  -0.261   3.737  0.00  0.00    -0.572 OA
ATOM     66  C51 NTO d 869      58.957   4.029   4.686  0.00  0.00     0.091 C 
ATOM     67  O56 NTO d 869      62.510   1.101   4.366  0.00  0.00    -0.572 OA
ATOM     68  O3J NTO d 869      67.801   0.576   6.150  0.00  0.00    -0.296 OA
ATOM     69  O44 NTO d 869      61.983   5.489  10.598  0.00  0.00    -0.646 OA
ATOM     70  O10 NTO d 869      71.052   0.776  19.992  0.00  0.00    -0.390 OA
ATOM     71  C59 NTO d 869      58.584   5.011   6.930  0.00  0.00     0.083 C 
ATOM     72  O52 NTO d 869      57.820   3.166   4.852  0.00  0.00    -0.349 OA
ATOM     73  O27 NTO d 869      66.000   4.266  17.314  0.00  0.00    -0.390 OA
ATOM     74  O1A NTO d 869      66.507  -3.537  18.571  0.00  0.00    -0.572 OA
ATOM     75  O5A NTO d 869      59.179   5.215   8.215  0.00  0.00    -0.391 OA
ATOM     76  O37 NTO d 869      67.681   8.405  12.619  0.00  0.00    -0.572 OA
ATOM     77  O24 NTO d 869      68.430   0.056  14.613  0.00  0.00    -0.646 OA
ATOM     78  O1H NTO d 869      69.770   5.677  21.033  0.00  0.00    -0.296 OA
ATOM     79  O22 NTO d 869      67.378   2.428  13.828  0.00  0.00    -0.340 OA
ATOM     80  O3D NTO d 869      66.342  -0.900  11.688  0.00  0.00    -0.572 OA
ATOM     81  C33 NTO d 869      66.560   6.228  11.439  0.00  0.00     0.067 C 
ATOM     82  S35 NTO d 869      68.594   7.224  12.474  0.00  0.00     0.251 S 
ATOM     83  S3B NTO d 869      65.757   0.333  11.064  0.00  0.00     0.252 S 
ATOM     84  O4C NTO d 869      62.085   7.791   4.713  0.00  0.00    -0.572 OA
ATOM     85  C39 NTO d 869      66.243   2.541  10.389  0.00  0.00     0.108 C 
ATOM     86  O16 NTO d 869      67.540  -1.471  19.170  0.00  0.00    -0.254 OA
ATOM     87  O5M NTO d 869      56.137   4.842   5.082  0.00  0.00    -0.364 OA
ATOM     88  O3C NTO d 869      65.264  -0.005   9.689  0.00  0.00    -0.572 OA
ATOM     89  C1K NTO d 869      67.638   2.619  18.620  0.00  0.00     0.150 C 
ATOM     90  O32 NTO d 869      66.699   5.142   9.277  0.00  0.00    -0.349 OA
ATOM     91  O34 NTO d 869      67.977   6.243  11.630  0.00  0.00    -0.254 OA
ATOM     92  H   NTO d 869      65.546   2.963   5.950  0.00  0.00     0.231 HD
ATOM     93  H   NTO d 869      66.600   6.061  20.231  0.00  0.00     0.231 HD
ATOM     94  H   NTO d 869      62.346   6.105   8.210  0.00  0.00     0.104 H 
ATOM     95  H   NTO d 869      70.363   2.872  18.665  0.00  0.00     0.089 H 
ATOM     96  H   NTO d 869      55.634   5.201   7.223  0.00  0.00     0.140 HD
ATOM     97  H   NTO d 869      67.832   4.978  18.296  0.00  0.00     0.140 HD
ATOM     98  H   NTO d 869      67.687   3.775   6.865  0.00  0.00     0.231 HD
ATOM     99  H   NTO d 869      54.606   5.169   3.753  0.00  0.00     0.066 H 
ATOM    100  H   NTO d 869      54.409   3.774   4.785  0.00  0.00     0.066 H 
ATOM    101  H   NTO d 869      55.549   3.726   3.462  0.00  0.00     0.066 H 
ATOM    102  H   NTO d 869      68.955   3.189  14.845  0.00  0.00     0.104 H 
ATOM    103  H   NTO d 869      67.578   4.758  16.104  0.00  0.00     0.091 H 
ATOM    104  H   NTO d 869      59.967   3.420   6.450  0.00  0.00     0.091 H 
ATOM    105  H   NTO d 869      62.833   6.574   6.231  0.00  0.00     0.097 H 
ATOM    106  H   NTO d 869      64.653   4.176   6.127  0.00  0.00     0.091 H 
ATOM    107  H   NTO d 869      65.514   1.542   8.053  0.00  0.00     0.140 HD
ATOM    108  H   NTO d 869      64.688   5.989   8.436  0.00  0.00     0.092 H 
ATOM    109  H   NTO d 869      56.381   4.497  10.547  0.00  0.00     0.231 HD
ATOM    110  H   NTO d 869      66.663   1.907  16.383  0.00  0.00     0.092 H 
ATOM    111  H   NTO d 869      59.535   3.135   2.833  0.00  0.00     0.080 H 
ATOM    112  H   NTO d 869      60.853   3.875   3.722  0.00  0.00     0.080 H 
ATOM    113  H   NTO d 869      65.214   6.956   6.457  0.00  0.00     0.210 HD
ATOM    114  H   NTO d 869      54.204   5.062   9.547  0.00  0.00     0.231 HD
ATOM    115  H   NTO d 869      67.495   4.438  13.507  0.00  0.00     0.133 H 
ATOM    116  H   NTO d 869      68.051   7.467  18.867  0.00  0.00     0.231 HD
ATOM    117  H   NTO d 869      69.438   1.405  21.122  0.00  0.00     0.091 H 
ATOM    118  H   NTO d 869      68.079   3.565  20.504  0.00  0.00     0.076 H 
ATOM    119  H   NTO d 869      69.156   0.550  18.260  0.00  0.00     0.090 H 
ATOM    120  H   NTO d 869      65.125   3.379  15.019  0.00  0.00     0.094 H 
ATOM    121  H   NTO d 869      65.057   5.021  10.474  0.00  0.00     0.090 H 
ATOM    122  H   NTO d 869      67.922   2.811   9.082  0.00  0.00     0.076 H 
ATOM    123  H   NTO d 869      56.413   2.067   8.001  0.00  0.00     0.231 HD
ATOM    124  H   NTO d 869      57.655   3.211   7.575  0.00  0.00     0.076 H 
ATOM    125  H   NTO d 869      70.277   3.584  21.428  0.00  0.00     0.210 HD
ATOM    126  H   NTO d 869      56.066   2.969   5.837  0.00  0.00     0.131 H 
ATOM    127  H   NTO d 869      67.597   3.755  11.472  0.00  0.00     0.091 H 
ATOM    128  H   NTO d 869      66.136   6.027  14.663  0.00  0.00     0.210 HD
ATOM    129  H   NTO d 869      66.616   4.233   7.438  0.00  0.00     0.131 H 
ATOM    130  H   NTO d 869      62.080   3.735   5.589  0.00  0.00     0.133 H 
ATOM    131  H   NTO d 869      68.205  -0.603  20.900  0.00  0.00     0.080 H 
ATOM    132  H   NTO d 869      69.450  -1.286  19.866  0.00  0.00     0.080 H 
ATOM    133  H   NTO d 869      58.646   4.954   4.249  0.00  0.00     0.090 H 
ATOM    134  H   NTO d 869      68.150   0.698   5.254  0.00  0.00     0.231 HD
ATOM    135  H   NTO d 869      71.337   0.789  19.065  0.00  0.00     0.210 HD
ATOM    136  H   NTO d 869      58.281   5.948   6.512  0.00  0.00     0.089 H 
ATOM    137  H   NTO d 869      65.299   3.597  17.369  0.00  0.00     0.210 HD
ATOM    138  H   NTO d 869      59.451   4.361   8.585  0.00  0.00     0.210 HD
ATOM    139  H   NTO d 869      69.660   4.799  21.431  0.00  0.00     0.231 HD
ATOM    140  H   NTO d 869      66.081   6.169  12.393  0.00  0.00     0.080 H 
ATOM    141  H   NTO d 869      66.281   7.125  10.926  0.00  0.00     0.080 H 
ATOM    142  H   NTO d 869      65.182   2.437  10.287  0.00  0.00     0.092 H 
ATOM    143  H   NTO d 869      66.659   3.030  18.482  0.00  0.00     0.131 H 
ENDROOT
TORSDOF 46
ENDMDL
MODEL 60
REMARK VINA RESULT:      -5.8      2.915      4.194
REMARK  0 active torsions:
REMARK  status: ('A' for Active; 'I' for Inactive)
REMARK       I    between atoms: O3I_1  and  S3H_51 
REMARK       I    between atoms: O1I_2  and  S1G_48 
REMARK       I    between atoms: O54_3  and  C53_28 
REMARK       I    between atoms: O54_3  and  S55_64 
REMARK       I    between atoms: C41_5  and  C43_30 
REMARK       I    between atoms: C1B_6  and  O1C_53 
REMARK       I    between atoms: O4G_7  and  C4F_62 
REMARK       I    between atoms: O4G_7  and  C50_15 
REMARK       I    between atoms: N5G_8  and  C5F_50 
REMARK       I    between atoms: N5G_8  and  S5H_47 
REMARK       I    between atoms: N1F_9  and  C1E_41 
REMARK       I    between atoms: N1F_9  and  S1G_48 
REMARK       I    between atoms: O3K_10  and  S3H_51 
REMARK       I    between atoms: C5N_11  and  O5M_87 
REMARK       I    between atoms: C21_12  and  C23_57 
REMARK       I    between atoms: C26_13  and  O27_73 
REMARK       I    between atoms: C49_16  and  O4A_21 
REMARK       I    between atoms: O2D_17  and  C2C_35 
REMARK       I    between atoms: O2D_17  and  C30_56 
REMARK       I    between atoms: O1L_18  and  C1K_89 
REMARK       I    between atoms: O1L_18  and  C20_27 
REMARK       I    between atoms: C46_20  and  O47_33 
REMARK       I    between atoms: O4A_21  and  S4B_39 
REMARK       I    between atoms: N3G_22  and  C3F_46 
REMARK       I    between atoms: N3G_22  and  S3H_51 
REMARK       I    between atoms: C40_25  and  O3M_29 
REMARK       I    between atoms: O5I_26  and  S5H_47 
REMARK       I    between atoms: C53_28  and  C51_66 
REMARK       I    between atoms: O3M_29  and  C3L_61 
REMARK       I    between atoms: S17_31  and  O16_86 
REMARK       I    between atoms: O5K_34  and  S5H_47 
REMARK       I    between atoms: O1J_37  and  S1G_48 
REMARK       I    between atoms: C12_38  and  O10_70 
REMARK       I    between atoms: C13_42  and  C15_63 
REMARK       I    between atoms: C29_43  and  O2A_60 
REMARK       I    between atoms: C31_45  and  C33_81 
REMARK       I    between atoms: S5H_47  and  O5J_49 
REMARK       I    between atoms: S1G_48  and  O1H_78 
REMARK       I    between atoms: S3H_51  and  O3J_68 
REMARK       I    between atoms: O3A_54  and  C39_85 
REMARK       I    between atoms: O3A_54  and  S3B_83 
REMARK       I    between atoms: C5L_55  and  O5M_87 
REMARK       I    between atoms: C15_63  and  O16_86 
REMARK       I    between atoms: C59_71  and  O5A_75 
REMARK       I    between atoms: C33_81  and  O34_91 
REMARK       I    between atoms: S35_82  and  O34_91 
ROOT
ATOM      1  O3I NTO d 869      67.895   5.368   8.041  0.00  0.00    -0.296 OA
ATOM      2  O1I NTO d 869      55.218  -3.805   6.853  0.00  0.00    -0.296 OA
ATOM      3  O54 NTO d 869      69.995   4.778  13.460  0.00  0.00    -0.254 OA
ATOM      4  O18 NTO d 869      52.583   3.315  10.434  0.00  0.00    -0.572 OA
ATOM      5  C41 NTO d 869      67.094   0.930  10.554  0.00  0.00     0.152 C 
ATOM      6  C1B NTO d 869      54.754  -0.069   5.102  0.00  0.00     0.083 C 
ATOM      7  O4G NTO d 869      69.777   1.410  12.308  0.00  0.00    -0.348 OA
ATOM      8  N5G NTO d 869      68.536   0.058  16.796  0.00  0.00    -0.210 NA
ATOM      9  N1F NTO d 869      56.353  -1.799   5.755  0.00  0.00    -0.210 NA
ATOM     10  O3K NTO d 869      66.995   4.739   5.848  0.00  0.00    -0.296 OA
ATOM     11  C5N NTO d 869      71.896   1.664  17.814  0.00  0.00     0.007 C 
ATOM     12  C21 NTO d 869      59.108   1.856   6.481  0.00  0.00     0.152 C 
ATOM     13  C26 NTO d 869      58.880  -0.363   7.516  0.00  0.00     0.092 C 
ATOM     14  O4E NTO d 869      73.125   1.549   9.384  0.00  0.00    -0.572 OA
ATOM     15  C50 NTO d 869      69.472   1.909  13.618  0.00  0.00     0.095 C 
ATOM     16  C49 NTO d 869      69.521   1.595   9.923  0.00  0.00     0.134 C 
ATOM     17  O2D NTO d 869      62.214   1.220   8.276  0.00  0.00    -0.348 OA
ATOM     18  O1L NTO d 869      56.957   0.804   6.530  0.00  0.00    -0.348 OA
ATOM     19  O19 NTO d 869      51.973   4.793   8.574  0.00  0.00    -0.572 OA
ATOM     20  C46 NTO d 869      68.541   2.025   8.830  0.00  0.00     0.094 C 
ATOM     21  O4A NTO d 869      70.826   2.109   9.644  0.00  0.00    -0.244 OA
ATOM     22  N3G NTO d 869      65.378   4.956   7.835  0.00  0.00    -0.210 NA
ATOM     23  O36 NTO d 869      61.633  -1.306   4.677  0.00  0.00    -0.572 OA
ATOM     24  O57 NTO d 869      71.560   6.268  12.435  0.00  0.00    -0.572 OA
ATOM     25  C40 NTO d 869      67.176   1.401   9.108  0.00  0.00     0.103 C 
ATOM     26  O5I NTO d 869      66.028   0.181  17.247  0.00  0.00    -0.296 OA
ATOM     27  C20 NTO d 869      58.168   0.968   7.281  0.00  0.00     0.103 C 
ATOM     28  C53 NTO d 869      71.047   3.815  13.399  0.00  0.00     0.067 C 
ATOM     29  O3M NTO d 869      66.179   2.401   8.864  0.00  0.00    -0.348 OA
ATOM     30  C43 NTO d 869      65.634   0.666  10.886  0.00  0.00     0.206 C 
ATOM     31  S17 NTO d 869      53.113   4.212   9.357  0.00  0.00     0.251 S 
ATOM     32  O45 NTO d 869      64.805   1.578  10.662  0.00  0.00    -0.646 OA
ATOM     33  O47 NTO d 869      69.019   1.574   7.560  0.00  0.00    -0.390 OA
ATOM     34  O5K NTO d 869      67.524  -0.381  19.108  0.00  0.00    -0.296 OA
ATOM     35  C2C NTO d 869      61.051   0.912   7.489  0.00  0.00     0.160 C 
ATOM     36  O38 NTO d 869      63.632  -1.197   3.276  0.00  0.00    -0.572 OA
ATOM     37  O1J NTO d 869      56.746  -4.196   4.979  0.00  0.00    -0.296 OA
ATOM     38  C12 NTO d 869      53.798   1.000   5.639  0.00  0.00     0.089 C 
ATOM     39  S4B NTO d 869      71.716   1.048   9.286  0.00  0.00     0.252 S 
ATOM     40  O4D NTO d 869      71.429   0.602   7.883  0.00  0.00    -0.572 OA
ATOM     41  C1E NTO d 869      55.320  -0.887   6.262  0.00  0.00     0.081 C 
ATOM     42  C13 NTO d 869      54.462   1.814   6.752  0.00  0.00     0.090 C 
ATOM     43  C29 NTO d 869      60.193  -0.099   8.256  0.00  0.00     0.110 C 
ATOM     44  O42 NTO d 869      67.620   1.938  11.435  0.00  0.00    -0.340 OA
ATOM     45  C31 NTO d 869      64.458   0.841   7.505  0.00  0.00     0.091 C 
ATOM     46  C3F NTO d 869      64.924   3.664   7.287  0.00  0.00     0.083 C 
ATOM     47  S5H NTO d 869      67.368   0.446  17.867  0.00  0.00     0.156 S 
ATOM     48  S1G NTO d 869      55.700  -3.275   5.534  0.00  0.00     0.156 S 
ATOM     49  O5J NTO d 869      67.470   1.896  18.235  0.00  0.00    -0.296 OA
ATOM     50  C5F NTO d 869      68.819   1.206  15.922  0.00  0.00     0.081 C 
ATOM     51  S3H NTO d 869      66.730   5.512   7.105  0.00  0.00     0.156 S 
ATOM     52  O25 NTO d 869      57.615   3.137   5.142  0.00  0.00    -0.646 OA
ATOM     53  O1C NTO d 869      54.051  -0.930   4.204  0.00  0.00    -0.391 OA
ATOM     54  O3A NTO d 869      62.611   4.098   7.890  0.00  0.00    -0.247 OA
ATOM     55  C5L NTO d 869      70.028   1.976  16.456  0.00  0.00     0.149 C 
ATOM     56  C30 NTO d 869      63.270   1.793   7.489  0.00  0.00     0.096 C 
ATOM     57  C23 NTO d 869      58.368   3.142   6.144  0.00  0.00     0.206 C 
ATOM     58  O3E NTO d 869      61.950   3.735  10.173  0.00  0.00    -0.572 OA
ATOM     59  O14 NTO d 869      54.969   0.952   7.783  0.00  0.00    -0.349 OA
ATOM     60  O2A NTO d 869      60.911  -1.326   8.398  0.00  0.00    -0.388 OA
ATOM     61  C3L NTO d 869      66.023   2.616   7.455  0.00  0.00     0.150 C 
ATOM     62  C4F NTO d 869      69.039   2.098  11.287  0.00  0.00     0.161 C 
ATOM     63  C15 NTO d 869      53.408   2.727   7.386  0.00  0.00     0.067 C 
ATOM     64  S55 NTO d 869      70.124   6.048  12.809  0.00  0.00     0.251 S 
ATOM     65  O58 NTO d 869      69.677   7.127  13.748  0.00  0.00    -0.572 OA
ATOM     66  C51 NTO d 869      70.690   2.582  14.233  0.00  0.00     0.091 C 
ATOM     67  O56 NTO d 869      69.280   6.077  11.569  0.00  0.00    -0.572 OA
ATOM     68  O3J NTO d 869      66.551   6.958   6.750  0.00  0.00    -0.296 OA
ATOM     69  O44 NTO d 869      65.326  -0.457  11.363  0.00  0.00    -0.646 OA
ATOM     70  O10 NTO d 869      53.448   1.882   4.570  0.00  0.00    -0.390 OA
ATOM     71  C59 NTO d 869      69.075   0.722  14.494  0.00  0.00     0.083 C 
ATOM     72  O52 NTO d 869      70.412   3.038  15.568  0.00  0.00    -0.349 OA
ATOM     73  O27 NTO d 869      58.058  -1.223   8.310  0.00  0.00    -0.390 OA
ATOM     74  O1A NTO d 869      53.913   5.315   9.980  0.00  0.00    -0.572 OA
ATOM     75  O5A NTO d 869      67.877   0.148  13.960  0.00  0.00    -0.391 OA
ATOM     76  O37 NTO d 869      63.597  -2.644   5.258  0.00  0.00    -0.572 OA
ATOM     77  O24 NTO d 869      58.533   4.133   6.894  0.00  0.00    -0.646 OA
ATOM     78  O1H NTO d 869      54.549  -3.172   4.580  0.00  0.00    -0.296 OA
ATOM     79  O22 NTO d 869      60.315   2.116   7.220  0.00  0.00    -0.340 OA
ATOM     80  O3D NTO d 869      61.201   5.717   8.944  0.00  0.00    -0.572 OA
ATOM     81  C33 NTO d 869      64.052  -0.471   6.828  0.00  0.00     0.067 C 
ATOM     82  S35 NTO d 869      63.131  -1.339   4.682  0.00  0.00     0.251 S 
ATOM     83  S3B NTO d 869      62.330   4.749   9.134  0.00  0.00     0.252 S 
ATOM     84  O4C NTO d 869      71.534  -0.103  10.231  0.00  0.00    -0.572 OA
ATOM     85  C39 NTO d 869      63.687   3.163   8.034  0.00  0.00     0.108 C 
ATOM     86  O16 NTO d 869      53.961   3.457   8.483  0.00  0.00    -0.254 OA
ATOM     87  O5M NTO d 869      71.116   1.094  16.758  0.00  0.00    -0.364 OA
ATOM     88  O3C NTO d 869      63.543   5.500   9.599  0.00  0.00    -0.572 OA
ATOM     89  C1K NTO d 869      55.973   0.065   7.265  0.00  0.00     0.150 C 
ATOM     90  O32 NTO d 869      65.594   1.398   6.825  0.00  0.00    -0.349 OA
ATOM     91  O34 NTO d 869      63.640  -0.258   5.474  0.00  0.00    -0.254 OA
ATOM     92  H   NTO d 869      68.011   4.433   8.271  0.00  0.00     0.231 HD
ATOM     93  H   NTO d 869      55.966  -3.870   7.468  0.00  0.00     0.231 HD
ATOM     94  H   NTO d 869      67.672   0.039  10.679  0.00  0.00     0.104 H 
ATOM     95  H   NTO d 869      55.559   0.407   4.581  0.00  0.00     0.089 H 
ATOM     96  H   NTO d 869      69.384  -0.199  17.301  0.00  0.00     0.140 HD
ATOM     97  H   NTO d 869      57.115  -1.860   6.431  0.00  0.00     0.140 HD
ATOM     98  H   NTO d 869      67.114   3.801   6.064  0.00  0.00     0.231 HD
ATOM     99  H   NTO d 869      72.712   1.012  18.047  0.00  0.00     0.066 H 
ATOM    100  H   NTO d 869      71.284   1.792  18.681  0.00  0.00     0.066 H 
ATOM    101  H   NTO d 869      72.277   2.614  17.502  0.00  0.00     0.066 H 
ATOM    102  H   NTO d 869      59.402   1.367   5.575  0.00  0.00     0.104 H 
ATOM    103  H   NTO d 869      59.075  -0.833   6.574  0.00  0.00     0.091 H 
ATOM    104  H   NTO d 869      68.681   2.627  13.551  0.00  0.00     0.091 H 
ATOM    105  H   NTO d 869      69.568   0.526   9.943  0.00  0.00     0.097 H 
ATOM    106  H   NTO d 869      68.455   3.092   8.822  0.00  0.00     0.091 H 
ATOM    107  H   NTO d 869      65.569   4.839   8.830  0.00  0.00     0.140 HD
ATOM    108  H   NTO d 869      67.021   0.554   8.474  0.00  0.00     0.092 H 
ATOM    109  H   NTO d 869      65.962  -0.757  17.009  0.00  0.00     0.231 HD
ATOM    110  H   NTO d 869      57.913   1.393   8.230  0.00  0.00     0.092 H 
ATOM    111  H   NTO d 869      71.947   4.250  13.781  0.00  0.00     0.080 H 
ATOM    112  H   NTO d 869      71.187   3.516  12.381  0.00  0.00     0.080 H 
ATOM    113  H   NTO d 869      69.097   0.607   7.569  0.00  0.00     0.210 HD
ATOM    114  H   NTO d 869      67.458  -1.322  18.880  0.00  0.00     0.231 HD
ATOM    115  H   NTO d 869      61.337   0.485   6.552  0.00  0.00     0.133 H 
ATOM    116  H   NTO d 869      57.487  -4.257   5.602  0.00  0.00     0.231 HD
ATOM    117  H   NTO d 869      52.930   0.518   6.037  0.00  0.00     0.091 H 
ATOM    118  H   NTO d 869      54.533  -1.444   6.726  0.00  0.00     0.076 H 
ATOM    119  H   NTO d 869      55.268   2.376   6.328  0.00  0.00     0.090 H 
ATOM    120  H   NTO d 869      59.970   0.306   9.221  0.00  0.00     0.094 H 
ATOM    121  H   NTO d 869      64.738   0.669   8.523  0.00  0.00     0.090 H 
ATOM    122  H   NTO d 869      64.691   3.812   6.253  0.00  0.00     0.076 H 
ATOM    123  H   NTO d 869      67.371   2.440  17.438  0.00  0.00     0.231 HD
ATOM    124  H   NTO d 869      67.974   1.862  15.910  0.00  0.00     0.076 H 
ATOM    125  H   NTO d 869      53.320  -1.362   4.675  0.00  0.00     0.210 HD
ATOM    126  H   NTO d 869      69.741   2.438  17.377  0.00  0.00     0.131 H 
ATOM    127  H   NTO d 869      62.921   1.936   6.488  0.00  0.00     0.091 H 
ATOM    128  H   NTO d 869      61.110  -1.688   7.520  0.00  0.00     0.210 HD
ATOM    129  H   NTO d 869      66.945   2.932   7.013  0.00  0.00     0.131 H 
ATOM    130  H   NTO d 869      69.222   3.149  11.374  0.00  0.00     0.133 H 
ATOM    131  H   NTO d 869      52.593   2.129   7.739  0.00  0.00     0.080 H 
ATOM    132  H   NTO d 869      53.069   3.422   6.648  0.00  0.00     0.080 H 
ATOM    133  H   NTO d 869      71.488   1.870  14.256  0.00  0.00     0.090 H 
ATOM    134  H   NTO d 869      67.354   7.287   6.317  0.00  0.00     0.231 HD
ATOM    135  H   NTO d 869      54.250   2.306   4.226  0.00  0.00     0.210 HD
ATOM    136  H   NTO d 869      69.858  -0.007  14.507  0.00  0.00     0.089 H 
ATOM    137  H   NTO d 869      57.879  -0.801   9.165  0.00  0.00     0.210 HD
ATOM    138  H   NTO d 869      67.175   0.817  13.952  0.00  0.00     0.210 HD
ATOM    139  H   NTO d 869      53.877  -2.575   4.946  0.00  0.00     0.231 HD
ATOM    140  H   NTO d 869      63.242  -0.907   7.373  0.00  0.00     0.080 H 
ATOM    141  H   NTO d 869      64.902  -1.122   6.821  0.00  0.00     0.080 H 
ATOM    142  H   NTO d 869      63.923   3.068   9.073  0.00  0.00     0.092 H 
ATOM    143  H   NTO d 869      56.419  -0.455   8.087  0.00  0.00     0.131 H 
ENDROOT
TORSDOF 46
ENDMDL
MODEL 61
REMARK VINA RESULT:      -5.8      4.944     14.551
REMARK  0 active torsions:
REMARK  status: ('A' for Active; 'I' for Inactive)
REMARK       I    between atoms: O3I_1  and  S3H_51 
REMARK       I    between atoms: O1I_2  and  S1G_48 
REMARK       I    between atoms: O54_3  and  C53_28 
REMARK       I    between atoms: O54_3  and  S55_64 
REMARK       I    between atoms: C41_5  and  C43_30 
REMARK       I    between atoms: C1B_6  and  O1C_53 
REMARK       I    between atoms: O4G_7  and  C4F_62 
REMARK       I    between atoms: O4G_7  and  C50_15 
REMARK       I    between atoms: N5G_8  and  C5F_50 
REMARK       I    between atoms: N5G_8  and  S5H_47 
REMARK       I    between atoms: N1F_9  and  C1E_41 
REMARK       I    between atoms: N1F_9  and  S1G_48 
REMARK       I    between atoms: O3K_10  and  S3H_51 
REMARK       I    between atoms: C5N_11  and  O5M_87 
REMARK       I    between atoms: C21_12  and  C23_57 
REMARK       I    between atoms: C26_13  and  O27_73 
REMARK       I    between atoms: C49_16  and  O4A_21 
REMARK       I    between atoms: O2D_17  and  C2C_35 
REMARK       I    between atoms: O2D_17  and  C30_56 
REMARK       I    between atoms: O1L_18  and  C1K_89 
REMARK       I    between atoms: O1L_18  and  C20_27 
REMARK       I    between atoms: C46_20  and  O47_33 
REMARK       I    between atoms: O4A_21  and  S4B_39 
REMARK       I    between atoms: N3G_22  and  C3F_46 
REMARK       I    between atoms: N3G_22  and  S3H_51 
REMARK       I    between atoms: C40_25  and  O3M_29 
REMARK       I    between atoms: O5I_26  and  S5H_47 
REMARK       I    between atoms: C53_28  and  C51_66 
REMARK       I    between atoms: O3M_29  and  C3L_61 
REMARK       I    between atoms: S17_31  and  O16_86 
REMARK       I    between atoms: O5K_34  and  S5H_47 
REMARK       I    between atoms: O1J_37  and  S1G_48 
REMARK       I    between atoms: C12_38  and  O10_70 
REMARK       I    between atoms: C13_42  and  C15_63 
REMARK       I    between atoms: C29_43  and  O2A_60 
REMARK       I    between atoms: C31_45  and  C33_81 
REMARK       I    between atoms: S5H_47  and  O5J_49 
REMARK       I    between atoms: S1G_48  and  O1H_78 
REMARK       I    between atoms: S3H_51  and  O3J_68 
REMARK       I    between atoms: O3A_54  and  C39_85 
REMARK       I    between atoms: O3A_54  and  S3B_83 
REMARK       I    between atoms: C5L_55  and  O5M_87 
REMARK       I    between atoms: C15_63  and  O16_86 
REMARK       I    between atoms: C59_71  and  O5A_75 
REMARK       I    between atoms: C33_81  and  O34_91 
REMARK       I    between atoms: S35_82  and  O34_91 
ROOT
ATOM      1  O3I NTO d 869      57.790  -0.638  10.201  0.00  0.00    -0.296 OA
ATOM      2  O1I NTO d 869      71.675   4.174   4.700  0.00  0.00    -0.296 OA
ATOM      3  O54 NTO d 869      53.652   2.503   7.531  0.00  0.00    -0.254 OA
ATOM      4  O18 NTO d 869      69.576   9.618  10.733  0.00  0.00    -0.572 OA
ATOM      5  C41 NTO d 869      58.724   1.203   5.470  0.00  0.00     0.152 C 
ATOM      6  C1B NTO d 869      71.621   3.560   8.806  0.00  0.00     0.083 C 
ATOM      7  O4G NTO d 869      55.551   1.191   4.812  0.00  0.00    -0.348 OA
ATOM      8  N5G NTO d 869      54.806   5.342   2.418  0.00  0.00    -0.210 NA
ATOM      9  N1F NTO d 869      70.615   2.938   6.666  0.00  0.00    -0.210 NA
ATOM     10  O3K NTO d 869      59.802  -2.009  10.489  0.00  0.00    -0.296 OA
ATOM     11  C5N NTO d 869      51.064   4.517   2.891  0.00  0.00     0.007 C 
ATOM     12  C21 NTO d 869      66.797   2.517   9.257  0.00  0.00     0.152 C 
ATOM     13  C26 NTO d 869      67.235   3.160   6.924  0.00  0.00     0.092 C 
ATOM     14  O4E NTO d 869      54.259  -3.050   5.156  0.00  0.00    -0.572 OA
ATOM     15  C50 NTO d 869      54.980   2.503   4.929  0.00  0.00     0.095 C 
ATOM     16  C49 NTO d 869      56.863  -0.578   5.779  0.00  0.00     0.134 C 
ATOM     17  O2D NTO d 869      63.649   2.137   7.462  0.00  0.00    -0.348 OA
ATOM     18  O1L NTO d 869      68.856   3.611   8.713  0.00  0.00    -0.348 OA
ATOM     19  O19 NTO d 869      70.468   8.666  12.810  0.00  0.00    -0.572 OA
ATOM     20  C46 NTO d 869      58.035  -0.852   6.722  0.00  0.00     0.094 C 
ATOM     21  O4A NTO d 869      55.779  -1.462   6.072  0.00  0.00    -0.244 OA
ATOM     22  N3G NTO d 869      60.047   0.549  10.407  0.00  0.00    -0.210 NA
ATOM     23  O36 NTO d 869      66.750  -0.836   6.362  0.00  0.00    -0.572 OA
ATOM     24  O57 NTO d 869      52.390   1.008   8.906  0.00  0.00    -0.572 OA
ATOM     25  C40 NTO d 869      59.207   0.050   6.340  0.00  0.00     0.103 C 
ATOM     26  O5I NTO d 869      56.549   7.137   2.912  0.00  0.00    -0.296 OA
ATOM     27  C20 NTO d 869      67.462   3.566   8.379  0.00  0.00     0.103 C 
ATOM     28  C53 NTO d 869      53.171   1.719   6.437  0.00  0.00     0.067 C 
ATOM     29  O3M NTO d 869      59.780   0.559   7.551  0.00  0.00    -0.348 OA
ATOM     30  C43 NTO d 869      59.821   2.256   5.425  0.00  0.00     0.206 C 
ATOM     31  S17 NTO d 869      69.371   8.576  11.791  0.00  0.00     0.251 S 
ATOM     32  O45 NTO d 869      60.280   2.673   6.513  0.00  0.00    -0.646 OA
ATOM     33  O47 NTO d 869      58.432  -2.221   6.600  0.00  0.00    -0.390 OA
ATOM     34  O5K NTO d 869      54.633   7.728   1.500  0.00  0.00    -0.296 OA
ATOM     35  C2C NTO d 869      65.072   2.106   7.663  0.00  0.00     0.160 C 
ATOM     36  O38 NTO d 869      65.800  -3.085   6.484  0.00  0.00    -0.572 OA
ATOM     37  O1J NTO d 869      71.507   1.731   4.604  0.00  0.00    -0.296 OA
ATOM     38  C12 NTO d 869      71.754   4.693   9.828  0.00  0.00     0.089 C 
ATOM     39  S4B NTO d 869      55.607  -2.411   5.015  0.00  0.00     0.252 S 
ATOM     40  O4D NTO d 869      56.679  -3.457   5.098  0.00  0.00    -0.572 OA
ATOM     41  C1E NTO d 869      70.880   4.065   7.568  0.00  0.00     0.081 C 
ATOM     42  C13 NTO d 869      70.396   5.345  10.098  0.00  0.00     0.090 C 
ATOM     43  C29 NTO d 869      65.730   3.063   6.665  0.00  0.00     0.110 C 
ATOM     44  O42 NTO d 869      57.523   1.772   6.021  0.00  0.00    -0.340 OA
ATOM     45  C31 NTO d 869      62.361   0.192   6.885  0.00  0.00     0.091 C 
ATOM     46  C3F NTO d 869      61.123   0.168   9.474  0.00  0.00     0.083 C 
ATOM     47  S5H NTO d 869      55.082   6.927   2.686  0.00  0.00     0.156 S 
ATOM     48  S1G NTO d 869      71.755   2.908   5.501  0.00  0.00     0.156 S 
ATOM     49  O5J NTO d 869      54.320   7.383   3.895  0.00  0.00    -0.296 OA
ATOM     50  C5F NTO d 869      54.614   4.641   3.696  0.00  0.00     0.081 C 
ATOM     51  S3H NTO d 869      59.131  -0.723  10.869  0.00  0.00     0.156 S 
ATOM     52  O25 NTO d 869      68.208   2.456  11.172  0.00  0.00    -0.646 OA
ATOM     53  O1C NTO d 869      72.921   3.098   8.433  0.00  0.00    -0.391 OA
ATOM     54  O3A NTO d 869      62.529   2.024  10.169  0.00  0.00    -0.247 OA
ATOM     55  C5L NTO d 869      53.119   4.509   3.992  0.00  0.00     0.149 C 
ATOM     56  C30 NTO d 869      62.993   0.988   8.020  0.00  0.00     0.096 C 
ATOM     57  C23 NTO d 869      67.112   2.849  10.708  0.00  0.00     0.206 C 
ATOM     58  O3E NTO d 869      62.063   4.199   9.258  0.00  0.00    -0.572 OA
ATOM     59  O14 NTO d 869      69.781   5.771   8.872  0.00  0.00    -0.349 OA
ATOM     60  O2A NTO d 869      65.508   2.594   5.335  0.00  0.00    -0.388 OA
ATOM     61  C3L NTO d 869      60.523  -0.468   8.221  0.00  0.00     0.150 C 
ATOM     62  C4F NTO d 869      56.406   0.877   5.920  0.00  0.00     0.161 C 
ATOM     63  C15 NTO d 869      70.614   6.588  10.966  0.00  0.00     0.067 C 
ATOM     64  S55 NTO d 869      53.431   2.087   8.883  0.00  0.00     0.251 S 
ATOM     65  O58 NTO d 869      52.956   3.261   9.684  0.00  0.00    -0.572 OA
ATOM     66  C51 NTO d 869      53.471   2.417   5.109  0.00  0.00     0.091 C 
ATOM     67  O56 NTO d 869      54.705   1.558   9.472  0.00  0.00    -0.572 OA
ATOM     68  O3J NTO d 869      58.951  -0.698  12.358  0.00  0.00    -0.296 OA
ATOM     69  O44 NTO d 869      60.219   2.651   4.299  0.00  0.00    -0.646 OA
ATOM     70  O10 NTO d 869      72.255   4.149  11.051  0.00  0.00    -0.390 OA
ATOM     71  C59 NTO d 869      55.277   3.264   3.638  0.00  0.00     0.083 C 
ATOM     72  O52 NTO d 869      52.882   3.726   5.174  0.00  0.00    -0.349 OA
ATOM     73  O27 NTO d 869      67.799   4.142   6.050  0.00  0.00    -0.390 OA
ATOM     74  O1A NTO d 869      68.045   8.796  12.453  0.00  0.00    -0.572 OA
ATOM     75  O5A NTO d 869      56.695   3.418   3.522  0.00  0.00    -0.391 OA
ATOM     76  O37 NTO d 869      65.354  -1.666   4.533  0.00  0.00    -0.572 OA
ATOM     77  O24 NTO d 869      66.270   3.512  11.359  0.00  0.00    -0.646 OA
ATOM     78  O1H NTO d 869      73.109   2.794   6.134  0.00  0.00    -0.296 OA
ATOM     79  O22 NTO d 869      65.379   2.478   9.017  0.00  0.00    -0.340 OA
ATOM     80  O3D NTO d 869      62.583   3.913  11.635  0.00  0.00    -0.572 OA
ATOM     81  C33 NTO d 869      63.470  -0.324   5.963  0.00  0.00     0.067 C 
ATOM     82  S35 NTO d 869      65.560  -1.680   6.019  0.00  0.00     0.251 S 
ATOM     83  S3B NTO d 869      61.919   3.290  10.443  0.00  0.00     0.252 S 
ATOM     84  O4C NTO d 869      55.685  -1.710   3.691  0.00  0.00    -0.572 OA
ATOM     85  C39 NTO d 869      61.920   1.398   9.034  0.00  0.00     0.108 C 
ATOM     86  O16 NTO d 869      69.382   7.277  11.187  0.00  0.00    -0.254 OA
ATOM     87  O5M NTO d 869      52.403   4.012   2.854  0.00  0.00    -0.364 OA
ATOM     88  O3C NTO d 869      60.462   3.097  10.743  0.00  0.00    -0.572 OA
ATOM     89  C1K NTO d 869      69.537   4.655   8.002  0.00  0.00     0.150 C 
ATOM     90  O32 NTO d 869      61.594  -0.918   7.377  0.00  0.00    -0.349 OA
ATOM     91  O34 NTO d 869      64.391  -1.163   6.668  0.00  0.00    -0.254 OA
ATOM     92  H   NTO d 869      57.905  -0.654   9.239  0.00  0.00     0.231 HD
ATOM     93  H   NTO d 869      70.797   4.244   4.292  0.00  0.00     0.231 HD
ATOM     94  H   NTO d 869      58.507   0.848   4.484  0.00  0.00     0.104 H 
ATOM     95  H   NTO d 869      71.068   2.754   9.242  0.00  0.00     0.089 H 
ATOM     96  H   NTO d 869      53.968   5.238   1.846  0.00  0.00     0.140 HD
ATOM     97  H   NTO d 869      69.695   3.050   6.240  0.00  0.00     0.140 HD
ATOM     98  H   NTO d 869      59.925  -2.038   9.526  0.00  0.00     0.231 HD
ATOM     99  H   NTO d 869      50.521   4.151   2.045  0.00  0.00     0.066 H 
ATOM    100  H   NTO d 869      51.085   5.586   2.868  0.00  0.00     0.066 H 
ATOM    101  H   NTO d 869      50.585   4.189   3.791  0.00  0.00     0.066 H 
ATOM    102  H   NTO d 869      67.174   1.543   9.024  0.00  0.00     0.104 H 
ATOM    103  H   NTO d 869      67.703   2.215   6.741  0.00  0.00     0.091 H 
ATOM    104  H   NTO d 869      55.398   2.998   5.780  0.00  0.00     0.091 H 
ATOM    105  H   NTO d 869      57.183  -0.745   4.772  0.00  0.00     0.097 H 
ATOM    106  H   NTO d 869      57.741  -0.654   7.731  0.00  0.00     0.091 H 
ATOM    107  H   NTO d 869      59.445   1.234   9.949  0.00  0.00     0.140 HD
ATOM    108  H   NTO d 869      59.933  -0.504   5.784  0.00  0.00     0.092 H 
ATOM    109  H   NTO d 869      57.042   6.843   2.130  0.00  0.00     0.231 HD
ATOM    110  H   NTO d 869      67.053   4.544   8.531  0.00  0.00     0.092 H 
ATOM    111  H   NTO d 869      52.114   1.589   6.535  0.00  0.00     0.080 H 
ATOM    112  H   NTO d 869      53.661   0.769   6.448  0.00  0.00     0.080 H 
ATOM    113  H   NTO d 869      58.699  -2.400   5.684  0.00  0.00     0.210 HD
ATOM    114  H   NTO d 869      55.121   7.441   0.712  0.00  0.00     0.231 HD
ATOM    115  H   NTO d 869      65.450   1.119   7.500  0.00  0.00     0.133 H 
ATOM    116  H   NTO d 869      70.630   1.813   4.199  0.00  0.00     0.231 HD
ATOM    117  H   NTO d 869      72.420   5.434   9.438  0.00  0.00     0.091 H 
ATOM    118  H   NTO d 869      71.473   4.804   7.071  0.00  0.00     0.076 H 
ATOM    119  H   NTO d 869      69.766   4.629  10.584  0.00  0.00     0.090 H 
ATOM    120  H   NTO d 869      65.295   4.033   6.786  0.00  0.00     0.094 H 
ATOM    121  H   NTO d 869      61.696   0.837   6.350  0.00  0.00     0.090 H 
ATOM    122  H   NTO d 869      61.767  -0.521   9.981  0.00  0.00     0.076 H 
ATOM    123  H   NTO d 869      54.603   6.871   4.668  0.00  0.00     0.231 HD
ATOM    124  H   NTO d 869      55.070   5.203   4.483  0.00  0.00     0.076 H 
ATOM    125  H   NTO d 869      73.423   3.829   8.037  0.00  0.00     0.210 HD
ATOM    126  H   NTO d 869      52.737   5.488   4.193  0.00  0.00     0.131 H 
ATOM    127  H   NTO d 869      63.714   0.390   8.537  0.00  0.00     0.091 H 
ATOM    128  H   NTO d 869      65.904   1.715   5.231  0.00  0.00     0.210 HD
ATOM    129  H   NTO d 869      59.893  -1.299   8.461  0.00  0.00     0.131 H 
ATOM    130  H   NTO d 869      55.855   1.000   6.830  0.00  0.00     0.133 H 
ATOM    131  H   NTO d 869      71.299   7.245  10.471  0.00  0.00     0.080 H 
ATOM    132  H   NTO d 869      71.009   6.280  11.911  0.00  0.00     0.080 H 
ATOM    133  H   NTO d 869      53.067   1.882   4.275  0.00  0.00     0.090 H 
ATOM    134  H   NTO d 869      58.408  -1.454  12.631  0.00  0.00     0.231 HD
ATOM    135  H   NTO d 869      71.637   3.481  11.385  0.00  0.00     0.210 HD
ATOM    136  H   NTO d 869      54.895   2.726   2.796  0.00  0.00     0.089 H 
ATOM    137  H   NTO d 869      67.377   5.001   6.212  0.00  0.00     0.210 HD
ATOM    138  H   NTO d 869      57.031   3.906   4.290  0.00  0.00     0.210 HD
ATOM    139  H   NTO d 869      73.262   3.558   6.712  0.00  0.00     0.231 HD
ATOM    140  H   NTO d 869      64.002   0.511   5.558  0.00  0.00     0.080 H 
ATOM    141  H   NTO d 869      63.018  -0.903   5.185  0.00  0.00     0.080 H 
ATOM    142  H   NTO d 869      61.253   2.097   8.573  0.00  0.00     0.092 H 
ATOM    143  H   NTO d 869      68.955   4.996   7.172  0.00  0.00     0.131 H 
ENDROOT
TORSDOF 46
ENDMDL
MODEL 62
REMARK VINA RESULT:      -5.7      4.611      8.587
REMARK  0 active torsions:
REMARK  status: ('A' for Active; 'I' for Inactive)
REMARK       I    between atoms: O3I_1  and  S3H_51 
REMARK       I    between atoms: O1I_2  and  S1G_48 
REMARK       I    between atoms: O54_3  and  C53_28 
REMARK       I    between atoms: O54_3  and  S55_64 
REMARK       I    between atoms: C41_5  and  C43_30 
REMARK       I    between atoms: C1B_6  and  O1C_53 
REMARK       I    between atoms: O4G_7  and  C4F_62 
REMARK       I    between atoms: O4G_7  and  C50_15 
REMARK       I    between atoms: N5G_8  and  C5F_50 
REMARK       I    between atoms: N5G_8  and  S5H_47 
REMARK       I    between atoms: N1F_9  and  C1E_41 
REMARK       I    between atoms: N1F_9  and  S1G_48 
REMARK       I    between atoms: O3K_10  and  S3H_51 
REMARK       I    between atoms: C5N_11  and  O5M_87 
REMARK       I    between atoms: C21_12  and  C23_57 
REMARK       I    between atoms: C26_13  and  O27_73 
REMARK       I    between atoms: C49_16  and  O4A_21 
REMARK       I    between atoms: O2D_17  and  C2C_35 
REMARK       I    between atoms: O2D_17  and  C30_56 
REMARK       I    between atoms: O1L_18  and  C1K_89 
REMARK       I    between atoms: O1L_18  and  C20_27 
REMARK       I    between atoms: C46_20  and  O47_33 
REMARK       I    between atoms: O4A_21  and  S4B_39 
REMARK       I    between atoms: N3G_22  and  C3F_46 
REMARK       I    between atoms: N3G_22  and  S3H_51 
REMARK       I    between atoms: C40_25  and  O3M_29 
REMARK       I    between atoms: O5I_26  and  S5H_47 
REMARK       I    between atoms: C53_28  and  C51_66 
REMARK       I    between atoms: O3M_29  and  C3L_61 
REMARK       I    between atoms: S17_31  and  O16_86 
REMARK       I    between atoms: O5K_34  and  S5H_47 
REMARK       I    between atoms: O1J_37  and  S1G_48 
REMARK       I    between atoms: C12_38  and  O10_70 
REMARK       I    between atoms: C13_42  and  C15_63 
REMARK       I    between atoms: C29_43  and  O2A_60 
REMARK       I    between atoms: C31_45  and  C33_81 
REMARK       I    between atoms: S5H_47  and  O5J_49 
REMARK       I    between atoms: S1G_48  and  O1H_78 
REMARK       I    between atoms: S3H_51  and  O3J_68 
REMARK       I    between atoms: O3A_54  and  C39_85 
REMARK       I    between atoms: O3A_54  and  S3B_83 
REMARK       I    between atoms: C5L_55  and  O5M_87 
REMARK       I    between atoms: C15_63  and  O16_86 
REMARK       I    between atoms: C59_71  and  O5A_75 
REMARK       I    between atoms: C33_81  and  O34_91 
REMARK       I    between atoms: S35_82  and  O34_91 
ROOT
ATOM      1  O3I NTO d 869      66.849  -4.932  11.179  0.00  0.00    -0.296 OA
ATOM      2  O1I NTO d 869      59.074   8.496   8.838  0.00  0.00    -0.296 OA
ATOM      3  O54 NTO d 869      71.155  -3.837  14.971  0.00  0.00    -0.254 OA
ATOM      4  O18 NTO d 869      65.737   8.773   3.742  0.00  0.00    -0.572 OA
ATOM      5  C41 NTO d 869      66.238  -1.123  14.608  0.00  0.00     0.152 C 
ATOM      6  C1B NTO d 869      59.743   6.319   5.365  0.00  0.00     0.083 C 
ATOM      7  O4G NTO d 869      68.262  -2.610  16.658  0.00  0.00    -0.348 OA
ATOM      8  N5G NTO d 869      70.969   0.974  18.486  0.00  0.00    -0.210 NA
ATOM      9  N1F NTO d 869      59.475   6.201   7.793  0.00  0.00    -0.210 NA
ATOM     10  O3K NTO d 869      64.602  -4.932  10.195  0.00  0.00    -0.296 OA
ATOM     11  C5N NTO d 869      73.125  -1.885  19.929  0.00  0.00     0.007 C 
ATOM     12  C21 NTO d 869      62.496   2.715   7.363  0.00  0.00     0.152 C 
ATOM     13  C26 NTO d 869      62.033   4.389   9.103  0.00  0.00     0.092 C 
ATOM     14  O4E NTO d 869      66.383  -6.534  17.578  0.00  0.00    -0.572 OA
ATOM     15  C50 NTO d 869      69.572  -2.026  16.627  0.00  0.00     0.095 C 
ATOM     16  C49 NTO d 869      66.406  -3.567  15.463  0.00  0.00     0.134 C 
ATOM     17  O2D NTO d 869      63.964   1.446  10.447  0.00  0.00    -0.348 OA
ATOM     18  O1L NTO d 869      61.670   4.868   6.722  0.00  0.00    -0.348 OA
ATOM     19  O19 NTO d 869      65.005   7.716   1.653  0.00  0.00    -0.572 OA
ATOM     20  C46 NTO d 869      65.648  -3.509  14.136  0.00  0.00     0.094 C 
ATOM     21  O4A NTO d 869      66.634  -4.926  15.841  0.00  0.00    -0.244 OA
ATOM     22  N3G NTO d 869      66.138  -2.913   9.778  0.00  0.00    -0.210 NA
ATOM     23  O36 NTO d 869      59.529   1.463  10.406  0.00  0.00    -0.572 OA
ATOM     24  O57 NTO d 869      71.371  -6.185  14.574  0.00  0.00    -0.572 OA
ATOM     25  C40 NTO d 869      65.348  -2.051  13.794  0.00  0.00     0.103 C 
ATOM     26  O5I NTO d 869      71.098   3.030  16.982  0.00  0.00    -0.296 OA
ATOM     27  C20 NTO d 869      62.520   4.204   7.667  0.00  0.00     0.103 C 
ATOM     28  C53 NTO d 869      70.681  -4.216  16.264  0.00  0.00     0.067 C 
ATOM     29  O3M NTO d 869      65.603  -1.868  12.396  0.00  0.00    -0.348 OA
ATOM     30  C43 NTO d 869      66.178   0.263  13.984  0.00  0.00     0.206 C 
ATOM     31  S17 NTO d 869      65.445   7.468   3.065  0.00  0.00     0.251 S 
ATOM     32  O45 NTO d 869      66.418   0.368  12.760  0.00  0.00    -0.646 OA
ATOM     33  O47 NTO d 869      64.419  -4.230  14.260  0.00  0.00    -0.390 OA
ATOM     34  O5K NTO d 869      72.465   2.985  19.018  0.00  0.00    -0.296 OA
ATOM     35  C2C NTO d 869      63.008   2.125   9.615  0.00  0.00     0.160 C 
ATOM     36  O38 NTO d 869      58.702  -0.739  11.069  0.00  0.00    -0.572 OA
ATOM     37  O1J NTO d 869      57.518   6.676   9.358  0.00  0.00    -0.296 OA
ATOM     38  C12 NTO d 869      60.675   6.788   4.245  0.00  0.00     0.089 C 
ATOM     39  S4B NTO d 869      65.844  -5.269  16.983  0.00  0.00     0.252 S 
ATOM     40  O4D NTO d 869      64.417  -5.468  16.566  0.00  0.00    -0.572 OA
ATOM     41  C1E NTO d 869      60.282   6.789   6.717  0.00  0.00     0.081 C 
ATOM     42  C13 NTO d 869      62.125   6.398   4.543  0.00  0.00     0.090 C 
ATOM     43  C29 NTO d 869      62.944   3.595  10.042  0.00  0.00     0.110 C 
ATOM     44  O42 NTO d 869      67.595  -1.602  14.601  0.00  0.00    -0.340 OA
ATOM     45  C31 NTO d 869      63.397  -0.433  11.834  0.00  0.00     0.091 C 
ATOM     46  C3F NTO d 869      64.898  -2.207  10.150  0.00  0.00     0.083 C 
ATOM     47  S5H NTO d 869      71.915   2.162  17.890  0.00  0.00     0.156 S 
ATOM     48  S1G NTO d 869      58.369   7.291   8.286  0.00  0.00     0.156 S 
ATOM     49  O5J NTO d 869      73.058   1.569  17.121  0.00  0.00    -0.296 OA
ATOM     50  C5F NTO d 869      70.954  -0.169  17.561  0.00  0.00     0.081 C 
ATOM     51  S3H NTO d 869      66.031  -4.530   9.986  0.00  0.00     0.156 S 
ATOM     52  O25 NTO d 869      61.965   2.656   5.044  0.00  0.00    -0.646 OA
ATOM     53  O1C NTO d 869      58.435   6.858   5.156  0.00  0.00    -0.391 OA
ATOM     54  O3A NTO d 869      65.352  -0.376   8.618  0.00  0.00    -0.247 OA
ATOM     55  C5L NTO d 869      71.976  -1.213  18.016  0.00  0.00     0.149 C 
ATOM     56  C30 NTO d 869      63.785   0.021  10.433  0.00  0.00     0.096 C 
ATOM     57  C23 NTO d 869      62.871   2.527   5.900  0.00  0.00     0.206 C 
ATOM     58  O3E NTO d 869      66.911   1.317   9.311  0.00  0.00    -0.572 OA
ATOM     59  O14 NTO d 869      62.526   6.876   5.837  0.00  0.00    -0.349 OA
ATOM     60  O2A NTO d 869      62.443   3.685  11.376  0.00  0.00    -0.388 OA
ATOM     61  C3L NTO d 869      64.566  -2.479  11.616  0.00  0.00     0.150 C 
ATOM     62  C4F NTO d 869      67.740  -2.825  15.339  0.00  0.00     0.161 C 
ATOM     63  C15 NTO d 869      63.033   7.058   3.502  0.00  0.00     0.067 C 
ATOM     64  S55 NTO d 869      71.371  -4.821  13.952  0.00  0.00     0.251 S 
ATOM     65  O58 NTO d 869      72.697  -4.565  13.301  0.00  0.00    -0.572 OA
ATOM     66  C51 NTO d 869      70.605  -2.994  17.183  0.00  0.00     0.091 C 
ATOM     67  O56 NTO d 869      70.282  -4.745  12.925  0.00  0.00    -0.572 OA
ATOM     68  O3J NTO d 869      66.552  -5.228   8.765  0.00  0.00    -0.296 OA
ATOM     69  O44 NTO d 869      65.882   1.236  14.726  0.00  0.00    -0.646 OA
ATOM     70  O10 NTO d 869      60.273   6.165   3.023  0.00  0.00    -0.390 OA
ATOM     71  C59 NTO d 869      69.551  -0.776  17.506  0.00  0.00     0.083 C 
ATOM     72  O52 NTO d 869      71.913  -2.400  17.208  0.00  0.00    -0.349 OA
ATOM     73  O27 NTO d 869      62.082   5.773   9.461  0.00  0.00    -0.390 OA
ATOM     74  O1A NTO d 869      66.681   6.620   3.070  0.00  0.00    -0.572 OA
ATOM     75  O5A NTO d 869      68.643   0.167  16.927  0.00  0.00    -0.391 OA
ATOM     76  O37 NTO d 869      59.472   0.851  12.773  0.00  0.00    -0.572 OA
ATOM     77  O24 NTO d 869      64.068   2.272   5.624  0.00  0.00    -0.646 OA
ATOM     78  O1H NTO d 869      57.514   7.695   7.122  0.00  0.00    -0.296 OA
ATOM     79  O22 NTO d 869      63.391   2.003   8.236  0.00  0.00    -0.340 OA
ATOM     80  O3D NTO d 869      66.963   0.412   7.035  0.00  0.00    -0.572 OA
ATOM     81  C33 NTO d 869      62.046   0.188  12.200  0.00  0.00     0.067 C 
ATOM     82  S35 NTO d 869      59.697   0.338  11.382  0.00  0.00     0.251 S 
ATOM     83  S3B NTO d 869      66.699   0.088   8.475  0.00  0.00     0.252 S 
ATOM     84  O4C NTO d 869      65.926  -4.170  18.000  0.00  0.00    -0.572 OA
ATOM     85  C39 NTO d 869      65.063  -0.695   9.984  0.00  0.00     0.108 C 
ATOM     86  O16 NTO d 869      64.408   6.784   3.779  0.00  0.00    -0.254 OA
ATOM     87  O5M NTO d 869      71.847  -1.495  19.415  0.00  0.00    -0.364 OA
ATOM     88  O3C NTO d 869      67.654  -0.979   8.918  0.00  0.00    -0.572 OA
ATOM     89  C1K NTO d 869      61.720   6.294   6.874  0.00  0.00     0.150 C 
ATOM     90  O32 NTO d 869      63.304  -1.863  11.922  0.00  0.00    -0.349 OA
ATOM     91  O34 NTO d 869      61.022  -0.202  11.280  0.00  0.00    -0.254 OA
ATOM     92  H   NTO d 869      66.512  -4.481  11.969  0.00  0.00     0.231 HD
ATOM     93  H   NTO d 869      59.625   8.231   9.591  0.00  0.00     0.231 HD
ATOM     94  H   NTO d 869      65.899  -1.090  15.622  0.00  0.00     0.104 H 
ATOM     95  H   NTO d 869      59.693   5.250   5.359  0.00  0.00     0.089 H 
ATOM     96  H   NTO d 869      71.333   0.673  19.389  0.00  0.00     0.140 HD
ATOM     97  H   NTO d 869      60.080   5.951   8.575  0.00  0.00     0.140 HD
ATOM     98  H   NTO d 869      64.253  -4.486  10.983  0.00  0.00     0.231 HD
ATOM     99  H   NTO d 869      73.039  -2.098  20.974  0.00  0.00     0.066 H 
ATOM    100  H   NTO d 869      73.826  -1.091  19.783  0.00  0.00     0.066 H 
ATOM    101  H   NTO d 869      73.465  -2.759  19.413  0.00  0.00     0.066 H 
ATOM    102  H   NTO d 869      61.518   2.315   7.534  0.00  0.00     0.104 H 
ATOM    103  H   NTO d 869      61.025   4.040   9.185  0.00  0.00     0.091 H 
ATOM    104  H   NTO d 869      69.833  -1.788  15.617  0.00  0.00     0.091 H 
ATOM    105  H   NTO d 869      65.814  -3.093  16.219  0.00  0.00     0.097 H 
ATOM    106  H   NTO d 869      66.243  -3.946  13.362  0.00  0.00     0.091 H 
ATOM    107  H   NTO d 869      66.900  -2.559  10.357  0.00  0.00     0.140 HD
ATOM    108  H   NTO d 869      64.329  -1.820  14.024  0.00  0.00     0.092 H 
ATOM    109  H   NTO d 869      70.359   3.413  17.480  0.00  0.00     0.231 HD
ATOM    110  H   NTO d 869      63.501   4.623   7.581  0.00  0.00     0.092 H 
ATOM    111  H   NTO d 869      71.350  -4.935  16.688  0.00  0.00     0.080 H 
ATOM    112  H   NTO d 869      69.702  -4.638  16.166  0.00  0.00     0.080 H 
ATOM    113  H   NTO d 869      63.880  -3.832  14.962  0.00  0.00     0.210 HD
ATOM    114  H   NTO d 869      71.732   3.373  19.522  0.00  0.00     0.231 HD
ATOM    115  H   NTO d 869      62.039   1.688   9.728  0.00  0.00     0.133 H 
ATOM    116  H   NTO d 869      58.078   6.418  10.107  0.00  0.00     0.231 HD
ATOM    117  H   NTO d 869      60.614   7.854   4.168  0.00  0.00     0.091 H 
ATOM    118  H   NTO d 869      60.243   7.857   6.767  0.00  0.00     0.076 H 
ATOM    119  H   NTO d 869      62.202   5.331   4.516  0.00  0.00     0.090 H 
ATOM    120  H   NTO d 869      63.930   4.007   9.995  0.00  0.00     0.094 H 
ATOM    121  H   NTO d 869      64.157  -0.111  12.515  0.00  0.00     0.090 H 
ATOM    122  H   NTO d 869      64.116  -2.560   9.509  0.00  0.00     0.076 H 
ATOM    123  H   NTO d 869      72.713   1.035  16.390  0.00  0.00     0.231 HD
ATOM    124  H   NTO d 869      71.218   0.163  16.579  0.00  0.00     0.076 H 
ATOM    125  H   NTO d 869      58.480   7.827   5.162  0.00  0.00     0.210 HD
ATOM    126  H   NTO d 869      72.952  -0.799  17.873  0.00  0.00     0.131 H 
ATOM    127  H   NTO d 869      63.014  -0.228   9.734  0.00  0.00     0.091 H 
ATOM    128  H   NTO d 869      61.549   3.310  11.412  0.00  0.00     0.210 HD
ATOM    129  H   NTO d 869      64.502  -3.528  11.821  0.00  0.00     0.131 H 
ATOM    130  H   NTO d 869      68.435  -3.417  14.782  0.00  0.00     0.133 H 
ATOM    131  H   NTO d 869      62.876   8.116   3.519  0.00  0.00     0.080 H 
ATOM    132  H   NTO d 869      62.793   6.662   2.537  0.00  0.00     0.080 H 
ATOM    133  H   NTO d 869      70.312  -3.259  18.177  0.00  0.00     0.090 H 
ATOM    134  H   NTO d 869      66.488  -6.188   8.889  0.00  0.00     0.231 HD
ATOM    135  H   NTO d 869      60.335   5.201   3.116  0.00  0.00     0.210 HD
ATOM    136  H   NTO d 869      69.239  -1.026  18.498  0.00  0.00     0.089 H 
ATOM    137  H   NTO d 869      62.995   6.094   9.389  0.00  0.00     0.210 HD
ATOM    138  H   NTO d 869      68.935   0.387  16.029  0.00  0.00     0.210 HD
ATOM    139  H   NTO d 869      58.071   8.092   6.434  0.00  0.00     0.231 HD
ATOM    140  H   NTO d 869      62.137   1.254  12.186  0.00  0.00     0.080 H 
ATOM    141  H   NTO d 869      61.770  -0.158  13.175  0.00  0.00     0.080 H 
ATOM    142  H   NTO d 869      65.880  -0.366  10.593  0.00  0.00     0.092 H 
ATOM    143  H   NTO d 869      62.143   6.564   7.819  0.00  0.00     0.131 H 
ENDROOT
TORSDOF 46
ENDMDL
MODEL 63
REMARK VINA RESULT:      -5.7      4.343     13.696
REMARK  0 active torsions:
REMARK  status: ('A' for Active; 'I' for Inactive)
REMARK       I    between atoms: O3I_1  and  S3H_51 
REMARK       I    between atoms: O1I_2  and  S1G_48 
REMARK       I    between atoms: O54_3  and  C53_28 
REMARK       I    between atoms: O54_3  and  S55_64 
REMARK       I    between atoms: C41_5  and  C43_30 
REMARK       I    between atoms: C1B_6  and  O1C_53 
REMARK       I    between atoms: O4G_7  and  C4F_62 
REMARK       I    between atoms: O4G_7  and  C50_15 
REMARK       I    between atoms: N5G_8  and  C5F_50 
REMARK       I    between atoms: N5G_8  and  S5H_47 
REMARK       I    between atoms: N1F_9  and  C1E_41 
REMARK       I    between atoms: N1F_9  and  S1G_48 
REMARK       I    between atoms: O3K_10  and  S3H_51 
REMARK       I    between atoms: C5N_11  and  O5M_87 
REMARK       I    between atoms: C21_12  and  C23_57 
REMARK       I    between atoms: C26_13  and  O27_73 
REMARK       I    between atoms: C49_16  and  O4A_21 
REMARK       I    between atoms: O2D_17  and  C2C_35 
REMARK       I    between atoms: O2D_17  and  C30_56 
REMARK       I    between atoms: O1L_18  and  C1K_89 
REMARK       I    between atoms: O1L_18  and  C20_27 
REMARK       I    between atoms: C46_20  and  O47_33 
REMARK       I    between atoms: O4A_21  and  S4B_39 
REMARK       I    between atoms: N3G_22  and  C3F_46 
REMARK       I    between atoms: N3G_22  and  S3H_51 
REMARK       I    between atoms: C40_25  and  O3M_29 
REMARK       I    between atoms: O5I_26  and  S5H_47 
REMARK       I    between atoms: C53_28  and  C51_66 
REMARK       I    between atoms: O3M_29  and  C3L_61 
REMARK       I    between atoms: S17_31  and  O16_86 
REMARK       I    between atoms: O5K_34  and  S5H_47 
REMARK       I    between atoms: O1J_37  and  S1G_48 
REMARK       I    between atoms: C12_38  and  O10_70 
REMARK       I    between atoms: C13_42  and  C15_63 
REMARK       I    between atoms: C29_43  and  O2A_60 
REMARK       I    between atoms: C31_45  and  C33_81 
REMARK       I    between atoms: S5H_47  and  O5J_49 
REMARK       I    between atoms: S1G_48  and  O1H_78 
REMARK       I    between atoms: S3H_51  and  O3J_68 
REMARK       I    between atoms: O3A_54  and  C39_85 
REMARK       I    between atoms: O3A_54  and  S3B_83 
REMARK       I    between atoms: C5L_55  and  O5M_87 
REMARK       I    between atoms: C15_63  and  O16_86 
REMARK       I    between atoms: C59_71  and  O5A_75 
REMARK       I    between atoms: C33_81  and  O34_91 
REMARK       I    between atoms: S35_82  and  O34_91 
ROOT
ATOM      1  O3I NTO d 869      62.726  -4.254   9.118  0.00  0.00    -0.296 OA
ATOM      2  O1I NTO d 869      69.640   9.625  11.524  0.00  0.00    -0.296 OA
ATOM      3  O54 NTO d 869      57.588  -3.239   6.531  0.00  0.00    -0.254 OA
ATOM      4  O18 NTO d 869      64.323   8.559  17.930  0.00  0.00    -0.572 OA
ATOM      5  C41 NTO d 869      62.203  -0.037   6.188  0.00  0.00     0.152 C 
ATOM      6  C1B NTO d 869      69.975   7.008  14.730  0.00  0.00     0.083 C 
ATOM      7  O4G NTO d 869      59.900  -1.505   4.442  0.00  0.00    -0.348 OA
ATOM      8  N5G NTO d 869      56.547   1.928   3.746  0.00  0.00    -0.210 NA
ATOM      9  N1F NTO d 869      69.689   7.196  12.309  0.00  0.00    -0.210 NA
ATOM     10  O3K NTO d 869      65.129  -4.108   9.583  0.00  0.00    -0.296 OA
ATOM     11  C5N NTO d 869      54.374  -0.977   2.429  0.00  0.00     0.007 C 
ATOM     12  C21 NTO d 869      67.159   3.360  12.905  0.00  0.00     0.152 C 
ATOM     13  C26 NTO d 869      67.065   5.262  11.349  0.00  0.00     0.092 C 
ATOM     14  O4E NTO d 869      61.850  -5.059   2.612  0.00  0.00    -0.572 OA
ATOM     15  C50 NTO d 869      58.586  -1.082   4.834  0.00  0.00     0.095 C 
ATOM     16  C49 NTO d 869      62.056  -2.371   5.065  0.00  0.00     0.134 C 
ATOM     17  O2D NTO d 869      65.140   2.288  10.068  0.00  0.00    -0.348 OA
ATOM     18  O1L NTO d 869      67.922   5.508  13.638  0.00  0.00    -0.348 OA
ATOM     19  O19 NTO d 869      65.602   7.364  19.647  0.00  0.00    -0.572 OA
ATOM     20  C46 NTO d 869      63.090  -2.377   6.193  0.00  0.00     0.094 C 
ATOM     21  O4A NTO d 869      61.865  -3.697   4.565  0.00  0.00    -0.244 OA
ATOM     22  N3G NTO d 869      63.561  -2.338  10.593  0.00  0.00    -0.210 NA
ATOM     23  O36 NTO d 869      69.447   2.809   9.151  0.00  0.00    -0.572 OA
ATOM     24  O57 NTO d 869      57.672  -5.626   6.643  0.00  0.00    -0.572 OA
ATOM     25  C40 NTO d 869      63.333  -0.943   6.656  0.00  0.00     0.103 C 
ATOM     26  O5I NTO d 869      56.589   3.773   5.508  0.00  0.00    -0.296 OA
ATOM     27  C20 NTO d 869      66.938   4.862  12.818  0.00  0.00     0.103 C 
ATOM     28  C53 NTO d 869      57.784  -3.412   5.127  0.00  0.00     0.067 C 
ATOM     29  O3M NTO d 869      63.391  -0.950   8.088  0.00  0.00    -0.348 OA
ATOM     30  C43 NTO d 869      62.285   1.267   6.966  0.00  0.00     0.206 C 
ATOM     31  S17 NTO d 869      64.874   7.228  18.343  0.00  0.00     0.251 S 
ATOM     32  O45 NTO d 869      62.323   1.205   8.216  0.00  0.00    -0.646 OA
ATOM     33  O47 NTO d 869      64.316  -2.934   5.709  0.00  0.00    -0.390 OA
ATOM     34  O5K NTO d 869      54.801   3.802   3.829  0.00  0.00    -0.296 OA
ATOM     35  C2C NTO d 869      66.198   2.975  10.758  0.00  0.00     0.160 C 
ATOM     36  O38 NTO d 869      70.288   0.806   8.031  0.00  0.00    -0.572 OA
ATOM     37  O1J NTO d 869      71.187   8.066  10.437  0.00  0.00    -0.296 OA
ATOM     38  C12 NTO d 869      69.287   7.237  16.079  0.00  0.00     0.089 C 
ATOM     39  S4B NTO d 869      62.400  -3.816   3.243  0.00  0.00     0.252 S 
ATOM     40  O4D NTO d 869      63.896  -3.896   3.310  0.00  0.00    -0.572 OA
ATOM     41  C1E NTO d 869      69.102   7.562  13.604  0.00  0.00     0.081 C 
ATOM     42  C13 NTO d 869      67.847   6.720  16.051  0.00  0.00     0.090 C 
ATOM     43  C29 NTO d 869      66.035   4.480  10.531  0.00  0.00     0.110 C 
ATOM     44  O42 NTO d 869      60.931  -0.666   6.423  0.00  0.00    -0.340 OA
ATOM     45  C31 NTO d 869      65.534   0.656   8.349  0.00  0.00     0.091 C 
ATOM     46  C3F NTO d 869      64.618  -1.457  10.061  0.00  0.00     0.083 C 
ATOM     47  S5H NTO d 869      55.663   2.925   4.688  0.00  0.00     0.156 S 
ATOM     48  S1G NTO d 869      70.554   8.455  11.741  0.00  0.00     0.156 S 
ATOM     49  O5J NTO d 869      54.783   2.122   5.599  0.00  0.00    -0.296 OA
ATOM     50  C5F NTO d 869      56.872   0.697   4.482  0.00  0.00     0.081 C 
ATOM     51  S3H NTO d 869      63.757  -3.898  10.149  0.00  0.00     0.156 S 
ATOM     52  O25 NTO d 869      68.211   3.101  15.024  0.00  0.00    -0.646 OA
ATOM     53  O1C NTO d 869      71.244   7.665  14.723  0.00  0.00    -0.391 OA
ATOM     54  O3A NTO d 869      64.369   0.124  11.889  0.00  0.00    -0.247 OA
ATOM     55  C5L NTO d 869      55.867  -0.399   4.122  0.00  0.00     0.149 C 
ATOM     56  C30 NTO d 869      65.439   0.901   9.850  0.00  0.00     0.096 C 
ATOM     57  C23 NTO d 869      67.147   2.967  14.374  0.00  0.00     0.206 C 
ATOM     58  O3E NTO d 869      62.553   1.695  11.786  0.00  0.00    -0.572 OA
ATOM     59  O14 NTO d 869      67.120   7.291  14.952  0.00  0.00    -0.349 OA
ATOM     60  O2A NTO d 869      66.208   4.777   9.145  0.00  0.00    -0.388 OA
ATOM     61  C3L NTO d 869      64.627  -1.522   8.535  0.00  0.00     0.150 C 
ATOM     62  C4F NTO d 869      60.727  -1.807   5.575  0.00  0.00     0.161 C 
ATOM     63  C15 NTO d 869      67.148   7.149  17.344  0.00  0.00     0.067 C 
ATOM     64  S55 NTO d 869      57.696  -4.349   7.430  0.00  0.00     0.251 S 
ATOM     65  O58 NTO d 869      56.538  -4.323   8.381  0.00  0.00    -0.572 OA
ATOM     66  C51 NTO d 869      57.541  -2.094   4.389  0.00  0.00     0.091 C 
ATOM     67  O56 NTO d 869      58.981  -4.265   8.198  0.00  0.00    -0.572 OA
ATOM     68  O3J NTO d 869      63.592  -4.786  11.347  0.00  0.00    -0.296 OA
ATOM     69  O44 NTO d 869      62.318   2.345   6.317  0.00  0.00    -0.646 OA
ATOM     70  O10 NTO d 869      70.011   6.530  17.088  0.00  0.00    -0.390 OA
ATOM     71  C59 NTO d 869      58.298   0.253   4.150  0.00  0.00     0.083 C 
ATOM     72  O52 NTO d 869      56.216  -1.654   4.728  0.00  0.00    -0.349 OA
ATOM     73  O27 NTO d 869      66.816   6.663  11.202  0.00  0.00    -0.390 OA
ATOM     74  O1A NTO d 869      63.748   6.250  18.491  0.00  0.00    -0.572 OA
ATOM     75  O5A NTO d 869      59.229   1.223   4.641  0.00  0.00    -0.391 OA
ATOM     76  O37 NTO d 869      69.014   2.479   6.767  0.00  0.00    -0.572 OA
ATOM     77  O24 NTO d 869      66.072   2.546  14.865  0.00  0.00    -0.646 OA
ATOM     78  O1H NTO d 869      71.615   8.819  12.737  0.00  0.00    -0.296 OA
ATOM     79  O22 NTO d 869      66.153   2.654  12.158  0.00  0.00    -0.340 OA
ATOM     80  O3D NTO d 869      63.102   0.539  13.875  0.00  0.00    -0.572 OA
ATOM     81  C33 NTO d 869      66.707   1.465   7.788  0.00  0.00     0.067 C 
ATOM     82  S35 NTO d 869      69.158   1.789   8.091  0.00  0.00     0.251 S 
ATOM     83  S3B NTO d 869      63.056   0.412  12.381  0.00  0.00     0.252 S 
ATOM     84  O4C NTO d 869      61.992  -2.625   2.427  0.00  0.00    -0.572 OA
ATOM     85  C39 NTO d 869      64.364  -0.003  10.462  0.00  0.00     0.108 C 
ATOM     86  O16 NTO d 869      65.775   6.753  17.336  0.00  0.00    -0.254 OA
ATOM     87  O5M NTO d 869      55.696  -0.504   2.703  0.00  0.00    -0.364 OA
ATOM     88  O3C NTO d 869      62.121  -0.701  12.015  0.00  0.00    -0.572 OA
ATOM     89  C1K NTO d 869      67.714   6.926  13.696  0.00  0.00     0.150 C 
ATOM     90  O32 NTO d 869      65.727  -0.735   8.050  0.00  0.00    -0.349 OA
ATOM     91  O34 NTO d 869      67.944   1.093   8.402  0.00  0.00    -0.254 OA
ATOM     92  H   NTO d 869      62.832  -3.681   8.343  0.00  0.00     0.231 HD
ATOM     93  H   NTO d 869      68.956   9.385  10.879  0.00  0.00     0.231 HD
ATOM     94  H   NTO d 869      62.297   0.149   5.138  0.00  0.00     0.104 H 
ATOM     95  H   NTO d 869      70.117   5.958  14.580  0.00  0.00     0.089 H 
ATOM     96  H   NTO d 869      56.013   1.692   2.911  0.00  0.00     0.140 HD
ATOM     97  H   NTO d 869      68.945   6.968  11.649  0.00  0.00     0.140 HD
ATOM     98  H   NTO d 869      65.249  -3.539   8.806  0.00  0.00     0.231 HD
ATOM     99  H   NTO d 869      54.236  -1.059   1.371  0.00  0.00     0.066 H 
ATOM    100  H   NTO d 869      53.658  -0.290   2.829  0.00  0.00     0.066 H 
ATOM    101  H   NTO d 869      54.238  -1.937   2.882  0.00  0.00     0.066 H 
ATOM    102  H   NTO d 869      68.103   3.097  12.474  0.00  0.00     0.104 H 
ATOM    103  H   NTO d 869      68.054   5.042  11.005  0.00  0.00     0.091 H 
ATOM    104  H   NTO d 869      58.544  -0.992   5.899  0.00  0.00     0.091 H 
ATOM    105  H   NTO d 869      62.415  -1.751   4.271  0.00  0.00     0.097 H 
ATOM    106  H   NTO d 869      62.728  -2.965   7.010  0.00  0.00     0.091 H 
ATOM    107  H   NTO d 869      62.659  -2.011  10.246  0.00  0.00     0.140 HD
ATOM    108  H   NTO d 869      64.248  -0.572   6.245  0.00  0.00     0.092 H 
ATOM    109  H   NTO d 869      57.158   4.292   4.919  0.00  0.00     0.231 HD
ATOM    110  H   NTO d 869      65.970   5.153  13.171  0.00  0.00     0.092 H 
ATOM    111  H   NTO d 869      57.100  -4.150   4.764  0.00  0.00     0.080 H 
ATOM    112  H   NTO d 869      58.791  -3.727   4.953  0.00  0.00     0.080 H 
ATOM    113  H   NTO d 869      64.642  -2.400   4.968  0.00  0.00     0.210 HD
ATOM    114  H   NTO d 869      55.363   4.326   3.236  0.00  0.00     0.231 HD
ATOM    115  H   NTO d 869      67.150   2.667  10.380  0.00  0.00     0.133 H 
ATOM    116  H   NTO d 869      70.495   7.832   9.800  0.00  0.00     0.231 HD
ATOM    117  H   NTO d 869      69.272   8.287  16.285  0.00  0.00     0.091 H 
ATOM    118  H   NTO d 869      69.037   8.627  13.692  0.00  0.00     0.076 H 
ATOM    119  H   NTO d 869      67.870   5.655  15.949  0.00  0.00     0.090 H 
ATOM    120  H   NTO d 869      65.054   4.769  10.846  0.00  0.00     0.094 H 
ATOM    121  H   NTO d 869      64.614   0.963   7.899  0.00  0.00     0.090 H 
ATOM    122  H   NTO d 869      65.553  -1.789  10.463  0.00  0.00     0.076 H 
ATOM    123  H   NTO d 869      55.331   1.552   6.159  0.00  0.00     0.231 HD
ATOM    124  H   NTO d 869      56.812   0.884   5.534  0.00  0.00     0.076 H 
ATOM    125  H   NTO d 869      71.115   8.618  14.859  0.00  0.00     0.210 HD
ATOM    126  H   NTO d 869      54.918  -0.118   4.527  0.00  0.00     0.131 H 
ATOM    127  H   NTO d 869      66.369   0.665  10.324  0.00  0.00     0.091 H 
ATOM    128  H   NTO d 869      67.099   4.515   8.866  0.00  0.00     0.210 HD
ATOM    129  H   NTO d 869      64.733  -2.527   8.180  0.00  0.00     0.131 H 
ATOM    130  H   NTO d 869      60.231  -2.534   6.183  0.00  0.00     0.133 H 
ATOM    131  H   NTO d 869      67.205   8.213  17.437  0.00  0.00     0.080 H 
ATOM    132  H   NTO d 869      67.636   6.676  18.171  0.00  0.00     0.080 H 
ATOM    133  H   NTO d 869      57.621  -2.209   3.328  0.00  0.00     0.090 H 
ATOM    134  H   NTO d 869      63.708  -5.711  11.083  0.00  0.00     0.231 HD
ATOM    135  H   NTO d 869      70.012   5.582  16.881  0.00  0.00     0.210 HD
ATOM    136  H   NTO d 869      58.395   0.154   3.089  0.00  0.00     0.089 H 
ATOM    137  H   NTO d 869      65.920   6.867  11.513  0.00  0.00     0.210 HD
ATOM    138  H   NTO d 869      59.133   1.305   5.602  0.00  0.00     0.210 HD
ATOM    139  H   NTO d 869      71.198   9.069  13.577  0.00  0.00     0.231 HD
ATOM    140  H   NTO d 869      66.529   2.505   7.966  0.00  0.00     0.080 H 
ATOM    141  H   NTO d 869      66.780   1.265   6.739  0.00  0.00     0.080 H 
ATOM    142  H   NTO d 869      63.405   0.297  10.095  0.00  0.00     0.092 H 
ATOM    143  H   NTO d 869      67.065   7.251  12.910  0.00  0.00     0.131 H 
ENDROOT
TORSDOF 46
ENDMDL
MODEL 64
REMARK VINA RESULT:      -5.5      5.136     10.227
REMARK  0 active torsions:
REMARK  status: ('A' for Active; 'I' for Inactive)
REMARK       I    between atoms: O3I_1  and  S3H_51 
REMARK       I    between atoms: O1I_2  and  S1G_48 
REMARK       I    between atoms: O54_3  and  C53_28 
REMARK       I    between atoms: O54_3  and  S55_64 
REMARK       I    between atoms: C41_5  and  C43_30 
REMARK       I    between atoms: C1B_6  and  O1C_53 
REMARK       I    between atoms: O4G_7  and  C4F_62 
REMARK       I    between atoms: O4G_7  and  C50_15 
REMARK       I    between atoms: N5G_8  and  C5F_50 
REMARK       I    between atoms: N5G_8  and  S5H_47 
REMARK       I    between atoms: N1F_9  and  C1E_41 
REMARK       I    between atoms: N1F_9  and  S1G_48 
REMARK       I    between atoms: O3K_10  and  S3H_51 
REMARK       I    between atoms: C5N_11  and  O5M_87 
REMARK       I    between atoms: C21_12  and  C23_57 
REMARK       I    between atoms: C26_13  and  O27_73 
REMARK       I    between atoms: C49_16  and  O4A_21 
REMARK       I    between atoms: O2D_17  and  C2C_35 
REMARK       I    between atoms: O2D_17  and  C30_56 
REMARK       I    between atoms: O1L_18  and  C1K_89 
REMARK       I    between atoms: O1L_18  and  C20_27 
REMARK       I    between atoms: C46_20  and  O47_33 
REMARK       I    between atoms: O4A_21  and  S4B_39 
REMARK       I    between atoms: N3G_22  and  C3F_46 
REMARK       I    between atoms: N3G_22  and  S3H_51 
REMARK       I    between atoms: C40_25  and  O3M_29 
REMARK       I    between atoms: O5I_26  and  S5H_47 
REMARK       I    between atoms: C53_28  and  C51_66 
REMARK       I    between atoms: O3M_29  and  C3L_61 
REMARK       I    between atoms: S17_31  and  O16_86 
REMARK       I    between atoms: O5K_34  and  S5H_47 
REMARK       I    between atoms: O1J_37  and  S1G_48 
REMARK       I    between atoms: C12_38  and  O10_70 
REMARK       I    between atoms: C13_42  and  C15_63 
REMARK       I    between atoms: C29_43  and  O2A_60 
REMARK       I    between atoms: C31_45  and  C33_81 
REMARK       I    between atoms: S5H_47  and  O5J_49 
REMARK       I    between atoms: S1G_48  and  O1H_78 
REMARK       I    between atoms: S3H_51  and  O3J_68 
REMARK       I    between atoms: O3A_54  and  C39_85 
REMARK       I    between atoms: O3A_54  and  S3B_83 
REMARK       I    between atoms: C5L_55  and  O5M_87 
REMARK       I    between atoms: C15_63  and  O16_86 
REMARK       I    between atoms: C59_71  and  O5A_75 
REMARK       I    between atoms: C33_81  and  O34_91 
REMARK       I    between atoms: S35_82  and  O34_91 
ROOT
ATOM      1  O3I NTO d 869      66.447  -5.541  10.871  0.00  0.00    -0.296 OA
ATOM      2  O1I NTO d 869      63.421   9.130   6.200  0.00  0.00    -0.296 OA
ATOM      3  O54 NTO d 869      68.488  -5.265  16.337  0.00  0.00    -0.254 OA
ATOM      4  O18 NTO d 869      71.640   7.967   4.959  0.00  0.00    -0.572 OA
ATOM      5  C41 NTO d 869      64.964  -1.625  13.888  0.00  0.00     0.152 C 
ATOM      6  C1B NTO d 869      65.276   6.799   3.307  0.00  0.00     0.083 C 
ATOM      7  O4G NTO d 869      65.424  -3.450  16.526  0.00  0.00    -0.348 OA
ATOM      8  N5G NTO d 869      67.512  -0.450  19.714  0.00  0.00    -0.210 NA
ATOM      9  N1F NTO d 869      63.846   6.783   5.291  0.00  0.00    -0.210 NA
ATOM     10  O3K NTO d 869      65.005  -5.108   8.935  0.00  0.00    -0.296 OA
ATOM     11  C5N NTO d 869      68.125  -3.658  21.773  0.00  0.00     0.007 C 
ATOM     12  C21 NTO d 869      65.993   2.752   6.076  0.00  0.00     0.152 C 
ATOM     13  C26 NTO d 869      65.062   4.517   7.513  0.00  0.00     0.092 C 
ATOM     14  O4E NTO d 869      62.647  -6.898  16.110  0.00  0.00    -0.572 OA
ATOM     15  C50 NTO d 869      66.666  -3.142  17.175  0.00  0.00     0.095 C 
ATOM     16  C49 NTO d 869      64.241  -4.035  14.515  0.00  0.00     0.134 C 
ATOM     17  O2D NTO d 869      65.516   1.272   9.371  0.00  0.00    -0.348 OA
ATOM     18  O1L NTO d 869      65.996   5.016   5.297  0.00  0.00    -0.348 OA
ATOM     19  O19 NTO d 869      71.833   7.040   2.697  0.00  0.00    -0.572 OA
ATOM     20  C46 NTO d 869      64.249  -3.851  12.997  0.00  0.00     0.094 C 
ATOM     21  O4A NTO d 869      64.002  -5.406  14.843  0.00  0.00    -0.244 OA
ATOM     22  N3G NTO d 869      66.893  -3.447   9.471  0.00  0.00    -0.210 NA
ATOM     23  O36 NTO d 869      61.750   2.180   7.213  0.00  0.00    -0.572 OA
ATOM     24  O57 NTO d 869      68.432  -7.616  15.901  0.00  0.00    -0.572 OA
ATOM     25  C40 NTO d 869      64.428  -2.369  12.673  0.00  0.00     0.103 C 
ATOM     26  O5I NTO d 869      68.732   1.510  18.629  0.00  0.00    -0.296 OA
ATOM     27  C20 NTO d 869      66.141   4.212   6.476  0.00  0.00     0.103 C 
ATOM     28  C53 NTO d 869      67.385  -5.517  17.209  0.00  0.00     0.067 C 
ATOM     29  O3M NTO d 869      65.358  -2.268  11.588  0.00  0.00    -0.348 OA
ATOM     30  C43 NTO d 869      65.472  -0.267  13.427  0.00  0.00     0.206 C 
ATOM     31  S17 NTO d 869      71.477   6.734   4.121  0.00  0.00     0.251 S 
ATOM     32  O45 NTO d 869      66.291  -0.235  12.480  0.00  0.00    -0.646 OA
ATOM     33  O47 NTO d 869      63.005  -4.307  12.457  0.00  0.00    -0.390 OA
ATOM     34  O5K NTO d 869      68.903   1.228  21.060  0.00  0.00    -0.296 OA
ATOM     35  C2C NTO d 869      65.228   2.114   8.242  0.00  0.00     0.160 C 
ATOM     36  O38 NTO d 869      60.314   0.202   7.217  0.00  0.00    -0.572 OA
ATOM     37  O1J NTO d 869      61.503   7.670   5.760  0.00  0.00    -0.296 OA
ATOM     38  C12 NTO d 869      66.703   7.050   2.812  0.00  0.00     0.089 C 
ATOM     39  S4B NTO d 869      62.709  -5.562  15.435  0.00  0.00     0.252 S 
ATOM     40  O4D NTO d 869      61.655  -5.477  14.371  0.00  0.00    -0.572 OA
ATOM     41  C1E NTO d 869      65.167   7.176   4.785  0.00  0.00     0.081 C 
ATOM     42  C13 NTO d 869      67.725   6.382   3.735  0.00  0.00     0.090 C 
ATOM     43  C29 NTO d 869      65.238   3.574   8.704  0.00  0.00     0.110 C 
ATOM     44  O42 NTO d 869      66.039  -2.367  14.492  0.00  0.00    -0.340 OA
ATOM     45  C31 NTO d 869      64.011  -0.428  10.158  0.00  0.00     0.091 C 
ATOM     46  C3F NTO d 869      65.783  -2.499   9.260  0.00  0.00     0.083 C 
ATOM     47  S5H NTO d 869      68.829   0.511  19.744  0.00  0.00     0.156 S 
ATOM     48  S1G NTO d 869      62.863   8.082   5.282  0.00  0.00     0.156 S 
ATOM     49  O5J NTO d 869      70.069  -0.313  19.570  0.00  0.00    -0.296 OA
ATOM     50  C5F NTO d 869      67.737  -1.584  18.805  0.00  0.00     0.081 C 
ATOM     51  S3H NTO d 869      66.402  -5.005   9.470  0.00  0.00     0.156 S 
ATOM     52  O25 NTO d 869      66.654   2.758   3.791  0.00  0.00    -0.646 OA
ATOM     53  O1C NTO d 869      64.360   7.586   2.542  0.00  0.00    -0.391 OA
ATOM     54  O3A NTO d 869      67.253  -0.826   8.289  0.00  0.00    -0.247 OA
ATOM     55  C5L NTO d 869      68.197  -2.804  19.606  0.00  0.00     0.149 C 
ATOM     56  C30 NTO d 869      65.107  -0.088   9.157  0.00  0.00     0.096 C 
ATOM     57  C23 NTO d 869      66.989   2.466   4.962  0.00  0.00     0.206 C 
ATOM     58  O3E NTO d 869      68.562   0.531   9.779  0.00  0.00    -0.572 OA
ATOM     59  O14 NTO d 869      67.528   6.793   5.098  0.00  0.00    -0.349 OA
ATOM     60  O2A NTO d 869      64.178   3.788   9.638  0.00  0.00    -0.388 OA
ATOM     61  C3L NTO d 869      64.737  -2.672  10.360  0.00  0.00     0.150 C 
ATOM     62  C4F NTO d 869      65.579  -3.580  15.106  0.00  0.00     0.161 C 
ATOM     63  C15 NTO d 869      69.129   6.827   3.314  0.00  0.00     0.067 C 
ATOM     64  S55 NTO d 869      68.986  -6.291  15.470  0.00  0.00     0.251 S 
ATOM     65  O58 NTO d 869      70.482  -6.319  15.556  0.00  0.00    -0.572 OA
ATOM     66  C51 NTO d 869      67.101  -4.288  18.076  0.00  0.00     0.091 C 
ATOM     67  O56 NTO d 869      68.568  -6.016  14.056  0.00  0.00    -0.572 OA
ATOM     68  O3J NTO d 869      67.311  -5.817   8.594  0.00  0.00    -0.296 OA
ATOM     69  O44 NTO d 869      65.039   0.760  14.012  0.00  0.00    -0.646 OA
ATOM     70  O10 NTO d 869      66.837   6.498   1.501  0.00  0.00    -0.390 OA
ATOM     71  C59 NTO d 869      66.453  -1.897  18.035  0.00  0.00     0.083 C 
ATOM     72  O52 NTO d 869      68.316  -3.968  18.773  0.00  0.00    -0.349 OA
ATOM     73  O27 NTO d 869      65.185   5.870   7.962  0.00  0.00    -0.390 OA
ATOM     74  O1A NTO d 869      72.375   5.656   4.648  0.00  0.00    -0.572 OA
ATOM     75  O5A NTO d 869      66.132  -0.801  17.172  0.00  0.00    -0.391 OA
ATOM     76  O37 NTO d 869      60.438   1.636   9.204  0.00  0.00    -0.572 OA
ATOM     77  O24 NTO d 869      68.098   1.970   5.273  0.00  0.00    -0.646 OA
ATOM     78  O1H NTO d 869      62.773   8.627   3.888  0.00  0.00    -0.296 OA
ATOM     79  O22 NTO d 869      66.203   1.891   7.210  0.00  0.00    -0.340 OA
ATOM     80  O3D NTO d 869      69.544  -0.407   7.741  0.00  0.00    -0.572 OA
ATOM     81  C33 NTO d 869      62.793   0.458   9.882  0.00  0.00     0.067 C 
ATOM     82  S35 NTO d 869      61.211   1.062   8.054  0.00  0.00     0.251 S 
ATOM     83  S3B NTO d 869      68.559  -0.644   8.847  0.00  0.00     0.252 S 
ATOM     84  O4C NTO d 869      62.488  -4.483  16.454  0.00  0.00    -0.572 OA
ATOM     85  C39 NTO d 869      66.284  -1.055   9.318  0.00  0.00     0.108 C 
ATOM     86  O16 NTO d 869      70.118   6.287   4.192  0.00  0.00    -0.254 OA
ATOM     87  O5M NTO d 869      67.355  -3.028  20.744  0.00  0.00    -0.364 OA
ATOM     88  O3C NTO d 869      68.963  -1.874   9.604  0.00  0.00    -0.572 OA
ATOM     89  C1K NTO d 869      66.229   6.405   5.570  0.00  0.00     0.150 C 
ATOM     90  O32 NTO d 869      63.625  -1.809  10.074  0.00  0.00    -0.349 OA
ATOM     91  O34 NTO d 869      62.292   0.265   8.555  0.00  0.00    -0.254 OA
ATOM     92  H   NTO d 869      65.860  -5.017  11.437  0.00  0.00     0.231 HD
ATOM     93  H   NTO d 869      63.477   8.774   7.100  0.00  0.00     0.231 HD
ATOM     94  H   NTO d 869      64.188  -1.505  14.614  0.00  0.00     0.104 H 
ATOM     95  H   NTO d 869      65.039   5.763   3.190  0.00  0.00     0.089 H 
ATOM     96  H   NTO d 869      67.329  -0.802  20.653  0.00  0.00     0.140 HD
ATOM     97  H   NTO d 869      63.937   6.430   6.244  0.00  0.00     0.140 HD
ATOM     98  H   NTO d 869      64.406  -4.586   9.493  0.00  0.00     0.231 HD
ATOM     99  H   NTO d 869      67.505  -3.829  22.628  0.00  0.00     0.066 H 
ATOM    100  H   NTO d 869      68.942  -3.023  22.047  0.00  0.00     0.066 H 
ATOM    101  H   NTO d 869      68.504  -4.592  21.414  0.00  0.00     0.066 H 
ATOM    102  H   NTO d 869      65.001   2.560   5.725  0.00  0.00     0.104 H 
ATOM    103  H   NTO d 869      64.096   4.380   7.072  0.00  0.00     0.091 H 
ATOM    104  H   NTO d 869      67.423  -2.981  16.436  0.00  0.00     0.091 H 
ATOM    105  H   NTO d 869      63.456  -3.439  14.931  0.00  0.00     0.097 H 
ATOM    106  H   NTO d 869      65.052  -4.413  12.569  0.00  0.00     0.091 H 
ATOM    107  H   NTO d 869      67.329  -3.243  10.371  0.00  0.00     0.140 HD
ATOM    108  H   NTO d 869      63.488  -1.934  12.406  0.00  0.00     0.092 H 
ATOM    109  H   NTO d 869      67.930   2.043  18.742  0.00  0.00     0.231 HD
ATOM    110  H   NTO d 869      67.099   4.424   6.904  0.00  0.00     0.092 H 
ATOM    111  H   NTO d 869      67.619  -6.348  17.841  0.00  0.00     0.080 H 
ATOM    112  H   NTO d 869      66.519  -5.734  16.621  0.00  0.00     0.080 H 
ATOM    113  H   NTO d 869      62.277  -3.796  12.846  0.00  0.00     0.210 HD
ATOM    114  H   NTO d 869      68.104   1.765  21.181  0.00  0.00     0.231 HD
ATOM    115  H   NTO d 869      64.265   1.883   7.840  0.00  0.00     0.133 H 
ATOM    116  H   NTO d 869      61.570   7.319   6.662  0.00  0.00     0.231 HD
ATOM    117  H   NTO d 869      66.885   8.105   2.803  0.00  0.00     0.091 H 
ATOM    118  H   NTO d 869      65.307   8.231   4.897  0.00  0.00     0.076 H 
ATOM    119  H   NTO d 869      67.607   5.322   3.661  0.00  0.00     0.090 H 
ATOM    120  H   NTO d 869      66.179   3.778   9.170  0.00  0.00     0.094 H 
ATOM    121  H   NTO d 869      64.389  -0.254  11.143  0.00  0.00     0.090 H 
ATOM    122  H   NTO d 869      65.361  -2.700   8.297  0.00  0.00     0.076 H 
ATOM    123  H   NTO d 869      70.031  -0.780  18.722  0.00  0.00     0.231 HD
ATOM    124  H   NTO d 869      68.500  -1.330  18.100  0.00  0.00     0.076 H 
ATOM    125  H   NTO d 869      64.574   8.526   2.648  0.00  0.00     0.210 HD
ATOM    126  H   NTO d 869      69.176  -2.597  19.983  0.00  0.00     0.131 H 
ATOM    127  H   NTO d 869      64.741  -0.189   8.156  0.00  0.00     0.091 H 
ATOM    128  H   NTO d 869      63.328   3.602   9.211  0.00  0.00     0.210 HD
ATOM    129  H   NTO d 869      64.390  -3.682  10.423  0.00  0.00     0.131 H 
ATOM    130  H   NTO d 869      66.334  -4.310  14.904  0.00  0.00     0.133 H 
ATOM    131  H   NTO d 869      69.181   7.895   3.341  0.00  0.00     0.080 H 
ATOM    132  H   NTO d 869      69.318   6.469   2.323  0.00  0.00     0.080 H 
ATOM    133  H   NTO d 869      66.318  -4.470  18.783  0.00  0.00     0.090 H 
ATOM    134  H   NTO d 869      67.019  -6.742   8.594  0.00  0.00     0.231 HD
ATOM    135  H   NTO d 869      66.668   5.544   1.533  0.00  0.00     0.210 HD
ATOM    136  H   NTO d 869      65.658  -2.061  18.732  0.00  0.00     0.089 H 
ATOM    137  H   NTO d 869      66.060   5.999   8.363  0.00  0.00     0.210 HD
ATOM    138  H   NTO d 869      66.858  -0.662  16.544  0.00  0.00     0.210 HD
ATOM    139  H   NTO d 869      63.656   8.891   3.585  0.00  0.00     0.231 HD
ATOM    140  H   NTO d 869      63.075   1.483  10.000  0.00  0.00     0.080 H 
ATOM    141  H   NTO d 869      62.021   0.193  10.574  0.00  0.00     0.080 H 
ATOM    142  H   NTO d 869      66.747  -0.886  10.268  0.00  0.00     0.092 H 
ATOM    143  H   NTO d 869      66.181   6.602   6.621  0.00  0.00     0.131 H 
ENDROOT
TORSDOF 46
ENDMDL
MODEL 65
REMARK VINA RESULT:      -5.5      4.115     14.202
REMARK  0 active torsions:
REMARK  status: ('A' for Active; 'I' for Inactive)
REMARK       I    between atoms: O3I_1  and  S3H_51 
REMARK       I    between atoms: O1I_2  and  S1G_48 
REMARK       I    between atoms: O54_3  and  C53_28 
REMARK       I    between atoms: O54_3  and  S55_64 
REMARK       I    between atoms: C41_5  and  C43_30 
REMARK       I    between atoms: C1B_6  and  O1C_53 
REMARK       I    between atoms: O4G_7  and  C4F_62 
REMARK       I    between atoms: O4G_7  and  C50_15 
REMARK       I    between atoms: N5G_8  and  C5F_50 
REMARK       I    between atoms: N5G_8  and  S5H_47 
REMARK       I    between atoms: N1F_9  and  C1E_41 
REMARK       I    between atoms: N1F_9  and  S1G_48 
REMARK       I    between atoms: O3K_10  and  S3H_51 
REMARK       I    between atoms: C5N_11  and  O5M_87 
REMARK       I    between atoms: C21_12  and  C23_57 
REMARK       I    between atoms: C26_13  and  O27_73 
REMARK       I    between atoms: C49_16  and  O4A_21 
REMARK       I    between atoms: O2D_17  and  C2C_35 
REMARK       I    between atoms: O2D_17  and  C30_56 
REMARK       I    between atoms: O1L_18  and  C1K_89 
REMARK       I    between atoms: O1L_18  and  C20_27 
REMARK       I    between atoms: C46_20  and  O47_33 
REMARK       I    between atoms: O4A_21  and  S4B_39 
REMARK       I    between atoms: N3G_22  and  C3F_46 
REMARK       I    between atoms: N3G_22  and  S3H_51 
REMARK       I    between atoms: C40_25  and  O3M_29 
REMARK       I    between atoms: O5I_26  and  S5H_47 
REMARK       I    between atoms: C53_28  and  C51_66 
REMARK       I    between atoms: O3M_29  and  C3L_61 
REMARK       I    between atoms: S17_31  and  O16_86 
REMARK       I    between atoms: O5K_34  and  S5H_47 
REMARK       I    between atoms: O1J_37  and  S1G_48 
REMARK       I    between atoms: C12_38  and  O10_70 
REMARK       I    between atoms: C13_42  and  C15_63 
REMARK       I    between atoms: C29_43  and  O2A_60 
REMARK       I    between atoms: C31_45  and  C33_81 
REMARK       I    between atoms: S5H_47  and  O5J_49 
REMARK       I    between atoms: S1G_48  and  O1H_78 
REMARK       I    between atoms: S3H_51  and  O3J_68 
REMARK       I    between atoms: O3A_54  and  C39_85 
REMARK       I    between atoms: O3A_54  and  S3B_83 
REMARK       I    between atoms: C5L_55  and  O5M_87 
REMARK       I    between atoms: C15_63  and  O16_86 
REMARK       I    between atoms: C59_71  and  O5A_75 
REMARK       I    between atoms: C33_81  and  O34_91 
REMARK       I    between atoms: S35_82  and  O34_91 
ROOT
ATOM      1  O3I NTO d 869      64.475  -0.428   4.156  0.00  0.00    -0.296 OA
ATOM      2  O1I NTO d 869      66.989   2.495  19.367  0.00  0.00    -0.296 OA
ATOM      3  O54 NTO d 869      59.943  -4.095   3.792  0.00  0.00    -0.254 OA
ATOM      4  O18 NTO d 869      70.865  -4.771  17.746  0.00  0.00    -0.572 OA
ATOM      5  C41 NTO d 869      60.900  -0.346   7.878  0.00  0.00     0.152 C 
ATOM      6  C1B NTO d 869      70.466   1.871  17.183  0.00  0.00     0.083 C 
ATOM      7  O4G NTO d 869      58.668  -1.433   5.793  0.00  0.00    -0.348 OA
ATOM      8  N5G NTO d 869      56.132  -4.690   8.337  0.00  0.00    -0.210 NA
ATOM      9  N1F NTO d 869      68.134   2.602  17.087  0.00  0.00    -0.210 NA
ATOM     10  O3K NTO d 869      65.816   1.500   4.864  0.00  0.00    -0.296 OA
ATOM     11  C5N NTO d 869      54.586  -5.609   4.921  0.00  0.00     0.007 C 
ATOM     12  C21 NTO d 869      68.334   0.712  12.861  0.00  0.00     0.152 C 
ATOM     13  C26 NTO d 869      66.566   0.974  14.550  0.00  0.00     0.092 C 
ATOM     14  O4E NTO d 869      58.392   1.651   2.601  0.00  0.00    -0.572 OA
ATOM     15  C50 NTO d 869      58.433  -2.839   5.953  0.00  0.00     0.095 C 
ATOM     16  C49 NTO d 869      60.229   0.371   5.477  0.00  0.00     0.134 C 
ATOM     17  O2D NTO d 869      65.161   0.272  11.125  0.00  0.00    -0.348 OA
ATOM     18  O1L NTO d 869      68.928   0.738  15.180  0.00  0.00    -0.348 OA
ATOM     19  O19 NTO d 869      73.125  -4.156  17.016  0.00  0.00    -0.572 OA
ATOM     20  C46 NTO d 869      61.654   0.822   5.797  0.00  0.00     0.094 C 
ATOM     21  O4A NTO d 869      59.929   0.625   4.102  0.00  0.00    -0.244 OA
ATOM     22  N3G NTO d 869      65.807  -0.610   6.332  0.00  0.00    -0.210 NA
ATOM     23  O36 NTO d 869      65.939   4.420  12.488  0.00  0.00    -0.572 OA
ATOM     24  O57 NTO d 869      60.486  -3.681   1.500  0.00  0.00    -0.572 OA
ATOM     25  C40 NTO d 869      61.923   0.613   7.286  0.00  0.00     0.103 C 
ATOM     26  O5I NTO d 869      57.423  -5.690  10.297  0.00  0.00    -0.296 OA
ATOM     27  C20 NTO d 869      67.911   0.308  14.265  0.00  0.00     0.103 C 
ATOM     28  C53 NTO d 869      58.782  -3.303   3.540  0.00  0.00     0.067 C 
ATOM     29  O3M NTO d 869      63.240   0.065   7.419  0.00  0.00    -0.348 OA
ATOM     30  C43 NTO d 869      61.411  -0.810   9.233  0.00  0.00     0.206 C 
ATOM     31  S17 NTO d 869      71.684  -4.237  16.609  0.00  0.00     0.251 S 
ATOM     32  O45 NTO d 869      62.566  -1.291   9.292  0.00  0.00    -0.646 OA
ATOM     33  O47 NTO d 869      61.795   2.210   5.480  0.00  0.00    -0.390 OA
ATOM     34  O5K NTO d 869      55.199  -6.587   9.784  0.00  0.00    -0.296 OA
ATOM     35  C2C NTO d 869      66.083   0.817  12.085  0.00  0.00     0.160 C 
ATOM     36  O38 NTO d 869      65.602   5.964  10.624  0.00  0.00    -0.572 OA
ATOM     37  O1J NTO d 869      66.884   4.585  18.091  0.00  0.00    -0.296 OA
ATOM     38  C12 NTO d 869      71.374   0.654  17.377  0.00  0.00     0.089 C 
ATOM     39  S4B NTO d 869      58.966   1.676   3.985  0.00  0.00     0.252 S 
ATOM     40  O4D NTO d 869      59.629   2.997   4.239  0.00  0.00    -0.572 OA
ATOM     41  C1E NTO d 869      69.010   1.475  17.431  0.00  0.00     0.081 C 
ATOM     42  C13 NTO d 869      70.871  -0.537  16.558  0.00  0.00     0.090 C 
ATOM     43  C29 NTO d 869      65.556   0.524  13.492  0.00  0.00     0.110 C 
ATOM     44  O42 NTO d 869      60.719  -1.479   7.010  0.00  0.00    -0.340 OA
ATOM     45  C31 NTO d 869      64.044   1.610   9.471  0.00  0.00     0.091 C 
ATOM     46  C3F NTO d 869      65.592   0.414   7.371  0.00  0.00     0.083 C 
ATOM     47  S5H NTO d 869      56.465  -6.036   9.197  0.00  0.00     0.156 S 
ATOM     48  S1G NTO d 869      67.745   3.410  18.448  0.00  0.00     0.156 S 
ATOM     49  O5J NTO d 869      57.078  -7.075   8.307  0.00  0.00    -0.296 OA
ATOM     50  C5F NTO d 869      57.135  -4.510   7.277  0.00  0.00     0.081 C 
ATOM     51  S3H NTO d 869      65.751   0.002   4.819  0.00  0.00     0.156 S 
ATOM     52  O25 NTO d 869      70.706   0.803  13.028  0.00  0.00    -0.646 OA
ATOM     53  O1C NTO d 869      70.846   2.901  18.098  0.00  0.00    -0.391 OA
ATOM     54  O3A NTO d 869      66.874  -0.830   9.017  0.00  0.00    -0.247 OA
ATOM     55  C5L NTO d 869      56.603  -5.080   5.961  0.00  0.00     0.149 C 
ATOM     56  C30 NTO d 869      65.320   0.856   9.823  0.00  0.00     0.096 C 
ATOM     57  C23 NTO d 869      69.724   0.148  12.608  0.00  0.00     0.206 C 
ATOM     58  O3E NTO d 869      65.797  -2.663  10.139  0.00  0.00    -0.572 OA
ATOM     59  O14 NTO d 869      69.494  -0.817  16.856  0.00  0.00    -0.349 OA
ATOM     60  O2A NTO d 869      64.321   1.212  13.694  0.00  0.00    -0.388 OA
ATOM     61  C3L NTO d 869      64.228   1.074   7.173  0.00  0.00     0.150 C 
ATOM     62  C4F NTO d 869      60.069  -1.121   5.782  0.00  0.00     0.161 C 
ATOM     63  C15 NTO d 869      71.690  -1.774  16.938  0.00  0.00     0.067 C 
ATOM     64  S55 NTO d 869      60.987  -4.196   2.816  0.00  0.00     0.251 S 
ATOM     65  O58 NTO d 869      61.387  -5.634   2.675  0.00  0.00    -0.572 OA
ATOM     66  C51 NTO d 869      57.793  -3.423   4.702  0.00  0.00     0.091 C 
ATOM     67  O56 NTO d 869      62.172  -3.384   3.247  0.00  0.00    -0.572 OA
ATOM     68  O3J NTO d 869      66.921  -0.504   4.028  0.00  0.00    -0.296 OA
ATOM     69  O44 NTO d 869      60.654  -0.683  10.230  0.00  0.00    -0.646 OA
ATOM     70  O10 NTO d 869      72.692   0.991  16.938  0.00  0.00    -0.390 OA
ATOM     71  C59 NTO d 869      57.472  -3.026   7.127  0.00  0.00     0.083 C 
ATOM     72  O52 NTO d 869      57.503  -4.820   4.871  0.00  0.00    -0.349 OA
ATOM     73  O27 NTO d 869      66.095   0.587  15.844  0.00  0.00    -0.390 OA
ATOM     74  O1A NTO d 869      71.542  -5.147  15.427  0.00  0.00    -0.572 OA
ATOM     75  O5A NTO d 869      58.116  -2.557   8.316  0.00  0.00    -0.391 OA
ATOM     76  O37 NTO d 869      63.671   5.087  11.859  0.00  0.00    -0.572 OA
ATOM     77  O24 NTO d 869      69.817  -0.951  12.009  0.00  0.00    -0.646 OA
ATOM     78  O1H NTO d 869      69.000   3.880  19.122  0.00  0.00    -0.296 OA
ATOM     79  O22 NTO d 869      67.385   0.241  11.888  0.00  0.00    -0.340 OA
ATOM     80  O3D NTO d 869      68.098  -2.863   9.322  0.00  0.00    -0.572 OA
ATOM     81  C33 NTO d 869      63.859   2.762  10.463  0.00  0.00     0.067 C 
ATOM     82  S35 NTO d 869      65.042   4.772  11.339  0.00  0.00     0.251 S 
ATOM     83  S3B NTO d 869      66.752  -2.256   9.055  0.00  0.00     0.252 S 
ATOM     84  O4C NTO d 869      57.863   1.462   4.980  0.00  0.00    -0.572 OA
ATOM     85  C39 NTO d 869      65.605  -0.216   8.765  0.00  0.00     0.108 C 
ATOM     86  O16 NTO d 869      71.210  -2.933  16.253  0.00  0.00    -0.254 OA
ATOM     87  O5M NTO d 869      55.272  -4.620   5.694  0.00  0.00    -0.364 OA
ATOM     88  O3C NTO d 869      66.244  -2.758   7.737  0.00  0.00    -0.572 OA
ATOM     89  C1K NTO d 869      68.656   0.299  16.519  0.00  0.00     0.150 C 
ATOM     90  O32 NTO d 869      64.088   2.133   8.134  0.00  0.00    -0.349 OA
ATOM     91  O34 NTO d 869      64.965   3.669  10.426  0.00  0.00    -0.254 OA
ATOM     92  H   NTO d 869      63.719  -0.100   4.667  0.00  0.00     0.231 HD
ATOM     93  H   NTO d 869      66.179   2.193  18.927  0.00  0.00     0.231 HD
ATOM     94  H   NTO d 869      59.957   0.149   7.985  0.00  0.00     0.104 H 
ATOM     95  H   NTO d 869      70.566   2.231  16.180  0.00  0.00     0.089 H 
ATOM     96  H   NTO d 869      55.208  -4.778   7.916  0.00  0.00     0.140 HD
ATOM     97  H   NTO d 869      67.285   2.251  16.644  0.00  0.00     0.140 HD
ATOM     98  H   NTO d 869      65.063   1.841   5.373  0.00  0.00     0.231 HD
ATOM     99  H   NTO d 869      53.590  -5.275   4.717  0.00  0.00     0.066 H 
ATOM    100  H   NTO d 869      54.548  -6.527   5.469  0.00  0.00     0.066 H 
ATOM    101  H   NTO d 869      55.106  -5.766   3.999  0.00  0.00     0.066 H 
ATOM    102  H   NTO d 869      68.361   1.778  12.772  0.00  0.00     0.104 H 
ATOM    103  H   NTO d 869      66.682   2.037  14.521  0.00  0.00     0.091 H 
ATOM    104  H   NTO d 869      59.363  -3.339   6.127  0.00  0.00     0.091 H 
ATOM    105  H   NTO d 869      59.546   0.925   6.087  0.00  0.00     0.097 H 
ATOM    106  H   NTO d 869      62.351   0.251   5.221  0.00  0.00     0.091 H 
ATOM    107  H   NTO d 869      65.083  -1.324   6.423  0.00  0.00     0.140 HD
ATOM    108  H   NTO d 869      61.848   1.543   7.808  0.00  0.00     0.092 H 
ATOM    109  H   NTO d 869      57.026  -5.019  10.872  0.00  0.00     0.231 HD
ATOM    110  H   NTO d 869      67.799  -0.751  14.369  0.00  0.00     0.092 H 
ATOM    111  H   NTO d 869      58.312  -3.642   2.641  0.00  0.00     0.080 H 
ATOM    112  H   NTO d 869      59.075  -2.279   3.438  0.00  0.00     0.080 H 
ATOM    113  H   NTO d 869      61.163   2.727   6.003  0.00  0.00     0.210 HD
ATOM    114  H   NTO d 869      54.794  -5.921  10.363  0.00  0.00     0.231 HD
ATOM    115  H   NTO d 869      66.169   1.875  11.959  0.00  0.00     0.133 H 
ATOM    116  H   NTO d 869      66.075   4.272  17.656  0.00  0.00     0.231 HD
ATOM    117  H   NTO d 869      71.374   0.384  18.412  0.00  0.00     0.091 H 
ATOM    118  H   NTO d 869      68.881   1.207  18.459  0.00  0.00     0.076 H 
ATOM    119  H   NTO d 869      70.970  -0.301  15.519  0.00  0.00     0.090 H 
ATOM    120  H   NTO d 869      65.405  -0.531  13.587  0.00  0.00     0.094 H 
ATOM    121  H   NTO d 869      63.222   0.927   9.529  0.00  0.00     0.090 H 
ATOM    122  H   NTO d 869      66.380   1.134   7.288  0.00  0.00     0.076 H 
ATOM    123  H   NTO d 869      57.897  -6.729   7.922  0.00  0.00     0.231 HD
ATOM    124  H   NTO d 869      58.030  -5.035   7.540  0.00  0.00     0.076 H 
ATOM    125  H   NTO d 869      70.754   2.576  19.008  0.00  0.00     0.210 HD
ATOM    126  H   NTO d 869      56.547  -6.143   6.063  0.00  0.00     0.131 H 
ATOM    127  H   NTO d 869      66.155   1.525   9.838  0.00  0.00     0.091 H 
ATOM    128  H   NTO d 869      64.465   2.167  13.608  0.00  0.00     0.210 HD
ATOM    129  H   NTO d 869      64.121   1.479   6.188  0.00  0.00     0.131 H 
ATOM    130  H   NTO d 869      60.548  -1.702   5.021  0.00  0.00     0.133 H 
ATOM    131  H   NTO d 869      71.613  -1.934  17.993  0.00  0.00     0.080 H 
ATOM    132  H   NTO d 869      72.709  -1.608  16.659  0.00  0.00     0.080 H 
ATOM    133  H   NTO d 869      56.886  -2.888   4.513  0.00  0.00     0.090 H 
ATOM    134  H   NTO d 869      66.886  -0.140   3.130  0.00  0.00     0.231 HD
ATOM    135  H   NTO d 869      72.667   1.232  15.998  0.00  0.00     0.210 HD
ATOM    136  H   NTO d 869      56.569  -2.477   6.957  0.00  0.00     0.089 H 
ATOM    137  H   NTO d 869      65.988  -0.377  15.875  0.00  0.00     0.210 HD
ATOM    138  H   NTO d 869      58.933  -3.059   8.460  0.00  0.00     0.210 HD
ATOM    139  H   NTO d 869      69.551   3.115  19.350  0.00  0.00     0.231 HD
ATOM    140  H   NTO d 869      63.772   2.360  11.450  0.00  0.00     0.080 H 
ATOM    141  H   NTO d 869      62.975   3.300  10.190  0.00  0.00     0.080 H 
ATOM    142  H   NTO d 869      64.844  -0.966   8.814  0.00  0.00     0.092 H 
ATOM    143  H   NTO d 869      67.635  -0.003  16.623  0.00  0.00     0.131 H 
ENDROOT
TORSDOF 46
ENDMDL
MODEL 66
REMARK VINA RESULT:      -5.5      4.506      8.941
REMARK  0 active torsions:
REMARK  status: ('A' for Active; 'I' for Inactive)
REMARK       I    between atoms: O3I_1  and  S3H_51 
REMARK       I    between atoms: O1I_2  and  S1G_48 
REMARK       I    between atoms: O54_3  and  C53_28 
REMARK       I    between atoms: O54_3  and  S55_64 
REMARK       I    between atoms: C41_5  and  C43_30 
REMARK       I    between atoms: C1B_6  and  O1C_53 
REMARK       I    between atoms: O4G_7  and  C4F_62 
REMARK       I    between atoms: O4G_7  and  C50_15 
REMARK       I    between atoms: N5G_8  and  C5F_50 
REMARK       I    between atoms: N5G_8  and  S5H_47 
REMARK       I    between atoms: N1F_9  and  C1E_41 
REMARK       I    between atoms: N1F_9  and  S1G_48 
REMARK       I    between atoms: O3K_10  and  S3H_51 
REMARK       I    between atoms: C5N_11  and  O5M_87 
REMARK       I    between atoms: C21_12  and  C23_57 
REMARK       I    between atoms: C26_13  and  O27_73 
REMARK       I    between atoms: C49_16  and  O4A_21 
REMARK       I    between atoms: O2D_17  and  C2C_35 
REMARK       I    between atoms: O2D_17  and  C30_56 
REMARK       I    between atoms: O1L_18  and  C1K_89 
REMARK       I    between atoms: O1L_18  and  C20_27 
REMARK       I    between atoms: C46_20  and  O47_33 
REMARK       I    between atoms: O4A_21  and  S4B_39 
REMARK       I    between atoms: N3G_22  and  C3F_46 
REMARK       I    between atoms: N3G_22  and  S3H_51 
REMARK       I    between atoms: C40_25  and  O3M_29 
REMARK       I    between atoms: O5I_26  and  S5H_47 
REMARK       I    between atoms: C53_28  and  C51_66 
REMARK       I    between atoms: O3M_29  and  C3L_61 
REMARK       I    between atoms: S17_31  and  O16_86 
REMARK       I    between atoms: O5K_34  and  S5H_47 
REMARK       I    between atoms: O1J_37  and  S1G_48 
REMARK       I    between atoms: C12_38  and  O10_70 
REMARK       I    between atoms: C13_42  and  C15_63 
REMARK       I    between atoms: C29_43  and  O2A_60 
REMARK       I    between atoms: C31_45  and  C33_81 
REMARK       I    between atoms: S5H_47  and  O5J_49 
REMARK       I    between atoms: S1G_48  and  O1H_78 
REMARK       I    between atoms: S3H_51  and  O3J_68 
REMARK       I    between atoms: O3A_54  and  C39_85 
REMARK       I    between atoms: O3A_54  and  S3B_83 
REMARK       I    between atoms: C5L_55  and  O5M_87 
REMARK       I    between atoms: C15_63  and  O16_86 
REMARK       I    between atoms: C59_71  and  O5A_75 
REMARK       I    between atoms: C33_81  and  O34_91 
REMARK       I    between atoms: S35_82  and  O34_91 
ROOT
ATOM      1  O3I NTO d 869      65.458  -4.799  10.168  0.00  0.00    -0.296 OA
ATOM      2  O1I NTO d 869      59.609   9.393   6.911  0.00  0.00    -0.296 OA
ATOM      3  O54 NTO d 869      68.518  -4.349  15.123  0.00  0.00    -0.254 OA
ATOM      4  O18 NTO d 869      67.480   9.422   3.998  0.00  0.00    -0.572 OA
ATOM      5  C41 NTO d 869      64.114  -1.191  13.606  0.00  0.00     0.152 C 
ATOM      6  C1B NTO d 869      61.127   7.405   3.596  0.00  0.00     0.083 C 
ATOM      7  O4G NTO d 869      65.343  -2.987  16.008  0.00  0.00    -0.348 OA
ATOM      8  N5G NTO d 869      67.619   0.211  18.856  0.00  0.00    -0.210 NA
ATOM      9  N1F NTO d 869      60.149   7.147   5.823  0.00  0.00    -0.210 NA
ATOM     10  O3K NTO d 869      63.606  -4.533   8.583  0.00  0.00    -0.296 OA
ATOM     11  C5N NTO d 869      69.064  -2.919  20.594  0.00  0.00     0.007 C 
ATOM     12  C21 NTO d 869      62.930   3.444   5.968  0.00  0.00     0.152 C 
ATOM     13  C26 NTO d 869      62.084   5.031   7.645  0.00  0.00     0.092 C 
ATOM     14  O4E NTO d 869      63.026  -6.782  15.989  0.00  0.00    -0.572 OA
ATOM     15  C50 NTO d 869      66.640  -2.520  16.410  0.00  0.00     0.095 C 
ATOM     16  C49 NTO d 869      63.863  -3.692  14.248  0.00  0.00     0.134 C 
ATOM     17  O2D NTO d 869      63.338   1.844   9.216  0.00  0.00    -0.348 OA
ATOM     18  O1L NTO d 869      62.470   5.701   5.314  0.00  0.00    -0.348 OA
ATOM     19  O19 NTO d 869      67.329   8.577   1.701  0.00  0.00    -0.572 OA
ATOM     20  C46 NTO d 869      63.536  -3.478  12.770  0.00  0.00     0.094 C 
ATOM     21  O4A NTO d 869      63.882  -5.089  14.551  0.00  0.00    -0.244 OA
ATOM     22  N3G NTO d 869      65.324  -2.634   8.810  0.00  0.00    -0.210 NA
ATOM     23  O36 NTO d 869      59.123   2.258   7.900  0.00  0.00    -0.572 OA
ATOM     24  O57 NTO d 869      68.689  -6.675  14.594  0.00  0.00    -0.572 OA
ATOM     25  C40 NTO d 869      63.445  -1.979  12.489  0.00  0.00     0.103 C 
ATOM     26  O5I NTO d 869      68.319   2.345  17.645  0.00  0.00    -0.296 OA
ATOM     27  C20 NTO d 869      62.960   4.902   6.400  0.00  0.00     0.103 C 
ATOM     28  C53 NTO d 869      67.661  -4.771  16.185  0.00  0.00     0.067 C 
ATOM     29  O3M NTO d 869      64.111  -1.726  11.246  0.00  0.00    -0.348 OA
ATOM     30  C43 NTO d 869      64.330   0.233  13.119  0.00  0.00     0.206 C 
ATOM     31  S17 NTO d 869      67.316   8.196   3.151  0.00  0.00     0.251 S 
ATOM     32  O45 NTO d 869      64.927   0.399  12.031  0.00  0.00    -0.646 OA
ATOM     33  O47 NTO d 869      62.280  -4.094  12.468  0.00  0.00    -0.390 OA
ATOM     34  O5K NTO d 869      69.020   2.041  19.976  0.00  0.00    -0.296 OA
ATOM     35  C2C NTO d 869      62.716   2.661   8.209  0.00  0.00     0.160 C 
ATOM     36  O38 NTO d 869      57.996   0.098   8.095  0.00  0.00    -0.572 OA
ATOM     37  O1J NTO d 869      57.854   7.687   6.794  0.00  0.00    -0.296 OA
ATOM     38  C12 NTO d 869      62.376   7.864   2.839  0.00  0.00     0.089 C 
ATOM     39  S4B NTO d 869      62.770  -5.437  15.381  0.00  0.00     0.252 S 
ATOM     40  O4D NTO d 869      61.519  -5.480  14.554  0.00  0.00    -0.572 OA
ATOM     41  C1E NTO d 869      61.274   7.732   5.083  0.00  0.00     0.081 C 
ATOM     42  C13 NTO d 869      63.645   7.328   3.506  0.00  0.00     0.090 C 
ATOM     43  C29 NTO d 869      62.625   4.098   8.730  0.00  0.00     0.110 C 
ATOM     44  O42 NTO d 869      65.379  -1.787  13.947  0.00  0.00    -0.340 OA
ATOM     45  C31 NTO d 869      62.267  -0.066  10.205  0.00  0.00     0.091 C 
ATOM     46  C3F NTO d 869      64.079  -1.848   8.871  0.00  0.00     0.083 C 
ATOM     47  S5H NTO d 869      68.774   1.348  18.668  0.00  0.00     0.156 S 
ATOM     48  S1G NTO d 869      59.020   8.296   6.073  0.00  0.00     0.156 S 
ATOM     49  O5J NTO d 869      70.052   0.710  18.211  0.00  0.00    -0.296 OA
ATOM     50  C5F NTO d 869      67.803  -0.861  17.867  0.00  0.00     0.081 C 
ATOM     51  S3H NTO d 869      65.056  -4.246   8.832  0.00  0.00     0.156 S 
ATOM     52  O25 NTO d 869      63.102   3.589   3.599  0.00  0.00    -0.646 OA
ATOM     53  O1C NTO d 869      59.977   8.070   3.069  0.00  0.00    -0.391 OA
ATOM     54  O3A NTO d 869      65.082   0.034   7.708  0.00  0.00    -0.247 OA
ATOM     55  C5L NTO d 869      68.576  -2.020  18.500  0.00  0.00     0.149 C 
ATOM     56  C30 NTO d 869      63.079   0.445   9.022  0.00  0.00     0.096 C 
ATOM     57  C23 NTO d 869      63.705   3.323   4.665  0.00  0.00     0.206 C 
ATOM     58  O3E NTO d 869      66.475   1.532   8.971  0.00  0.00    -0.572 OA
ATOM     59  O14 NTO d 869      63.678   7.679   4.899  0.00  0.00    -0.349 OA
ATOM     60  O2A NTO d 869      61.760   4.141   9.866  0.00  0.00    -0.388 OA
ATOM     61  C3L NTO d 869      63.312  -2.188  10.148  0.00  0.00     0.150 C 
ATOM     62  C4F NTO d 869      65.220  -3.065  14.581  0.00  0.00     0.161 C 
ATOM     63  C15 NTO d 869      64.861   7.973   2.835  0.00  0.00     0.067 C 
ATOM     64  S55 NTO d 869      68.961  -5.277  14.125  0.00  0.00     0.251 S 
ATOM     65  O58 NTO d 869      70.433  -5.097  13.909  0.00  0.00    -0.572 OA
ATOM     66  C51 NTO d 869      67.398  -3.612  17.149  0.00  0.00     0.091 C 
ATOM     67  O56 NTO d 869      68.230  -5.035  12.839  0.00  0.00    -0.572 OA
ATOM     68  O3J NTO d 869      65.867  -4.904   7.754  0.00  0.00    -0.296 OA
ATOM     69  O44 NTO d 869      63.893   1.177  13.828  0.00  0.00    -0.646 OA
ATOM     70  O10 NTO d 869      62.312   7.363   1.502  0.00  0.00    -0.390 OA
ATOM     71  C59 NTO d 869      66.442  -1.336  17.354  0.00  0.00     0.083 C 
ATOM     72  O52 NTO d 869      68.677  -3.139  17.604  0.00  0.00    -0.349 OA
ATOM     73  O27 NTO d 869      62.116   6.378   8.126  0.00  0.00    -0.390 OA
ATOM     74  O1A NTO d 869      68.438   7.244   3.435  0.00  0.00    -0.572 OA
ATOM     75  O5A NTO d 869      65.809  -0.279  16.627  0.00  0.00    -0.391 OA
ATOM     76  O37 NTO d 869      58.331   1.494  10.085  0.00  0.00    -0.572 OA
ATOM     77  O24 NTO d 869      64.911   2.982   4.724  0.00  0.00    -0.646 OA
ATOM     78  O1H NTO d 869      58.574   8.851   4.753  0.00  0.00    -0.296 OA
ATOM     79  O22 NTO d 869      63.480   2.598   6.994  0.00  0.00    -0.340 OA
ATOM     80  O3D NTO d 869      67.135   0.781   6.734  0.00  0.00    -0.572 OA
ATOM     81  C33 NTO d 869      60.911   0.646  10.220  0.00  0.00     0.067 C 
ATOM     82  S35 NTO d 869      58.923   1.058   8.777  0.00  0.00     0.251 S 
ATOM     83  S3B NTO d 869      66.438   0.386   8.002  0.00  0.00     0.252 S 
ATOM     84  O4C NTO d 869      62.620  -4.420  16.474  0.00  0.00    -0.572 OA
ATOM     85  C39 NTO d 869      64.384  -0.349   8.898  0.00  0.00     0.108 C 
ATOM     86  O16 NTO d 869      66.072   7.561   3.471  0.00  0.00    -0.254 OA
ATOM     87  O5M NTO d 869      68.023  -2.383  19.771  0.00  0.00    -0.364 OA
ATOM     88  O3C NTO d 869      67.149  -0.790   8.603  0.00  0.00    -0.572 OA
ATOM     89  C1K NTO d 869      62.567   7.103   5.602  0.00  0.00     0.150 C 
ATOM     90  O32 NTO d 869      62.060  -1.485  10.133  0.00  0.00    -0.349 OA
ATOM     91  O34 NTO d 869      60.180   0.411   9.013  0.00  0.00    -0.254 OA
ATOM     92  H   NTO d 869      64.934  -4.374  10.865  0.00  0.00     0.231 HD
ATOM     93  H   NTO d 869      59.895   9.030   7.764  0.00  0.00     0.231 HD
ATOM     94  H   NTO d 869      63.494  -1.197  14.478  0.00  0.00     0.104 H 
ATOM     95  H   NTO d 869      61.011   6.348   3.480  0.00  0.00     0.089 H 
ATOM     96  H   NTO d 869      67.681  -0.181  19.795  0.00  0.00     0.140 HD
ATOM     97  H   NTO d 869      60.479   6.792   6.720  0.00  0.00     0.140 HD
ATOM     98  H   NTO d 869      63.070  -4.113   9.274  0.00  0.00     0.231 HD
ATOM     99  H   NTO d 869      68.661  -3.193  21.546  0.00  0.00     0.066 H 
ATOM    100  H   NTO d 869      69.827  -2.181  20.729  0.00  0.00     0.066 H 
ATOM    101  H   NTO d 869      69.483  -3.783  20.121  0.00  0.00     0.066 H 
ATOM    102  H   NTO d 869      61.921   3.121   5.813  0.00  0.00     0.104 H 
ATOM    103  H   NTO d 869      61.076   4.768   7.400  0.00  0.00     0.091 H 
ATOM    104  H   NTO d 869      67.201  -2.239  15.543  0.00  0.00     0.091 H 
ATOM    105  H   NTO d 869      63.108  -3.220  14.841  0.00  0.00     0.097 H 
ATOM    106  H   NTO d 869      64.302  -3.913  12.163  0.00  0.00     0.091 H 
ATOM    107  H   NTO d 869      65.904  -2.390   9.614  0.00  0.00     0.140 HD
ATOM    108  H   NTO d 869      62.421  -1.675  12.436  0.00  0.00     0.092 H 
ATOM    109  H   NTO d 869      67.493   2.757  17.941  0.00  0.00     0.231 HD
ATOM    110  H   NTO d 869      63.948   5.237   6.638  0.00  0.00     0.092 H 
ATOM    111  H   NTO d 869      68.128  -5.573  16.717  0.00  0.00     0.080 H 
ATOM    112  H   NTO d 869      66.730  -5.096  15.771  0.00  0.00     0.080 H 
ATOM    113  H   NTO d 869      61.586  -3.698  13.018  0.00  0.00     0.210 HD
ATOM    114  H   NTO d 869      68.198   2.458  20.280  0.00  0.00     0.231 HD
ATOM    115  H   NTO d 869      61.730   2.304   7.997  0.00  0.00     0.133 H 
ATOM    116  H   NTO d 869      58.150   7.331   7.645  0.00  0.00     0.231 HD
ATOM    117  H   NTO d 869      62.410   8.933   2.845  0.00  0.00     0.091 H 
ATOM    118  H   NTO d 869      61.291   8.794   5.216  0.00  0.00     0.076 H 
ATOM    119  H   NTO d 869      63.658   6.263   3.406  0.00  0.00     0.090 H 
ATOM    120  H   NTO d 869      63.606   4.423   9.007  0.00  0.00     0.094 H 
ATOM    121  H   NTO d 869      62.812   0.140  11.102  0.00  0.00     0.090 H 
ATOM    122  H   NTO d 869      63.499  -2.087   8.003  0.00  0.00     0.076 H 
ATOM    123  H   NTO d 869      69.904   0.259  17.365  0.00  0.00     0.231 HD
ATOM    124  H   NTO d 869      68.366  -0.488  17.036  0.00  0.00     0.076 H 
ATOM    125  H   NTO d 869      60.081   9.029   3.175  0.00  0.00     0.210 HD
ATOM    126  H   NTO d 869      69.575  -1.685  18.682  0.00  0.00     0.131 H 
ATOM    127  H   NTO d 869      62.533   0.314   8.111  0.00  0.00     0.091 H 
ATOM    128  H   NTO d 869      60.873   3.846   9.609  0.00  0.00     0.210 HD
ATOM    129  H   NTO d 869      63.123  -3.239  10.231  0.00  0.00     0.131 H 
ATOM    130  H   NTO d 869      66.009  -3.678  14.197  0.00  0.00     0.133 H 
ATOM    131  H   NTO d 869      64.775   9.038   2.902  0.00  0.00     0.080 H 
ATOM    132  H   NTO d 869      64.890   7.666   1.810  0.00  0.00     0.080 H 
ATOM    133  H   NTO d 869      66.809  -3.916  17.989  0.00  0.00     0.090 H 
ATOM    134  H   NTO d 869      65.707  -5.861   7.768  0.00  0.00     0.231 HD
ATOM    135  H   NTO d 869      62.281   6.394   1.522  0.00  0.00     0.210 HD
ATOM    136  H   NTO d 869      65.836  -1.624  18.188  0.00  0.00     0.089 H 
ATOM    137  H   NTO d 869      63.028   6.621   8.349  0.00  0.00     0.210 HD
ATOM    138  H   NTO d 869      66.365  -0.026  15.874  0.00  0.00     0.210 HD
ATOM    139  H   NTO d 869      59.334   9.242   4.294  0.00  0.00     0.231 HD
ATOM    140  H   NTO d 869      61.072   1.698  10.330  0.00  0.00     0.080 H 
ATOM    141  H   NTO d 869      60.339   0.261  11.039  0.00  0.00     0.080 H 
ATOM    142  H   NTO d 869      65.004  -0.136   9.744  0.00  0.00     0.092 H 
ATOM    143  H   NTO d 869      62.708   7.270   6.649  0.00  0.00     0.131 H 
ENDROOT
TORSDOF 46
ENDMDL
MODEL 67
REMARK VINA RESULT:      -5.5      4.510     13.689
REMARK  0 active torsions:
REMARK  status: ('A' for Active; 'I' for Inactive)
REMARK       I    between atoms: O3I_1  and  S3H_51 
REMARK       I    between atoms: O1I_2  and  S1G_48 
REMARK       I    between atoms: O54_3  and  C53_28 
REMARK       I    between atoms: O54_3  and  S55_64 
REMARK       I    between atoms: C41_5  and  C43_30 
REMARK       I    between atoms: C1B_6  and  O1C_53 
REMARK       I    between atoms: O4G_7  and  C4F_62 
REMARK       I    between atoms: O4G_7  and  C50_15 
REMARK       I    between atoms: N5G_8  and  C5F_50 
REMARK       I    between atoms: N5G_8  and  S5H_47 
REMARK       I    between atoms: N1F_9  and  C1E_41 
REMARK       I    between atoms: N1F_9  and  S1G_48 
REMARK       I    between atoms: O3K_10  and  S3H_51 
REMARK       I    between atoms: C5N_11  and  O5M_87 
REMARK       I    between atoms: C21_12  and  C23_57 
REMARK       I    between atoms: C26_13  and  O27_73 
REMARK       I    between atoms: C49_16  and  O4A_21 
REMARK       I    between atoms: O2D_17  and  C2C_35 
REMARK       I    between atoms: O2D_17  and  C30_56 
REMARK       I    between atoms: O1L_18  and  C1K_89 
REMARK       I    between atoms: O1L_18  and  C20_27 
REMARK       I    between atoms: C46_20  and  O47_33 
REMARK       I    between atoms: O4A_21  and  S4B_39 
REMARK       I    between atoms: N3G_22  and  C3F_46 
REMARK       I    between atoms: N3G_22  and  S3H_51 
REMARK       I    between atoms: C40_25  and  O3M_29 
REMARK       I    between atoms: O5I_26  and  S5H_47 
REMARK       I    between atoms: C53_28  and  C51_66 
REMARK       I    between atoms: O3M_29  and  C3L_61 
REMARK       I    between atoms: S17_31  and  O16_86 
REMARK       I    between atoms: O5K_34  and  S5H_47 
REMARK       I    between atoms: O1J_37  and  S1G_48 
REMARK       I    between atoms: C12_38  and  O10_70 
REMARK       I    between atoms: C13_42  and  C15_63 
REMARK       I    between atoms: C29_43  and  O2A_60 
REMARK       I    between atoms: C31_45  and  C33_81 
REMARK       I    between atoms: S5H_47  and  O5J_49 
REMARK       I    between atoms: S1G_48  and  O1H_78 
REMARK       I    between atoms: S3H_51  and  O3J_68 
REMARK       I    between atoms: O3A_54  and  C39_85 
REMARK       I    between atoms: O3A_54  and  S3B_83 
REMARK       I    between atoms: C5L_55  and  O5M_87 
REMARK       I    between atoms: C15_63  and  O16_86 
REMARK       I    between atoms: C59_71  and  O5A_75 
REMARK       I    between atoms: C33_81  and  O34_91 
REMARK       I    between atoms: S35_82  and  O34_91 
ROOT
ATOM      1  O3I NTO d 869      66.308   1.100   4.913  0.00  0.00    -0.296 OA
ATOM      2  O1I NTO d 869      67.855   0.696  20.523  0.00  0.00    -0.296 OA
ATOM      3  O54 NTO d 869      61.307   3.868   3.709  0.00  0.00    -0.254 OA
ATOM      4  O18 NTO d 869      62.839  -5.735  18.539  0.00  0.00    -0.572 OA
ATOM      5  C41 NTO d 869      64.550   4.628   8.245  0.00  0.00     0.152 C 
ATOM      6  C1B NTO d 869      68.869  -2.867  18.646  0.00  0.00     0.083 C 
ATOM      7  O4G NTO d 869      63.008   6.164   5.843  0.00  0.00    -0.348 OA
ATOM      8  N5G NTO d 869      58.728   7.400   7.760  0.00  0.00    -0.210 NA
ATOM      9  N1F NTO d 869      68.688  -0.441  18.395  0.00  0.00    -0.210 NA
ATOM     10  O3K NTO d 869      68.480   0.633   5.953  0.00  0.00    -0.296 OA
ATOM     11  C5N NTO d 869      57.775   8.297   4.128  0.00  0.00     0.007 C 
ATOM     12  C21 NTO d 869      67.602  -1.569  14.034  0.00  0.00     0.152 C 
ATOM     13  C26 NTO d 869      66.956   0.252  15.555  0.00  0.00     0.092 C 
ATOM     14  O4E NTO d 869      66.172   7.424   2.985  0.00  0.00    -0.572 OA
ATOM     15  C50 NTO d 869      61.606   5.855   5.829  0.00  0.00     0.095 C 
ATOM     16  C49 NTO d 869      65.286   5.394   5.879  0.00  0.00     0.134 C 
ATOM     17  O2D NTO d 869      66.256   1.101  11.951  0.00  0.00    -0.348 OA
ATOM     18  O1L NTO d 869      67.530  -1.985  16.391  0.00  0.00    -0.348 OA
ATOM     19  O19 NTO d 869      64.342  -7.625  18.109  0.00  0.00    -0.572 OA
ATOM     20  C46 NTO d 869      66.186   4.266   6.386  0.00  0.00     0.094 C 
ATOM     21  O4A NTO d 869      65.595   5.695   4.516  0.00  0.00    -0.244 OA
ATOM     22  N3G NTO d 869      66.338  -0.085   7.181  0.00  0.00    -0.210 NA
ATOM     23  O36 NTO d 869      70.170   2.035  13.817  0.00  0.00    -0.572 OA
ATOM     24  O57 NTO d 869      62.201   3.403   1.541  0.00  0.00    -0.572 OA
ATOM     25  C40 NTO d 869      65.891   4.017   7.864  0.00  0.00     0.103 C 
ATOM     26  O5I NTO d 869      58.021   5.931   9.722  0.00  0.00    -0.296 OA
ATOM     27  C20 NTO d 869      66.882  -1.258  15.337  0.00  0.00     0.103 C 
ATOM     28  C53 NTO d 869      61.638   5.229   3.428  0.00  0.00     0.067 C 
ATOM     29  O3M NTO d 869      65.857   2.600   8.070  0.00  0.00    -0.348 OA
ATOM     30  C43 NTO d 869      64.129   4.051   9.588  0.00  0.00     0.206 C 
ATOM     31  S17 NTO d 869      63.788  -6.347  17.552  0.00  0.00     0.251 S 
ATOM     32  O45 NTO d 869      64.108   2.805   9.712  0.00  0.00    -0.646 OA
ATOM     33  O47 NTO d 869      67.556   4.648   6.234  0.00  0.00    -0.390 OA
ATOM     34  O5K NTO d 869      56.442   7.616   8.897  0.00  0.00    -0.296 OA
ATOM     35  C2C NTO d 869      66.968   0.509  13.051  0.00  0.00     0.160 C 
ATOM     36  O38 NTO d 869      71.717   2.835  12.103  0.00  0.00    -0.572 OA
ATOM     37  O1J NTO d 869      69.909   1.521  19.473  0.00  0.00    -0.296 OA
ATOM     38  C12 NTO d 869      68.061  -4.158  18.800  0.00  0.00     0.089 C 
ATOM     39  S4B NTO d 869      66.219   6.978   4.414  0.00  0.00     0.252 S 
ATOM     40  O4D NTO d 869      67.644   6.882   4.872  0.00  0.00    -0.572 OA
ATOM     41  C1E NTO d 869      67.931  -1.660  18.703  0.00  0.00     0.081 C 
ATOM     42  C13 NTO d 869      66.892  -4.191  17.813  0.00  0.00     0.090 C 
ATOM     43  C29 NTO d 869      66.312   0.957  14.359  0.00  0.00     0.110 C 
ATOM     44  O42 NTO d 869      63.560   4.317   7.249  0.00  0.00    -0.340 OA
ATOM     45  C31 NTO d 869      67.296   2.554  10.344  0.00  0.00     0.091 C 
ATOM     46  C3F NTO d 869      67.058   0.559   8.295  0.00  0.00     0.083 C 
ATOM     47  S5H NTO d 869      57.498   6.626   8.502  0.00  0.00     0.156 S 
ATOM     48  S1G NTO d 869      69.101   0.297  19.788  0.00  0.00     0.156 S 
ATOM     49  O5J NTO d 869      56.892   5.618   7.572  0.00  0.00    -0.296 OA
ATOM     50  C5F NTO d 869      59.410   6.486   6.831  0.00  0.00     0.081 C 
ATOM     51  S3H NTO d 869      67.086   0.121   5.743  0.00  0.00     0.156 S 
ATOM     52  O25 NTO d 869      68.543  -3.715  14.447  0.00  0.00    -0.646 OA
ATOM     53  O1C NTO d 869      69.832  -2.777  19.699  0.00  0.00    -0.391 OA
ATOM     54  O3A NTO d 869      66.166  -1.011   9.921  0.00  0.00    -0.247 OA
ATOM     55  C5L NTO d 869      58.868   6.692   5.415  0.00  0.00     0.149 C 
ATOM     56  C30 NTO d 869      67.029   1.108  10.740  0.00  0.00     0.096 C 
ATOM     57  C23 NTO d 869      67.633  -3.080  13.863  0.00  0.00     0.206 C 
ATOM     58  O3E NTO d 869      63.930  -0.656  10.728  0.00  0.00    -0.572 OA
ATOM     59  O14 NTO d 869      66.083  -3.010  17.940  0.00  0.00    -0.349 OA
ATOM     60  O2A NTO d 869      66.458   2.370  14.508  0.00  0.00    -0.388 OA
ATOM     61  C3L NTO d 869      67.185   2.059   8.033  0.00  0.00     0.150 C 
ATOM     62  C4F NTO d 869      63.815   4.989   6.006  0.00  0.00     0.161 C 
ATOM     63  C15 NTO d 869      66.008  -5.397  18.141  0.00  0.00     0.067 C 
ATOM     64  S55 NTO d 869      61.734   2.814   2.838  0.00  0.00     0.251 S 
ATOM     65  O58 NTO d 869      60.581   1.891   2.586  0.00  0.00    -0.572 OA
ATOM     66  C51 NTO d 869      61.003   6.157   4.465  0.00  0.00     0.091 C 
ATOM     67  O56 NTO d 869      62.861   2.052   3.469  0.00  0.00    -0.572 OA
ATOM     68  O3J NTO d 869      67.162  -1.194   5.024  0.00  0.00    -0.296 OA
ATOM     69  O44 NTO d 869      63.829   4.852  10.511  0.00  0.00    -0.646 OA
ATOM     70  O10 NTO d 869      68.919  -5.270  18.534  0.00  0.00    -0.390 OA
ATOM     71  C59 NTO d 869      60.919   6.732   6.874  0.00  0.00     0.083 C 
ATOM     72  O52 NTO d 869      59.589   5.902   4.455  0.00  0.00    -0.349 OA
ATOM     73  O27 NTO d 869      66.250   0.609  16.746  0.00  0.00    -0.390 OA
ATOM     74  O1A NTO d 869      63.061  -6.625  16.272  0.00  0.00    -0.572 OA
ATOM     75  O5A NTO d 869      61.426   6.379   8.164  0.00  0.00    -0.391 OA
ATOM     76  O37 NTO d 869      70.027   4.349  13.038  0.00  0.00    -0.572 OA
ATOM     77  O24 NTO d 869      66.740  -3.615  13.163  0.00  0.00    -0.646 OA
ATOM     78  O1H NTO d 869      69.906  -0.646  20.630  0.00  0.00    -0.296 OA
ATOM     79  O22 NTO d 869      66.949  -0.923  12.926  0.00  0.00    -0.340 OA
ATOM     80  O3D NTO d 869      64.712  -2.899  10.129  0.00  0.00    -0.572 OA
ATOM     81  C33 NTO d 869      68.151   3.216  11.429  0.00  0.00     0.067 C 
ATOM     82  S35 NTO d 869      70.316   2.935  12.628  0.00  0.00     0.251 S 
ATOM     83  S3B NTO d 869      64.806  -1.440   9.795  0.00  0.00     0.252 S 
ATOM     84  O4C NTO d 869      65.479   7.967   5.265  0.00  0.00    -0.572 OA
ATOM     85  C39 NTO d 869      66.294   0.381   9.609  0.00  0.00     0.108 C 
ATOM     86  O16 NTO d 869      64.859  -5.432  17.292  0.00  0.00    -0.254 OA
ATOM     87  O5M NTO d 869      58.833   8.081   5.067  0.00  0.00    -0.364 OA
ATOM     88  O3C NTO d 869      64.336  -1.231   8.386  0.00  0.00    -0.572 OA
ATOM     89  C1K NTO d 869      66.844  -1.830  17.641  0.00  0.00     0.150 C 
ATOM     90  O32 NTO d 869      67.974   2.643   9.082  0.00  0.00    -0.349 OA
ATOM     91  O34 NTO d 869      69.399   2.539  11.600  0.00  0.00    -0.254 OA
ATOM     92  H   NTO d 869      66.258   1.950   5.378  0.00  0.00     0.231 HD
ATOM     93  H   NTO d 869      67.337   1.306  19.975  0.00  0.00     0.231 HD
ATOM     94  H   NTO d 869      64.640   5.693   8.309  0.00  0.00     0.104 H 
ATOM     95  H   NTO d 869      69.373  -2.875  17.702  0.00  0.00     0.089 H 
ATOM     96  H   NTO d 869      58.361   8.197   7.241  0.00  0.00     0.140 HD
ATOM     97  H   NTO d 869      68.111   0.186  17.834  0.00  0.00     0.140 HD
ATOM     98  H   NTO d 869      68.445   1.485   6.417  0.00  0.00     0.231 HD
ATOM     99  H   NTO d 869      57.740   9.333   3.861  0.00  0.00     0.066 H 
ATOM    100  H   NTO d 869      56.843   8.012   4.569  0.00  0.00     0.066 H 
ATOM    101  H   NTO d 869      57.950   7.709   3.252  0.00  0.00     0.066 H 
ATOM    102  H   NTO d 869      68.603  -1.193  14.061  0.00  0.00     0.104 H 
ATOM    103  H   NTO d 869      67.980   0.548  15.650  0.00  0.00     0.091 H 
ATOM    104  H   NTO d 869      61.469   4.815   6.041  0.00  0.00     0.091 H 
ATOM    105  H   NTO d 869      65.459   6.267   6.472  0.00  0.00     0.097 H 
ATOM    106  H   NTO d 869      65.998   3.375   5.826  0.00  0.00     0.091 H 
ATOM    107  H   NTO d 869      65.402   0.317   7.122  0.00  0.00     0.140 HD
ATOM    108  H   NTO d 869      66.646   4.468   8.472  0.00  0.00     0.092 H 
ATOM    109  H   NTO d 869      58.413   6.584  10.323  0.00  0.00     0.231 HD
ATOM    110  H   NTO d 869      65.854  -1.552  15.316  0.00  0.00     0.092 H 
ATOM    111  H   NTO d 869      61.275   5.486   2.455  0.00  0.00     0.080 H 
ATOM    112  H   NTO d 869      62.702   5.343   3.465  0.00  0.00     0.080 H 
ATOM    113  H   NTO d 869      67.725   5.456   6.743  0.00  0.00     0.210 HD
ATOM    114  H   NTO d 869      56.825   8.274   9.500  0.00  0.00     0.231 HD
ATOM    115  H   NTO d 869      67.990   0.825  13.047  0.00  0.00     0.133 H 
ATOM    116  H   NTO d 869      69.381   2.126  18.928  0.00  0.00     0.231 HD
ATOM    117  H   NTO d 869      67.672  -4.206  19.795  0.00  0.00     0.091 H 
ATOM    118  H   NTO d 869      67.497  -1.589  19.679  0.00  0.00     0.076 H 
ATOM    119  H   NTO d 869      67.287  -4.248  16.820  0.00  0.00     0.090 H 
ATOM    120  H   NTO d 869      65.274   0.701  14.326  0.00  0.00     0.094 H 
ATOM    121  H   NTO d 869      66.356   3.056  10.247  0.00  0.00     0.090 H 
ATOM    122  H   NTO d 869      68.022   0.101   8.369  0.00  0.00     0.076 H 
ATOM    123  H   NTO d 869      57.567   4.973   7.310  0.00  0.00     0.231 HD
ATOM    124  H   NTO d 869      59.224   5.475   7.125  0.00  0.00     0.076 H 
ATOM    125  H   NTO d 869      69.375  -2.768  20.555  0.00  0.00     0.210 HD
ATOM    126  H   NTO d 869      57.857   6.344   5.398  0.00  0.00     0.131 H 
ATOM    127  H   NTO d 869      67.951   0.593  10.911  0.00  0.00     0.091 H 
ATOM    128  H   NTO d 869      67.401   2.597  14.539  0.00  0.00     0.210 HD
ATOM    129  H   NTO d 869      67.652   2.260   7.091  0.00  0.00     0.131 H 
ATOM    130  H   NTO d 869      63.563   4.286   5.240  0.00  0.00     0.133 H 
ATOM    131  H   NTO d 869      65.689  -5.332  19.160  0.00  0.00     0.080 H 
ATOM    132  H   NTO d 869      66.576  -6.290  17.984  0.00  0.00     0.080 H 
ATOM    133  H   NTO d 869      61.184   7.188   4.243  0.00  0.00     0.090 H 
ATOM    134  H   NTO d 869      67.606  -1.071   4.171  0.00  0.00     0.231 HD
ATOM    135  H   NTO d 869      69.260  -5.205  17.628  0.00  0.00     0.210 HD
ATOM    136  H   NTO d 869      61.110   7.766   6.673  0.00  0.00     0.089 H 
ATOM    137  H   NTO d 869      65.320   0.342  16.664  0.00  0.00     0.210 HD
ATOM    138  H   NTO d 869      61.248   5.442   8.336  0.00  0.00     0.210 HD
ATOM    139  H   NTO d 869      69.377  -1.434  20.830  0.00  0.00     0.231 HD
ATOM    140  H   NTO d 869      67.615   3.196  12.355  0.00  0.00     0.080 H 
ATOM    141  H   NTO d 869      68.354   4.223  11.128  0.00  0.00     0.080 H 
ATOM    142  H   NTO d 869      65.316   0.800   9.502  0.00  0.00     0.092 H 
ATOM    143  H   NTO d 869      66.173  -0.996  17.609  0.00  0.00     0.131 H 
ENDROOT
TORSDOF 46
ENDMDL
MODEL 68
REMARK VINA RESULT:      -5.4      6.593     13.864
REMARK  0 active torsions:
REMARK  status: ('A' for Active; 'I' for Inactive)
REMARK       I    between atoms: O3I_1  and  S3H_51 
REMARK       I    between atoms: O1I_2  and  S1G_48 
REMARK       I    between atoms: O54_3  and  C53_28 
REMARK       I    between atoms: O54_3  and  S55_64 
REMARK       I    between atoms: C41_5  and  C43_30 
REMARK       I    between atoms: C1B_6  and  O1C_53 
REMARK       I    between atoms: O4G_7  and  C4F_62 
REMARK       I    between atoms: O4G_7  and  C50_15 
REMARK       I    between atoms: N5G_8  and  C5F_50 
REMARK       I    between atoms: N5G_8  and  S5H_47 
REMARK       I    between atoms: N1F_9  and  C1E_41 
REMARK       I    between atoms: N1F_9  and  S1G_48 
REMARK       I    between atoms: O3K_10  and  S3H_51 
REMARK       I    between atoms: C5N_11  and  O5M_87 
REMARK       I    between atoms: C21_12  and  C23_57 
REMARK       I    between atoms: C26_13  and  O27_73 
REMARK       I    between atoms: C49_16  and  O4A_21 
REMARK       I    between atoms: O2D_17  and  C2C_35 
REMARK       I    between atoms: O2D_17  and  C30_56 
REMARK       I    between atoms: O1L_18  and  C1K_89 
REMARK       I    between atoms: O1L_18  and  C20_27 
REMARK       I    between atoms: C46_20  and  O47_33 
REMARK       I    between atoms: O4A_21  and  S4B_39 
REMARK       I    between atoms: N3G_22  and  C3F_46 
REMARK       I    between atoms: N3G_22  and  S3H_51 
REMARK       I    between atoms: C40_25  and  O3M_29 
REMARK       I    between atoms: O5I_26  and  S5H_47 
REMARK       I    between atoms: C53_28  and  C51_66 
REMARK       I    between atoms: O3M_29  and  C3L_61 
REMARK       I    between atoms: S17_31  and  O16_86 
REMARK       I    between atoms: O5K_34  and  S5H_47 
REMARK       I    between atoms: O1J_37  and  S1G_48 
REMARK       I    between atoms: C12_38  and  O10_70 
REMARK       I    between atoms: C13_42  and  C15_63 
REMARK       I    between atoms: C29_43  and  O2A_60 
REMARK       I    between atoms: C31_45  and  C33_81 
REMARK       I    between atoms: S5H_47  and  O5J_49 
REMARK       I    between atoms: S1G_48  and  O1H_78 
REMARK       I    between atoms: S3H_51  and  O3J_68 
REMARK       I    between atoms: O3A_54  and  C39_85 
REMARK       I    between atoms: O3A_54  and  S3B_83 
REMARK       I    between atoms: C5L_55  and  O5M_87 
REMARK       I    between atoms: C15_63  and  O16_86 
REMARK       I    between atoms: C59_71  and  O5A_75 
REMARK       I    between atoms: C33_81  and  O34_91 
REMARK       I    between atoms: S35_82  and  O34_91 
ROOT
ATOM      1  O3I NTO d 869      70.844   0.500   6.281  0.00  0.00    -0.296 OA
ATOM      2  O1I NTO d 869      66.133   0.817  21.245  0.00  0.00    -0.296 OA
ATOM      3  O54 NTO d 869      66.919   3.468   3.134  0.00  0.00    -0.254 OA
ATOM      4  O18 NTO d 869      61.857  -5.427  17.616  0.00  0.00    -0.572 OA
ATOM      5  C41 NTO d 869      68.174   4.285   8.559  0.00  0.00     0.152 C 
ATOM      6  C1B NTO d 869      67.548  -2.886  20.012  0.00  0.00     0.083 C 
ATOM      7  O4G NTO d 869      67.805   5.776   5.704  0.00  0.00    -0.348 OA
ATOM      8  N5G NTO d 869      63.214   7.338   5.750  0.00  0.00    -0.210 NA
ATOM      9  N1F NTO d 869      67.650  -0.470  19.647  0.00  0.00    -0.210 NA
ATOM     10  O3K NTO d 869      72.399  -0.028   8.103  0.00  0.00    -0.296 OA
ATOM     11  C5N NTO d 869      63.822   8.097   2.013  0.00  0.00     0.007 C 
ATOM     12  C21 NTO d 869      68.280  -1.761  15.241  0.00  0.00     0.152 C 
ATOM     13  C26 NTO d 869      67.219   0.168  16.337  0.00  0.00     0.092 C 
ATOM     14  O4E NTO d 869      71.915   6.715   4.290  0.00  0.00    -0.572 OA
ATOM     15  C50 NTO d 869      66.503   5.542   5.148  0.00  0.00     0.095 C 
ATOM     16  C49 NTO d 869      69.829   4.887   6.654  0.00  0.00     0.134 C 
ATOM     17  O2D NTO d 869      68.045   0.867  12.728  0.00  0.00    -0.348 OA
ATOM     18  O1L NTO d 869      67.263  -2.051  17.390  0.00  0.00    -0.348 OA
ATOM     19  O19 NTO d 869      63.272  -7.415  17.862  0.00  0.00    -0.572 OA
ATOM     20  C46 NTO d 869      70.377   3.740   7.504  0.00  0.00     0.094 C 
ATOM     21  O4A NTO d 869      70.666   5.100   5.515  0.00  0.00    -0.244 OA
ATOM     22  N3G NTO d 869      69.903  -0.566   8.408  0.00  0.00    -0.210 NA
ATOM     23  O36 NTO d 869      70.972   1.683  15.959  0.00  0.00    -0.572 OA
ATOM     24  O57 NTO d 869      68.554   2.845   1.505  0.00  0.00    -0.572 OA
ATOM     25  C40 NTO d 869      69.511   3.584   8.752  0.00  0.00     0.103 C 
ATOM     26  O5I NTO d 869      61.696   6.012   7.313  0.00  0.00    -0.296 OA
ATOM     27  C20 NTO d 869      67.131  -1.346  16.148  0.00  0.00     0.103 C 
ATOM     28  C53 NTO d 869      67.428   4.793   2.970  0.00  0.00     0.067 C 
ATOM     29  O3M NTO d 869      69.301   2.183   8.965  0.00  0.00    -0.348 OA
ATOM     30  C43 NTO d 869      67.223   3.801   9.642  0.00  0.00     0.206 C 
ATOM     31  S17 NTO d 869      63.070  -6.140  17.099  0.00  0.00     0.251 S 
ATOM     32  O45 NTO d 869      67.068   2.566   9.780  0.00  0.00    -0.646 OA
ATOM     33  O47 NTO d 869      71.721   4.039   7.893  0.00  0.00    -0.390 OA
ATOM     34  O5K NTO d 869      60.687   7.735   5.889  0.00  0.00    -0.296 OA
ATOM     35  C2C NTO d 869      68.228   0.294  14.034  0.00  0.00     0.160 C 
ATOM     36  O38 NTO d 869      73.119   2.310  14.971  0.00  0.00    -0.572 OA
ATOM     37  O1J NTO d 869      68.486   1.476  21.066  0.00  0.00    -0.296 OA
ATOM     38  C12 NTO d 869      66.657  -4.123  19.870  0.00  0.00     0.089 C 
ATOM     39  S4B NTO d 869      71.368   6.341   5.634  0.00  0.00     0.252 S 
ATOM     40  O4D NTO d 869      72.490   6.192   6.618  0.00  0.00    -0.572 OA
ATOM     41  C1E NTO d 869      66.750  -1.630  19.664  0.00  0.00     0.081 C 
ATOM     42  C13 NTO d 869      65.968  -4.143  18.503  0.00  0.00     0.090 C 
ATOM     43  C29 NTO d 869      67.145   0.844  14.967  0.00  0.00     0.110 C 
ATOM     44  O42 NTO d 869      67.633   3.977   7.261  0.00  0.00    -0.340 OA
ATOM     45  C31 NTO d 869      69.729   2.177  11.622  0.00  0.00     0.091 C 
ATOM     46  C3F NTO d 869      70.172   0.095   9.698  0.00  0.00     0.083 C 
ATOM     47  S5H NTO d 869      61.741   6.671   5.967  0.00  0.00     0.156 S 
ATOM     48  S1G NTO d 869      67.536   0.315  21.070  0.00  0.00     0.156 S 
ATOM     49  O5J NTO d 869      61.478   5.649   4.901  0.00  0.00    -0.296 OA
ATOM     50  C5F NTO d 869      64.139   6.342   5.188  0.00  0.00     0.081 C 
ATOM     51  S3H NTO d 869      71.166  -0.475   7.375  0.00  0.00     0.156 S 
ATOM     52  O25 NTO d 869      68.832  -3.931  16.047  0.00  0.00    -0.646 OA
ATOM     53  O1C NTO d 869      68.027  -2.794  21.356  0.00  0.00    -0.391 OA
ATOM     54  O3A NTO d 869      68.609  -1.339  10.882  0.00  0.00    -0.247 OA
ATOM     55  C5L NTO d 869      64.210   6.503   3.669  0.00  0.00     0.149 C 
ATOM     56  C30 NTO d 869      69.228   0.770  11.919  0.00  0.00     0.096 C 
ATOM     57  C23 NTO d 869      68.270  -3.279  15.136  0.00  0.00     0.206 C 
ATOM     58  O3E NTO d 869      66.266  -0.823  10.735  0.00  0.00    -0.572 OA
ATOM     59  O14 NTO d 869      65.258  -2.916  18.271  0.00  0.00    -0.349 OA
ATOM     60  O2A NTO d 869      67.319   2.253  15.124  0.00  0.00    -0.388 OA
ATOM     61  C3L NTO d 869      70.496   1.570   9.468  0.00  0.00     0.150 C 
ATOM     62  C4F NTO d 869      68.400   4.569   6.202  0.00  0.00     0.161 C 
ATOM     63  C15 NTO d 869      64.944  -5.282  18.488  0.00  0.00     0.067 C 
ATOM     64  S55 NTO d 869      67.578   2.349   2.530  0.00  0.00     0.251 S 
ATOM     65  O58 NTO d 869      66.554   1.477   1.868  0.00  0.00    -0.572 OA
ATOM     66  C51 NTO d 869      66.504   5.806   3.650  0.00  0.00     0.091 C 
ATOM     67  O56 NTO d 869      68.312   1.561   3.573  0.00  0.00    -0.572 OA
ATOM     68  O3J NTO d 869      71.425  -1.828   6.779  0.00  0.00    -0.296 OA
ATOM     69  O44 NTO d 869      66.642   4.663  10.352  0.00  0.00    -0.646 OA
ATOM     70  O10 NTO d 869      67.472  -5.291  19.992  0.00  0.00    -0.390 OA
ATOM     71  C59 NTO d 869      65.525   6.508   5.815  0.00  0.00     0.083 C 
ATOM     72  O52 NTO d 869      65.192   5.627   3.091  0.00  0.00    -0.349 OA
ATOM     73  O27 NTO d 869      66.130   0.623  17.145  0.00  0.00    -0.390 OA
ATOM     74  O1A NTO d 869      62.884  -6.444  15.644  0.00  0.00    -0.572 OA
ATOM     75  O5A NTO d 869      65.461   6.195   7.210  0.00  0.00    -0.391 OA
ATOM     76  O37 NTO d 869      71.307   3.958  15.126  0.00  0.00    -0.572 OA
ATOM     77  O24 NTO d 869      67.687  -3.801  14.156  0.00  0.00    -0.646 OA
ATOM     78  O1H NTO d 869      67.880  -0.626  22.186  0.00  0.00    -0.296 OA
ATOM     79  O22 NTO d 869      68.159  -1.139  13.949  0.00  0.00    -0.340 OA
ATOM     80  O3D NTO d 869      67.061  -3.133  10.551  0.00  0.00    -0.572 OA
ATOM     81  C33 NTO d 869      70.136   2.847  12.938  0.00  0.00     0.067 C 
ATOM     82  S35 NTO d 869      71.635   2.512  14.900  0.00  0.00     0.251 S 
ATOM     83  S3B NTO d 869      67.380  -1.700  10.243  0.00  0.00     0.252 S 
ATOM     84  O4C NTO d 869      70.425   7.411   6.098  0.00  0.00    -0.572 OA
ATOM     85  C39 NTO d 869      68.946   0.026  10.610  0.00  0.00     0.108 C 
ATOM     86  O16 NTO d 869      64.219  -5.299  17.257  0.00  0.00    -0.254 OA
ATOM     87  O5M NTO d 869      64.412   7.873   3.298  0.00  0.00    -0.364 OA
ATOM     88  O3C NTO d 869      67.514  -1.540   8.758  0.00  0.00    -0.572 OA
ATOM     89  C1K NTO d 869      66.156  -1.795  18.265  0.00  0.00     0.150 C 
ATOM     90  O32 NTO d 869      70.852   2.163  10.727  0.00  0.00    -0.349 OA
ATOM     91  O34 NTO d 869      71.168   2.113  13.604  0.00  0.00    -0.254 OA
ATOM     92  H   NTO d 869      70.677   1.374   6.666  0.00  0.00     0.231 HD
ATOM     93  H   NTO d 869      65.914   1.425  20.522  0.00  0.00     0.231 HD
ATOM     94  H   NTO d 869      68.306   5.345   8.625  0.00  0.00     0.104 H 
ATOM     95  H   NTO d 869      68.380  -2.971  19.344  0.00  0.00     0.089 H 
ATOM     96  H   NTO d 869      63.136   8.126   5.107  0.00  0.00     0.140 HD
ATOM     97  H   NTO d 869      67.384   0.157  18.888  0.00  0.00     0.140 HD
ATOM     98  H   NTO d 869      72.244   0.846   8.494  0.00  0.00     0.231 HD
ATOM     99  H   NTO d 869      63.967   9.118   1.728  0.00  0.00     0.066 H 
ATOM    100  H   NTO d 869      62.774   7.885   2.059  0.00  0.00     0.066 H 
ATOM    101  H   NTO d 869      64.284   7.455   1.292  0.00  0.00     0.066 H 
ATOM    102  H   NTO d 869      69.214  -1.439  15.651  0.00  0.00     0.104 H 
ATOM    103  H   NTO d 869      68.142   0.413  16.820  0.00  0.00     0.091 H 
ATOM    104  H   NTO d 869      66.222   4.524   5.316  0.00  0.00     0.091 H 
ATOM    105  H   NTO d 869      69.816   5.779   7.244  0.00  0.00     0.097 H 
ATOM    106  H   NTO d 869      70.362   2.833   6.938  0.00  0.00     0.091 H 
ATOM    107  H   NTO d 869      69.095  -0.118   7.975  0.00  0.00     0.140 HD
ATOM    108  H   NTO d 869      69.998   4.024   9.596  0.00  0.00     0.092 H 
ATOM    109  H   NTO d 869      61.866   6.672   8.002  0.00  0.00     0.231 HD
ATOM    110  H   NTO d 869      66.175  -1.585  15.731  0.00  0.00     0.092 H 
ATOM    111  H   NTO d 869      67.492   5.019   1.927  0.00  0.00     0.080 H 
ATOM    112  H   NTO d 869      68.397   4.851   3.420  0.00  0.00     0.080 H 
ATOM    113  H   NTO d 869      71.733   4.862   8.406  0.00  0.00     0.210 HD
ATOM    114  H   NTO d 869      60.848   8.401   6.576  0.00  0.00     0.231 HD
ATOM    115  H   NTO d 869      69.188   0.554  14.425  0.00  0.00     0.133 H 
ATOM    116  H   NTO d 869      68.257   2.079  20.342  0.00  0.00     0.231 HD
ATOM    117  H   NTO d 869      65.908  -4.098  20.633  0.00  0.00     0.091 H 
ATOM    118  H   NTO d 869      65.975  -1.485  20.388  0.00  0.00     0.076 H 
ATOM    119  H   NTO d 869      66.714  -4.272  17.748  0.00  0.00     0.090 H 
ATOM    120  H   NTO d 869      66.187   0.642  14.534  0.00  0.00     0.094 H 
ATOM    121  H   NTO d 869      68.940   2.723  11.150  0.00  0.00     0.090 H 
ATOM    122  H   NTO d 869      70.997  -0.410  10.158  0.00  0.00     0.076 H 
ATOM    123  H   NTO d 869      62.155   4.956   4.943  0.00  0.00     0.231 HD
ATOM    124  H   NTO d 869      63.783   5.358   5.412  0.00  0.00     0.076 H 
ATOM    125  H   NTO d 869      67.273  -2.717  21.963  0.00  0.00     0.210 HD
ATOM    126  H   NTO d 869      63.264   6.210   3.264  0.00  0.00     0.131 H 
ATOM    127  H   NTO d 869      69.972   0.215  12.452  0.00  0.00     0.091 H 
ATOM    128  H   NTO d 869      68.188   2.430  15.517  0.00  0.00     0.210 HD
ATOM    129  H   NTO d 869      71.307   1.696   8.780  0.00  0.00     0.131 H 
ATOM    130  H   NTO d 869      68.419   3.842   5.418  0.00  0.00     0.133 H 
ATOM    131  H   NTO d 869      64.258  -5.147  19.298  0.00  0.00     0.080 H 
ATOM    132  H   NTO d 869      65.465  -6.211  18.592  0.00  0.00     0.080 H 
ATOM    133  H   NTO d 869      66.828   6.813   3.490  0.00  0.00     0.090 H 
ATOM    134  H   NTO d 869      72.175  -1.773   6.166  0.00  0.00     0.231 HD
ATOM    135  H   NTO d 869      68.143  -5.292  19.291  0.00  0.00     0.210 HD
ATOM    136  H   NTO d 869      65.851   7.518   5.679  0.00  0.00     0.089 H 
ATOM    137  H   NTO d 869      65.291   0.402  16.711  0.00  0.00     0.210 HD
ATOM    138  H   NTO d 869      65.165   5.279   7.322  0.00  0.00     0.210 HD
ATOM    139  H   NTO d 869      67.261  -1.373  22.181  0.00  0.00     0.231 HD
ATOM    140  H   NTO d 869      69.281   2.903  13.579  0.00  0.00     0.080 H 
ATOM    141  H   NTO d 869      70.510   3.824  12.715  0.00  0.00     0.080 H 
ATOM    142  H   NTO d 869      68.119   0.491  10.115  0.00  0.00     0.092 H 
ATOM    143  H   NTO d 869      65.611  -0.929  17.950  0.00  0.00     0.131 H 
ENDROOT
TORSDOF 46
ENDMDL
MODEL 69
REMARK VINA RESULT:      -5.4      4.115      5.814
REMARK  0 active torsions:
REMARK  status: ('A' for Active; 'I' for Inactive)
REMARK       I    between atoms: O3I_1  and  S3H_51 
REMARK       I    between atoms: O1I_2  and  S1G_48 
REMARK       I    between atoms: O54_3  and  C53_28 
REMARK       I    between atoms: O54_3  and  S55_64 
REMARK       I    between atoms: C41_5  and  C43_30 
REMARK       I    between atoms: C1B_6  and  O1C_53 
REMARK       I    between atoms: O4G_7  and  C4F_62 
REMARK       I    between atoms: O4G_7  and  C50_15 
REMARK       I    between atoms: N5G_8  and  C5F_50 
REMARK       I    between atoms: N5G_8  and  S5H_47 
REMARK       I    between atoms: N1F_9  and  C1E_41 
REMARK       I    between atoms: N1F_9  and  S1G_48 
REMARK       I    between atoms: O3K_10  and  S3H_51 
REMARK       I    between atoms: C5N_11  and  O5M_87 
REMARK       I    between atoms: C21_12  and  C23_57 
REMARK       I    between atoms: C26_13  and  O27_73 
REMARK       I    between atoms: C49_16  and  O4A_21 
REMARK       I    between atoms: O2D_17  and  C2C_35 
REMARK       I    between atoms: O2D_17  and  C30_56 
REMARK       I    between atoms: O1L_18  and  C1K_89 
REMARK       I    between atoms: O1L_18  and  C20_27 
REMARK       I    between atoms: C46_20  and  O47_33 
REMARK       I    between atoms: O4A_21  and  S4B_39 
REMARK       I    between atoms: N3G_22  and  C3F_46 
REMARK       I    between atoms: N3G_22  and  S3H_51 
REMARK       I    between atoms: C40_25  and  O3M_29 
REMARK       I    between atoms: O5I_26  and  S5H_47 
REMARK       I    between atoms: C53_28  and  C51_66 
REMARK       I    between atoms: O3M_29  and  C3L_61 
REMARK       I    between atoms: S17_31  and  O16_86 
REMARK       I    between atoms: O5K_34  and  S5H_47 
REMARK       I    between atoms: O1J_37  and  S1G_48 
REMARK       I    between atoms: C12_38  and  O10_70 
REMARK       I    between atoms: C13_42  and  C15_63 
REMARK       I    between atoms: C29_43  and  O2A_60 
REMARK       I    between atoms: C31_45  and  C33_81 
REMARK       I    between atoms: S5H_47  and  O5J_49 
REMARK       I    between atoms: S1G_48  and  O1H_78 
REMARK       I    between atoms: S3H_51  and  O3J_68 
REMARK       I    between atoms: O3A_54  and  C39_85 
REMARK       I    between atoms: O3A_54  and  S3B_83 
REMARK       I    between atoms: C5L_55  and  O5M_87 
REMARK       I    between atoms: C15_63  and  O16_86 
REMARK       I    between atoms: C59_71  and  O5A_75 
REMARK       I    between atoms: C33_81  and  O34_91 
REMARK       I    between atoms: S35_82  and  O34_91 
ROOT
ATOM      1  O3I NTO d 869      66.250   5.826  13.076  0.00  0.00    -0.296 OA
ATOM      2  O1I NTO d 869      64.574  -6.766   3.864  0.00  0.00    -0.296 OA
ATOM      3  O54 NTO d 869      66.945   3.922  18.554  0.00  0.00    -0.254 OA
ATOM      4  O18 NTO d 869      56.983  -5.263   7.113  0.00  0.00    -0.572 OA
ATOM      5  C41 NTO d 869      68.359   1.179  13.848  0.00  0.00     0.152 C 
ATOM      6  C1B NTO d 869      61.962  -3.668   2.959  0.00  0.00     0.083 C 
ATOM      7  O4G NTO d 869      69.444   2.126  16.752  0.00  0.00    -0.348 OA
ATOM      8  N5G NTO d 869      68.644  -1.688  19.637  0.00  0.00    -0.210 NA
ATOM      9  N1F NTO d 869      64.130  -4.253   3.927  0.00  0.00    -0.210 NA
ATOM     10  O3K NTO d 869      66.555   5.991  10.648  0.00  0.00    -0.296 OA
ATOM     11  C5N NTO d 869      69.532   0.751  22.495  0.00  0.00     0.007 C 
ATOM     12  C21 NTO d 869      63.210  -0.641   6.679  0.00  0.00     0.152 C 
ATOM     13  C26 NTO d 869      64.426  -2.759   6.964  0.00  0.00     0.092 C 
ATOM     14  O4E NTO d 869      72.192   5.533  15.964  0.00  0.00    -0.572 OA
ATOM     15  C50 NTO d 869      68.611   1.640  17.815  0.00  0.00     0.095 C 
ATOM     16  C49 NTO d 869      69.638   3.287  14.654  0.00  0.00     0.134 C 
ATOM     17  O2D NTO d 869      65.366  -0.222   9.586  0.00  0.00    -0.348 OA
ATOM     18  O1L NTO d 869      62.513  -2.565   5.436  0.00  0.00    -0.348 OA
ATOM     19  O19 NTO d 869      55.908  -3.697   5.562  0.00  0.00    -0.572 OA
ATOM     20  C46 NTO d 869      68.904   3.568  13.342  0.00  0.00     0.094 C 
ATOM     21  O4A NTO d 869      70.202   4.495  15.172  0.00  0.00    -0.244 OA
ATOM     22  N3G NTO d 869      64.905   4.251  11.574  0.00  0.00    -0.210 NA
ATOM     23  O36 NTO d 869      67.531  -0.448   5.723  0.00  0.00    -0.572 OA
ATOM     24  O57 NTO d 869      67.141   6.294  18.780  0.00  0.00    -0.572 OA
ATOM     25  C40 NTO d 869      68.379   2.253  12.770  0.00  0.00     0.103 C 
ATOM     26  O5I NTO d 869      66.787  -3.228  18.809  0.00  0.00    -0.296 OA
ATOM     27  C20 NTO d 869      63.049  -2.153   6.701  0.00  0.00     0.103 C 
ATOM     28  C53 NTO d 869      68.349   3.896  18.814  0.00  0.00     0.067 C 
ATOM     29  O3M NTO d 869      67.050   2.485  12.288  0.00  0.00    -0.348 OA
ATOM     30  C43 NTO d 869      67.502   0.024  13.353  0.00  0.00     0.206 C 
ATOM     31  S17 NTO d 869      56.921  -3.836   6.659  0.00  0.00     0.251 S 
ATOM     32  O45 NTO d 869      66.345   0.281  12.952  0.00  0.00    -0.646 OA
ATOM     33  O47 NTO d 869      69.811   4.163  12.409  0.00  0.00    -0.390 OA
ATOM     34  O5K NTO d 869      67.799  -3.690  20.994  0.00  0.00    -0.296 OA
ATOM     35  C2C NTO d 869      64.972  -0.686   8.284  0.00  0.00     0.160 C 
ATOM     36  O38 NTO d 869      69.082   1.434   5.549  0.00  0.00    -0.572 OA
ATOM     37  O1J NTO d 869      66.266  -5.247   2.951  0.00  0.00    -0.296 OA
ATOM     38  C12 NTO d 869      60.448  -3.755   3.171  0.00  0.00     0.089 C 
ATOM     39  S4B NTO d 869      71.629   4.462  15.080  0.00  0.00     0.252 S 
ATOM     40  O4D NTO d 869      72.048   4.699  13.660  0.00  0.00    -0.572 OA
ATOM     41  C1E NTO d 869      62.683  -4.472   4.041  0.00  0.00     0.081 C 
ATOM     42  C13 NTO d 869      60.078  -3.393   4.612  0.00  0.00     0.090 C 
ATOM     43  C29 NTO d 869      64.961  -2.217   8.291  0.00  0.00     0.110 C 
ATOM     44  O42 NTO d 869      67.808   1.707  15.068  0.00  0.00    -0.340 OA
ATOM     45  C31 NTO d 869      67.297   1.159   9.960  0.00  0.00     0.091 C 
ATOM     46  C3F NTO d 869      65.638   3.408  10.612  0.00  0.00     0.083 C 
ATOM     47  S5H NTO d 869      67.363  -2.611  20.048  0.00  0.00     0.156 S 
ATOM     48  S1G NTO d 869      64.794  -5.492   3.102  0.00  0.00     0.156 S 
ATOM     49  O5J NTO d 869      66.320  -1.770  20.720  0.00  0.00    -0.296 OA
ATOM     50  C5F NTO d 869      68.196  -0.333  19.285  0.00  0.00     0.081 C 
ATOM     51  S3H NTO d 869      65.564   5.736  11.744  0.00  0.00     0.156 S 
ATOM     52  O25 NTO d 869      61.577   0.043   5.089  0.00  0.00    -0.646 OA
ATOM     53  O1C NTO d 869      62.294  -4.190   1.670  0.00  0.00    -0.391 OA
ATOM     54  O3A NTO d 869      63.657   2.109  10.074  0.00  0.00    -0.247 OA
ATOM     55  C5L NTO d 869      68.343   0.590  20.496  0.00  0.00     0.149 C 
ATOM     56  C30 NTO d 869      65.826   1.139   9.566  0.00  0.00     0.096 C 
ATOM     57  C23 NTO d 869      61.867  -0.030   6.306  0.00  0.00     0.206 C 
ATOM     58  O3E NTO d 869      62.999   0.369  11.596  0.00  0.00    -0.572 OA
ATOM     59  O14 NTO d 869      60.818  -4.195   5.546  0.00  0.00    -0.349 OA
ATOM     60  O2A NTO d 869      66.287  -2.705   8.502  0.00  0.00    -0.388 OA
ATOM     61  C3L NTO d 869      67.086   3.239  11.069  0.00  0.00     0.150 C 
ATOM     62  C4F NTO d 869      68.673   2.678  15.675  0.00  0.00     0.161 C 
ATOM     63  C15 NTO d 869      58.590  -3.686   4.823  0.00  0.00     0.067 C 
ATOM     64  S55 NTO d 869      66.261   5.162  18.341  0.00  0.00     0.251 S 
ATOM     65  O58 NTO d 869      64.996   5.168  19.144  0.00  0.00    -0.572 OA
ATOM     66  C51 NTO d 869      68.816   2.463  19.078  0.00  0.00     0.091 C 
ATOM     67  O56 NTO d 869      65.934   5.325  16.886  0.00  0.00    -0.572 OA
ATOM     68  O3J NTO d 869      64.486   6.776  11.666  0.00  0.00    -0.296 OA
ATOM     69  O44 NTO d 869      68.000  -1.132  13.363  0.00  0.00    -0.646 OA
ATOM     70  O10 NTO d 869      59.807  -2.833   2.286  0.00  0.00    -0.390 OA
ATOM     71  C59 NTO d 869      69.010   0.194  18.102  0.00  0.00     0.083 C 
ATOM     72  O52 NTO d 869      68.027   1.951  20.164  0.00  0.00    -0.349 OA
ATOM     73  O27 NTO d 869      64.325  -4.183   7.044  0.00  0.00    -0.390 OA
ATOM     74  O1A NTO d 869      56.538  -2.963   7.815  0.00  0.00    -0.572 OA
ATOM     75  O5A NTO d 869      68.731  -0.592  16.939  0.00  0.00    -0.391 OA
ATOM     76  O37 NTO d 869      69.678  -0.532   6.892  0.00  0.00    -0.572 OA
ATOM     77  O24 NTO d 869      61.114   0.352   7.233  0.00  0.00    -0.646 OA
ATOM     78  O1H NTO d 869      64.149  -5.592   1.752  0.00  0.00    -0.296 OA
ATOM     79  O22 NTO d 869      63.677  -0.160   7.953  0.00  0.00    -0.340 OA
ATOM     80  O3D NTO d 869      61.338   1.880  10.616  0.00  0.00    -0.572 OA
ATOM     81  C33 NTO d 869      68.104   0.393   8.907  0.00  0.00     0.067 C 
ATOM     82  S35 NTO d 869      68.556   0.364   6.457  0.00  0.00     0.251 S 
ATOM     83  S3B NTO d 869      62.745   1.771  11.125  0.00  0.00     0.252 S 
ATOM     84  O4C NTO d 869      72.132   3.126  15.541  0.00  0.00    -0.572 OA
ATOM     85  C39 NTO d 869      65.013   2.015  10.524  0.00  0.00     0.108 C 
ATOM     86  O16 NTO d 869      58.209  -3.434   6.177  0.00  0.00    -0.254 OA
ATOM     87  O5M NTO d 869      69.637   0.459  21.098  0.00  0.00    -0.364 OA
ATOM     88  O3C NTO d 869      62.922   2.717  12.275  0.00  0.00    -0.572 OA
ATOM     89  C1K NTO d 869      62.230  -3.971   5.413  0.00  0.00     0.150 C 
ATOM     90  O32 NTO d 869      67.801   2.500  10.065  0.00  0.00    -0.349 OA
ATOM     91  O34 NTO d 869      67.959   0.976   7.608  0.00  0.00    -0.254 OA
ATOM     92  H   NTO d 869      66.948   5.154  13.126  0.00  0.00     0.231 HD
ATOM     93  H   NTO d 869      64.993  -6.697   4.736  0.00  0.00     0.231 HD
ATOM     94  H   NTO d 869      69.356   0.844  14.047  0.00  0.00     0.104 H 
ATOM     95  H   NTO d 869      62.269  -2.645   3.018  0.00  0.00     0.089 H 
ATOM     96  H   NTO d 869      69.289  -1.637  20.425  0.00  0.00     0.140 HD
ATOM     97  H   NTO d 869      64.542  -4.203   4.858  0.00  0.00     0.140 HD
ATOM     98  H   NTO d 869      67.259   5.325  10.687  0.00  0.00     0.231 HD
ATOM     99  H   NTO d 869      70.494   0.656  22.953  0.00  0.00     0.066 H 
ATOM    100  H   NTO d 869      68.849   0.066  22.952  0.00  0.00     0.066 H 
ATOM    101  H   NTO d 869      69.172   1.751  22.623  0.00  0.00     0.066 H 
ATOM    102  H   NTO d 869      63.945  -0.354   5.955  0.00  0.00     0.104 H 
ATOM    103  H   NTO d 869      65.088  -2.497   6.165  0.00  0.00     0.091 H 
ATOM    104  H   NTO d 869      67.584   1.711  17.522  0.00  0.00     0.091 H 
ATOM    105  H   NTO d 869      70.429   2.591  14.465  0.00  0.00     0.097 H 
ATOM    106  H   NTO d 869      68.087   4.235  13.522  0.00  0.00     0.091 H 
ATOM    107  H   NTO d 869      64.908   3.787  12.483  0.00  0.00     0.140 HD
ATOM    108  H   NTO d 869      69.013   1.916  11.978  0.00  0.00     0.092 H 
ATOM    109  H   NTO d 869      67.461  -3.772  18.374  0.00  0.00     0.231 HD
ATOM    110  H   NTO d 869      62.377  -2.481   7.467  0.00  0.00     0.092 H 
ATOM    111  H   NTO d 869      68.559   4.499  19.673  0.00  0.00     0.080 H 
ATOM    112  H   NTO d 869      68.868   4.279  17.960  0.00  0.00     0.080 H 
ATOM    113  H   NTO d 869      70.551   3.557  12.247  0.00  0.00     0.210 HD
ATOM    114  H   NTO d 869      68.475  -4.241  20.568  0.00  0.00     0.231 HD
ATOM    115  H   NTO d 869      65.664  -0.347   7.542  0.00  0.00     0.133 H 
ATOM    116  H   NTO d 869      66.675  -5.183   3.828  0.00  0.00     0.231 HD
ATOM    117  H   NTO d 869      60.128  -4.757   2.975  0.00  0.00     0.091 H 
ATOM    118  H   NTO d 869      62.457  -5.512   3.926  0.00  0.00     0.076 H 
ATOM    119  H   NTO d 869      60.304  -2.359   4.771  0.00  0.00     0.090 H 
ATOM    120  H   NTO d 869      64.322  -2.550   9.082  0.00  0.00     0.094 H 
ATOM    121  H   NTO d 869      67.395   0.696  10.920  0.00  0.00     0.090 H 
ATOM    122  H   NTO d 869      65.593   3.888   9.656  0.00  0.00     0.076 H 
ATOM    123  H   NTO d 869      66.031  -1.069  20.116  0.00  0.00     0.231 HD
ATOM    124  H   NTO d 869      67.165  -0.361  19.000  0.00  0.00     0.076 H 
ATOM    125  H   NTO d 869      62.016  -5.118   1.616  0.00  0.00     0.210 HD
ATOM    126  H   NTO d 869      67.629   0.282  21.231  0.00  0.00     0.131 H 
ATOM    127  H   NTO d 869      65.700   1.535   8.580  0.00  0.00     0.091 H 
ATOM    128  H   NTO d 869      66.862  -2.401   7.782  0.00  0.00     0.210 HD
ATOM    129  H   NTO d 869      67.569   4.183  11.218  0.00  0.00     0.131 H 
ATOM    130  H   NTO d 869      68.027   3.438  16.064  0.00  0.00     0.133 H 
ATOM    131  H   NTO d 869      58.398  -4.713   4.591  0.00  0.00     0.080 H 
ATOM    132  H   NTO d 869      58.021  -3.046   4.182  0.00  0.00     0.080 H 
ATOM    133  H   NTO d 869      69.853   2.422  19.336  0.00  0.00     0.090 H 
ATOM    134  H   NTO d 869      64.878   7.657  11.767  0.00  0.00     0.231 HD
ATOM    135  H   NTO d 869      60.112  -1.933   2.481  0.00  0.00     0.210 HD
ATOM    136  H   NTO d 869      70.052   0.138  18.342  0.00  0.00     0.089 H 
ATOM    137  H   NTO d 869      63.726  -4.425   7.768  0.00  0.00     0.210 HD
ATOM    138  H   NTO d 869      67.786  -0.534  16.730  0.00  0.00     0.210 HD
ATOM    139  H   NTO d 869      63.198  -5.751   1.858  0.00  0.00     0.231 HD
ATOM    140  H   NTO d 869      67.760  -0.619   8.874  0.00  0.00     0.080 H 
ATOM    141  H   NTO d 869      69.138   0.436   9.180  0.00  0.00     0.080 H 
ATOM    142  H   NTO d 869      65.022   1.568  11.497  0.00  0.00     0.092 H 
ATOM    143  H   NTO d 869      62.728  -4.475   6.215  0.00  0.00     0.131 H 
ENDROOT
TORSDOF 46
ENDMDL
MODEL 70
REMARK VINA RESULT:      -5.4      4.327     14.011
REMARK  0 active torsions:
REMARK  status: ('A' for Active; 'I' for Inactive)
REMARK       I    between atoms: O3I_1  and  S3H_51 
REMARK       I    between atoms: O1I_2  and  S1G_48 
REMARK       I    between atoms: O54_3  and  C53_28 
REMARK       I    between atoms: O54_3  and  S55_64 
REMARK       I    between atoms: C41_5  and  C43_30 
REMARK       I    between atoms: C1B_6  and  O1C_53 
REMARK       I    between atoms: O4G_7  and  C4F_62 
REMARK       I    between atoms: O4G_7  and  C50_15 
REMARK       I    between atoms: N5G_8  and  C5F_50 
REMARK       I    between atoms: N5G_8  and  S5H_47 
REMARK       I    between atoms: N1F_9  and  C1E_41 
REMARK       I    between atoms: N1F_9  and  S1G_48 
REMARK       I    between atoms: O3K_10  and  S3H_51 
REMARK       I    between atoms: C5N_11  and  O5M_87 
REMARK       I    between atoms: C21_12  and  C23_57 
REMARK       I    between atoms: C26_13  and  O27_73 
REMARK       I    between atoms: C49_16  and  O4A_21 
REMARK       I    between atoms: O2D_17  and  C2C_35 
REMARK       I    between atoms: O2D_17  and  C30_56 
REMARK       I    between atoms: O1L_18  and  C1K_89 
REMARK       I    between atoms: O1L_18  and  C20_27 
REMARK       I    between atoms: C46_20  and  O47_33 
REMARK       I    between atoms: O4A_21  and  S4B_39 
REMARK       I    between atoms: N3G_22  and  C3F_46 
REMARK       I    between atoms: N3G_22  and  S3H_51 
REMARK       I    between atoms: C40_25  and  O3M_29 
REMARK       I    between atoms: O5I_26  and  S5H_47 
REMARK       I    between atoms: C53_28  and  C51_66 
REMARK       I    between atoms: O3M_29  and  C3L_61 
REMARK       I    between atoms: S17_31  and  O16_86 
REMARK       I    between atoms: O5K_34  and  S5H_47 
REMARK       I    between atoms: O1J_37  and  S1G_48 
REMARK       I    between atoms: C12_38  and  O10_70 
REMARK       I    between atoms: C13_42  and  C15_63 
REMARK       I    between atoms: C29_43  and  O2A_60 
REMARK       I    between atoms: C31_45  and  C33_81 
REMARK       I    between atoms: S5H_47  and  O5J_49 
REMARK       I    between atoms: S1G_48  and  O1H_78 
REMARK       I    between atoms: S3H_51  and  O3J_68 
REMARK       I    between atoms: O3A_54  and  C39_85 
REMARK       I    between atoms: O3A_54  and  S3B_83 
REMARK       I    between atoms: C5L_55  and  O5M_87 
REMARK       I    between atoms: C15_63  and  O16_86 
REMARK       I    between atoms: C59_71  and  O5A_75 
REMARK       I    between atoms: C33_81  and  O34_91 
REMARK       I    between atoms: S35_82  and  O34_91 
ROOT
ATOM      1  O3I NTO d 869      68.723   0.478   6.269  0.00  0.00    -0.296 OA
ATOM      2  O1I NTO d 869      66.037   6.568  20.479  0.00  0.00    -0.296 OA
ATOM      3  O54 NTO d 869      63.795  -2.113   4.502  0.00  0.00    -0.254 OA
ATOM      4  O18 NTO d 869      67.875  -1.522  21.750  0.00  0.00    -0.572 OA
ATOM      5  C41 NTO d 869      64.206   2.260   8.020  0.00  0.00     0.152 C 
ATOM      6  C1B NTO d 869      69.723   4.687  20.131  0.00  0.00     0.083 C 
ATOM      7  O4G NTO d 869      62.717   1.178   5.352  0.00  0.00    -0.348 OA
ATOM      8  N5G NTO d 869      58.558  -0.712   6.980  0.00  0.00    -0.210 NA
ATOM      9  N1F NTO d 869      67.935   5.847  18.931  0.00  0.00    -0.210 NA
ATOM     10  O3K NTO d 869      70.206   2.193   7.205  0.00  0.00    -0.296 OA
ATOM     11  C5N NTO d 869      58.222  -2.119   3.401  0.00  0.00     0.007 C 
ATOM     12  C21 NTO d 869      69.147   2.947  15.526  0.00  0.00     0.152 C 
ATOM     13  C26 NTO d 869      67.037   3.998  16.226  0.00  0.00     0.092 C 
ATOM     14  O4E NTO d 869      64.606   3.335   1.953  0.00  0.00    -0.572 OA
ATOM     15  C50 NTO d 869      62.029  -0.059   5.593  0.00  0.00     0.095 C 
ATOM     16  C49 NTO d 869      64.742   2.469   5.490  0.00  0.00     0.134 C 
ATOM     17  O2D NTO d 869      66.894   2.764  12.669  0.00  0.00    -0.348 OA
ATOM     18  O1L NTO d 869      68.796   3.435  17.844  0.00  0.00    -0.348 OA
ATOM     19  O19 NTO d 869      70.314  -1.607  21.992  0.00  0.00    -0.572 OA
ATOM     20  C46 NTO d 869      66.004   2.673   6.329  0.00  0.00     0.094 C 
ATOM     21  O4A NTO d 869      65.076   2.423   4.101  0.00  0.00    -0.244 OA
ATOM     22  N3G NTO d 869      69.011   0.577   8.809  0.00  0.00    -0.210 NA
ATOM     23  O36 NTO d 869      68.298   6.860  13.629  0.00  0.00    -0.572 OA
ATOM     24  O57 NTO d 869      65.263  -2.420   2.639  0.00  0.00    -0.572 OA
ATOM     25  C40 NTO d 869      65.613   2.797   7.800  0.00  0.00     0.103 C 
ATOM     26  O5I NTO d 869      58.648  -1.431   9.426  0.00  0.00    -0.296 OA
ATOM     27  C20 NTO d 869      68.124   3.012  16.650  0.00  0.00     0.103 C 
ATOM     28  C53 NTO d 869      63.110  -1.183   3.662  0.00  0.00     0.067 C 
ATOM     29  O3M NTO d 869      66.552   2.034   8.568  0.00  0.00    -0.348 OA
ATOM     30  C43 NTO d 869      64.002   2.057   9.513  0.00  0.00     0.206 C 
ATOM     31  S17 NTO d 869      69.182  -1.481  21.016  0.00  0.00     0.251 S 
ATOM     32  O45 NTO d 869      64.848   1.374  10.135  0.00  0.00    -0.646 OA
ATOM     33  O47 NTO d 869      66.663   3.872   5.911  0.00  0.00    -0.390 OA
ATOM     34  O5K NTO d 869      56.625  -1.936   8.133  0.00  0.00    -0.296 OA
ATOM     35  C2C NTO d 869      67.500   3.326  13.844  0.00  0.00     0.160 C 
ATOM     36  O38 NTO d 869      69.170   7.915  11.604  0.00  0.00    -0.572 OA
ATOM     37  O1J NTO d 869      67.053   8.238  19.001  0.00  0.00    -0.296 OA
ATOM     38  C12 NTO d 869      70.081   3.395  20.870  0.00  0.00     0.089 C 
ATOM     39  S4B NTO d 869      64.591   3.589   3.430  0.00  0.00     0.252 S 
ATOM     40  O4D NTO d 869      65.470   4.760   3.755  0.00  0.00    -0.572 OA
ATOM     41  C1E NTO d 869      68.236   4.685  19.777  0.00  0.00     0.081 C 
ATOM     42  C13 NTO d 869      69.595   2.170  20.093  0.00  0.00     0.090 C 
ATOM     43  C29 NTO d 869      66.418   3.519  14.911  0.00  0.00     0.110 C 
ATOM     44  O42 NTO d 869      64.038   1.008   7.331  0.00  0.00    -0.340 OA
ATOM     45  C31 NTO d 869      66.941   3.843  10.522  0.00  0.00     0.091 C 
ATOM     46  C3F NTO d 869      68.735   1.853   9.494  0.00  0.00     0.083 C 
ATOM     47  S5H NTO d 869      58.121  -1.834   8.081  0.00  0.00     0.156 S 
ATOM     48  S1G NTO d 869      67.321   7.037  19.859  0.00  0.00     0.156 S 
ATOM     49  O5J NTO d 869      58.685  -3.171   7.702  0.00  0.00    -0.296 OA
ATOM     50  C5F NTO d 869      59.892  -1.024   6.446  0.00  0.00     0.081 C 
ATOM     51  S3H NTO d 869      69.718   0.782   7.350  0.00  0.00     0.156 S 
ATOM     52  O25 NTO d 869      71.189   2.573  16.689  0.00  0.00    -0.646 OA
ATOM     53  O1C NTO d 869      70.017   5.811  20.964  0.00  0.00    -0.391 OA
ATOM     54  O3A NTO d 869      68.863   0.825  11.692  0.00  0.00    -0.247 OA
ATOM     55  C5L NTO d 869      59.754  -1.783   5.125  0.00  0.00     0.149 C 
ATOM     56  C30 NTO d 869      67.700   2.950  11.495  0.00  0.00     0.096 C 
ATOM     57  C23 NTO d 869      70.292   2.055  15.983  0.00  0.00     0.206 C 
ATOM     58  O3E NTO d 869      66.947  -0.391  12.484  0.00  0.00    -0.572 OA
ATOM     59  O14 NTO d 869      68.192   2.273  19.801  0.00  0.00    -0.349 OA
ATOM     60  O2A NTO d 869      65.465   4.482  14.458  0.00  0.00    -0.388 OA
ATOM     61  C3L NTO d 869      67.813   2.714   8.633  0.00  0.00     0.150 C 
ATOM     62  C4F NTO d 869      64.041   1.172   5.905  0.00  0.00     0.161 C 
ATOM     63  C15 NTO d 869      69.799   0.926  20.962  0.00  0.00     0.067 C 
ATOM     64  S55 NTO d 869      65.049  -2.678   4.101  0.00  0.00     0.251 S 
ATOM     65  O58 NTO d 869      65.023  -4.155   4.352  0.00  0.00    -0.572 OA
ATOM     66  C51 NTO d 869      61.768  -0.791   4.285  0.00  0.00     0.091 C 
ATOM     67  O56 NTO d 869      66.167  -2.054   4.882  0.00  0.00    -0.572 OA
ATOM     68  O3J NTO d 869      70.891  -0.145   7.225  0.00  0.00    -0.296 OA
ATOM     69  O44 NTO d 869      62.999   2.592  10.054  0.00  0.00    -0.646 OA
ATOM     70  O10 NTO d 869      71.503   3.322  21.003  0.00  0.00    -0.390 OA
ATOM     71  C59 NTO d 869      60.688   0.267   6.247  0.00  0.00     0.083 C 
ATOM     72  O52 NTO d 869      61.033  -2.005   4.508  0.00  0.00    -0.349 OA
ATOM     73  O27 NTO d 869      66.018   4.062  17.228  0.00  0.00    -0.390 OA
ATOM     74  O1A NTO d 869      69.234  -2.610  20.033  0.00  0.00    -0.572 OA
ATOM     75  O5A NTO d 869      60.942   0.875   7.518  0.00  0.00    -0.391 OA
ATOM     76  O37 NTO d 869      66.750   7.811  11.991  0.00  0.00    -0.572 OA
ATOM     77  O24 NTO d 869      70.271   0.847  15.646  0.00  0.00    -0.646 OA
ATOM     78  O1H NTO d 869      68.305   7.386  20.936  0.00  0.00    -0.296 OA
ATOM     79  O22 NTO d 869      68.543   2.457  14.316  0.00  0.00    -0.340 OA
ATOM     80  O3D NTO d 869      69.212  -1.275  12.782  0.00  0.00    -0.572 OA
ATOM     81  C33 NTO d 869      66.748   5.222  11.161  0.00  0.00     0.067 C 
ATOM     82  S35 NTO d 869      68.053   7.090  12.168  0.00  0.00     0.251 S 
ATOM     83  S3B NTO d 869      68.316  -0.485  11.876  0.00  0.00     0.252 S 
ATOM     84  O4C NTO d 869      63.185   3.874   3.868  0.00  0.00    -0.572 OA
ATOM     85  C39 NTO d 869      68.031   1.610  10.830  0.00  0.00     0.108 C 
ATOM     86  O16 NTO d 869      69.292  -0.240  20.310  0.00  0.00    -0.254 OA
ATOM     87  O5M NTO d 869      58.827  -1.134   4.245  0.00  0.00    -0.364 OA
ATOM     88  O3C NTO d 869      68.220  -1.186  10.553  0.00  0.00    -0.572 OA
ATOM     89  C1K NTO d 869      67.920   3.419  18.979  0.00  0.00     0.150 C 
ATOM     90  O32 NTO d 869      67.642   3.988   9.277  0.00  0.00    -0.349 OA
ATOM     91  O34 NTO d 869      68.002   5.834  11.478  0.00  0.00    -0.254 OA
ATOM     92  H   NTO d 869      67.965   1.078   6.349  0.00  0.00     0.231 HD
ATOM     93  H   NTO d 869      65.404   6.344  19.779  0.00  0.00     0.231 HD
ATOM     94  H   NTO d 869      63.488   2.954   7.637  0.00  0.00     0.104 H 
ATOM     95  H   NTO d 869      70.298   4.751  19.231  0.00  0.00     0.089 H 
ATOM     96  H   NTO d 869      57.882  -0.706   6.217  0.00  0.00     0.140 HD
ATOM     97  H   NTO d 869      67.254   5.583  18.219  0.00  0.00     0.140 HD
ATOM     98  H   NTO d 869      69.456   2.804   7.284  0.00  0.00     0.231 HD
ATOM     99  H   NTO d 869      57.528  -1.644   2.740  0.00  0.00     0.066 H 
ATOM    100  H   NTO d 869      57.707  -2.838   4.003  0.00  0.00     0.066 H 
ATOM    101  H   NTO d 869      58.981  -2.611   2.828  0.00  0.00     0.066 H 
ATOM    102  H   NTO d 869      69.523   3.925  15.307  0.00  0.00     0.104 H 
ATOM    103  H   NTO d 869      67.467   4.970  16.099  0.00  0.00     0.091 H 
ATOM    104  H   NTO d 869      62.629  -0.683   6.221  0.00  0.00     0.091 H 
ATOM    105  H   NTO d 869      64.079   3.291   5.659  0.00  0.00     0.097 H 
ATOM    106  H   NTO d 869      66.662   1.840   6.199  0.00  0.00     0.091 H 
ATOM    107  H   NTO d 869      68.130   0.080   8.677  0.00  0.00     0.140 HD
ATOM    108  H   NTO d 869      65.627   3.823   8.101  0.00  0.00     0.092 H 
ATOM    109  H   NTO d 869      58.283  -0.567   9.671  0.00  0.00     0.231 HD
ATOM    110  H   NTO d 869      67.670   2.063  16.844  0.00  0.00     0.092 H 
ATOM    111  H   NTO d 869      62.938  -1.632   2.706  0.00  0.00     0.080 H 
ATOM    112  H   NTO d 869      63.712  -0.305   3.553  0.00  0.00     0.080 H 
ATOM    113  H   NTO d 869      66.065   4.627   6.029  0.00  0.00     0.210 HD
ATOM    114  H   NTO d 869      56.250  -1.075   8.378  0.00  0.00     0.231 HD
ATOM    115  H   NTO d 869      67.940   4.275  13.619  0.00  0.00     0.133 H 
ATOM    116  H   NTO d 869      66.416   8.004  18.308  0.00  0.00     0.231 HD
ATOM    117  H   NTO d 869      69.608   3.403  21.830  0.00  0.00     0.091 H 
ATOM    118  H   NTO d 869      67.653   4.721  20.674  0.00  0.00     0.076 H 
ATOM    119  H   NTO d 869      70.146   2.107  19.178  0.00  0.00     0.090 H 
ATOM    120  H   NTO d 869      65.934   2.580  15.079  0.00  0.00     0.094 H 
ATOM    121  H   NTO d 869      65.996   3.388  10.315  0.00  0.00     0.090 H 
ATOM    122  H   NTO d 869      69.672   2.344   9.660  0.00  0.00     0.076 H 
ATOM    123  H   NTO d 869      59.652  -3.115   7.666  0.00  0.00     0.231 HD
ATOM    124  H   NTO d 869      60.419  -1.642   7.142  0.00  0.00     0.076 H 
ATOM    125  H   NTO d 869      69.495   5.754  21.780  0.00  0.00     0.210 HD
ATOM    126  H   NTO d 869      59.349  -2.748   5.343  0.00  0.00     0.131 H 
ATOM    127  H   NTO d 869      68.625   3.408  11.776  0.00  0.00     0.091 H 
ATOM    128  H   NTO d 869      65.909   5.331  14.307  0.00  0.00     0.210 HD
ATOM    129  H   NTO d 869      68.214   2.869   7.653  0.00  0.00     0.131 H 
ATOM    130  H   NTO d 869      64.575   0.329   5.518  0.00  0.00     0.133 H 
ATOM    131  H   NTO d 869      69.284   1.059  21.891  0.00  0.00     0.080 H 
ATOM    132  H   NTO d 869      70.847   0.795  21.132  0.00  0.00     0.080 H 
ATOM    133  H   NTO d 869      61.206  -0.142   3.647  0.00  0.00     0.090 H 
ATOM    134  H   NTO d 869      71.310  -0.022   6.359  0.00  0.00     0.231 HD
ATOM    135  H   NTO d 869      71.909   3.316  20.122  0.00  0.00     0.210 HD
ATOM    136  H   NTO d 869      60.125   0.933   5.627  0.00  0.00     0.089 H 
ATOM    137  H   NTO d 869      65.625   3.183  17.346  0.00  0.00     0.210 HD
ATOM    138  H   NTO d 869      61.452   0.265   8.072  0.00  0.00     0.210 HD
ATOM    139  H   NTO d 869      68.473   6.605  21.486  0.00  0.00     0.231 HD
ATOM    140  H   NTO d 869      66.178   5.112  12.059  0.00  0.00     0.080 H 
ATOM    141  H   NTO d 869      66.238   5.848  10.459  0.00  0.00     0.080 H 
ATOM    142  H   NTO d 869      67.121   1.076  10.651  0.00  0.00     0.092 H 
ATOM    143  H   NTO d 869      66.896   3.377  18.672  0.00  0.00     0.131 H 
ENDROOT
TORSDOF 46
ENDMDL
MODEL 71
REMARK VINA RESULT:      -5.4      3.624     14.562
REMARK  0 active torsions:
REMARK  status: ('A' for Active; 'I' for Inactive)
REMARK       I    between atoms: O3I_1  and  S3H_51 
REMARK       I    between atoms: O1I_2  and  S1G_48 
REMARK       I    between atoms: O54_3  and  C53_28 
REMARK       I    between atoms: O54_3  and  S55_64 
REMARK       I    between atoms: C41_5  and  C43_30 
REMARK       I    between atoms: C1B_6  and  O1C_53 
REMARK       I    between atoms: O4G_7  and  C4F_62 
REMARK       I    between atoms: O4G_7  and  C50_15 
REMARK       I    between atoms: N5G_8  and  C5F_50 
REMARK       I    between atoms: N5G_8  and  S5H_47 
REMARK       I    between atoms: N1F_9  and  C1E_41 
REMARK       I    between atoms: N1F_9  and  S1G_48 
REMARK       I    between atoms: O3K_10  and  S3H_51 
REMARK       I    between atoms: C5N_11  and  O5M_87 
REMARK       I    between atoms: C21_12  and  C23_57 
REMARK       I    between atoms: C26_13  and  O27_73 
REMARK       I    between atoms: C49_16  and  O4A_21 
REMARK       I    between atoms: O2D_17  and  C2C_35 
REMARK       I    between atoms: O2D_17  and  C30_56 
REMARK       I    between atoms: O1L_18  and  C1K_89 
REMARK       I    between atoms: O1L_18  and  C20_27 
REMARK       I    between atoms: C46_20  and  O47_33 
REMARK       I    between atoms: O4A_21  and  S4B_39 
REMARK       I    between atoms: N3G_22  and  C3F_46 
REMARK       I    between atoms: N3G_22  and  S3H_51 
REMARK       I    between atoms: C40_25  and  O3M_29 
REMARK       I    between atoms: O5I_26  and  S5H_47 
REMARK       I    between atoms: C53_28  and  C51_66 
REMARK       I    between atoms: O3M_29  and  C3L_61 
REMARK       I    between atoms: S17_31  and  O16_86 
REMARK       I    between atoms: O5K_34  and  S5H_47 
REMARK       I    between atoms: O1J_37  and  S1G_48 
REMARK       I    between atoms: C12_38  and  O10_70 
REMARK       I    between atoms: C13_42  and  C15_63 
REMARK       I    between atoms: C29_43  and  O2A_60 
REMARK       I    between atoms: C31_45  and  C33_81 
REMARK       I    between atoms: S5H_47  and  O5J_49 
REMARK       I    between atoms: S1G_48  and  O1H_78 
REMARK       I    between atoms: S3H_51  and  O3J_68 
REMARK       I    between atoms: O3A_54  and  C39_85 
REMARK       I    between atoms: O3A_54  and  S3B_83 
REMARK       I    between atoms: C5L_55  and  O5M_87 
REMARK       I    between atoms: C15_63  and  O16_86 
REMARK       I    between atoms: C59_71  and  O5A_75 
REMARK       I    between atoms: C33_81  and  O34_91 
REMARK       I    between atoms: S35_82  and  O34_91 
ROOT
ATOM      1  O3I NTO d 869      58.319   8.176   6.929  0.00  0.00    -0.296 OA
ATOM      2  O1I NTO d 869      68.124  -2.095  13.607  0.00  0.00    -0.296 OA
ATOM      3  O54 NTO d 869      54.881   5.202   3.262  0.00  0.00    -0.254 OA
ATOM      4  O18 NTO d 869      71.534  -0.143   6.191  0.00  0.00    -0.572 OA
ATOM      5  C41 NTO d 869      57.321   3.211   7.926  0.00  0.00     0.152 C 
ATOM      6  C1B NTO d 869      69.941   1.463  12.473  0.00  0.00     0.083 C 
ATOM      7  O4G NTO d 869      54.505   3.432   6.336  0.00  0.00    -0.348 OA
ATOM      8  N5G NTO d 869      54.224  -0.698   3.810  0.00  0.00    -0.210 NA
ATOM      9  N1F NTO d 869      67.843   0.400  13.143  0.00  0.00    -0.210 NA
ATOM     10  O3K NTO d 869      59.536   8.747   8.981  0.00  0.00    -0.296 OA
ATOM     11  C5N NTO d 869      51.242   1.010   2.050  0.00  0.00     0.007 C 
ATOM     12  C21 NTO d 869      66.023   3.528  10.250  0.00  0.00     0.152 C 
ATOM     13  C26 NTO d 869      65.416   1.241  10.918  0.00  0.00     0.092 C 
ATOM     14  O4E NTO d 869      52.123   6.492   8.513  0.00  0.00    -0.572 OA
ATOM     15  C50 NTO d 869      54.598   2.882   5.014  0.00  0.00     0.095 C 
ATOM     16  C49 NTO d 869      55.375   4.924   8.011  0.00  0.00     0.134 C 
ATOM     17  O2D NTO d 869      62.516   3.080   9.368  0.00  0.00    -0.348 OA
ATOM     18  O1L NTO d 869      67.754   1.992  10.863  0.00  0.00    -0.348 OA
ATOM     19  O19 NTO d 869      72.936   1.823   6.615  0.00  0.00    -0.572 OA
ATOM     20  C46 NTO d 869      56.668   5.549   8.536  0.00  0.00     0.094 C 
ATOM     21  O4A NTO d 869      54.353   5.920   7.908  0.00  0.00    -0.244 OA
ATOM     22  N3G NTO d 869      60.619   7.121   7.309  0.00  0.00    -0.210 NA
ATOM     23  O36 NTO d 869      63.294   3.269  13.730  0.00  0.00    -0.572 OA
ATOM     24  O57 NTO d 869      54.048   7.437   3.088  0.00  0.00    -0.572 OA
ATOM     25  C40 NTO d 869      57.718   4.454   8.710  0.00  0.00     0.103 C 
ATOM     26  O5I NTO d 869      56.491  -1.770   3.344  0.00  0.00    -0.296 OA
ATOM     27  C20 NTO d 869      66.480   2.078  10.210  0.00  0.00     0.103 C 
ATOM     28  C53 NTO d 869      53.664   4.925   3.959  0.00  0.00     0.067 C 
ATOM     29  O3M NTO d 869      58.965   4.962   8.221  0.00  0.00    -0.348 OA
ATOM     30  C43 NTO d 869      58.538   2.306   7.821  0.00  0.00     0.206 C 
ATOM     31  S17 NTO d 869      71.530   1.337   6.425  0.00  0.00     0.251 S 
ATOM     32  O45 NTO d 869      59.601   2.798   7.378  0.00  0.00    -0.646 OA
ATOM     33  O47 NTO d 869      56.415   6.170   9.800  0.00  0.00    -0.390 OA
ATOM     34  O5K NTO d 869      54.494  -2.774   2.334  0.00  0.00    -0.296 OA
ATOM     35  C2C NTO d 869      63.718   2.929  10.142  0.00  0.00     0.160 C 
ATOM     36  O38 NTO d 869      61.793   4.905  14.752  0.00  0.00    -0.572 OA
ATOM     37  O1J NTO d 869      67.052  -0.693  15.307  0.00  0.00    -0.296 OA
ATOM     38  C12 NTO d 869      70.977   1.558  11.350  0.00  0.00     0.089 C 
ATOM     39  S4B NTO d 869      53.337   5.698   8.890  0.00  0.00     0.252 S 
ATOM     40  O4D NTO d 869      53.834   6.133  10.236  0.00  0.00    -0.572 OA
ATOM     41  C1E NTO d 869      68.918   0.375  12.144  0.00  0.00     0.081 C 
ATOM     42  C13 NTO d 869      70.292   1.693   9.988  0.00  0.00     0.090 C 
ATOM     43  C29 NTO d 869      64.074   1.442  10.210  0.00  0.00     0.110 C 
ATOM     44  O42 NTO d 869      56.870   3.577   6.609  0.00  0.00    -0.340 OA
ATOM     45  C31 NTO d 869      60.508   4.072  10.238  0.00  0.00     0.091 C 
ATOM     46  C3F NTO d 869      60.847   6.376   8.561  0.00  0.00     0.083 C 
ATOM     47  S5H NTO d 869      55.155  -1.486   2.726  0.00  0.00     0.156 S 
ATOM     48  S1G NTO d 869      68.130  -0.746  14.265  0.00  0.00     0.156 S 
ATOM     49  O5J NTO d 869      55.339  -0.643   1.500  0.00  0.00    -0.296 OA
ATOM     50  C5F NTO d 869      54.467   0.750   3.723  0.00  0.00     0.081 C 
ATOM     51  S3H NTO d 869      59.674   8.437   7.520  0.00  0.00     0.156 S 
ATOM     52  O25 NTO d 869      68.074   4.726  10.394  0.00  0.00    -0.646 OA
ATOM     53  O1C NTO d 869      70.598   1.148  13.703  0.00  0.00    -0.391 OA
ATOM     54  O3A NTO d 869      62.974   5.501   7.779  0.00  0.00    -0.247 OA
ATOM     55  C5L NTO d 869      53.402   1.399   2.837  0.00  0.00     0.149 C 
ATOM     56  C30 NTO d 869      61.867   4.339   9.605  0.00  0.00     0.096 C 
ATOM     57  C23 NTO d 869      67.126   4.386   9.648  0.00  0.00     0.206 C 
ATOM     58  O3E NTO d 869      62.942   3.621   6.282  0.00  0.00    -0.572 OA
ATOM     59  O14 NTO d 869      69.345   0.632   9.784  0.00  0.00    -0.349 OA
ATOM     60  O2A NTO d 869      63.055   0.737  10.920  0.00  0.00    -0.388 OA
ATOM     61  C3L NTO d 869      59.510   5.917   9.142  0.00  0.00     0.150 C 
ATOM     62  C4F NTO d 869      55.620   4.282   6.642  0.00  0.00     0.161 C 
ATOM     63  C15 NTO d 869      71.356   1.584   8.892  0.00  0.00     0.067 C 
ATOM     64  S55 NTO d 869      55.243   6.546   2.925  0.00  0.00     0.251 S 
ATOM     65  O58 NTO d 869      55.707   6.584   1.500  0.00  0.00    -0.572 OA
ATOM     66  C51 NTO d 869      53.480   3.416   4.130  0.00  0.00     0.091 C 
ATOM     67  O56 NTO d 869      56.343   7.023   3.826  0.00  0.00    -0.572 OA
ATOM     68  O3J NTO d 869      60.298   9.618   6.837  0.00  0.00    -0.296 OA
ATOM     69  O44 NTO d 869      58.422   1.109   8.192  0.00  0.00    -0.646 OA
ATOM     70  O10 NTO d 869      71.790   2.711  11.573  0.00  0.00    -0.390 OA
ATOM     71  C59 NTO d 869      54.452   1.365   5.123  0.00  0.00     0.083 C 
ATOM     72  O52 NTO d 869      53.531   2.830   2.819  0.00  0.00    -0.349 OA
ATOM     73  O27 NTO d 869      65.771  -0.144  10.867  0.00  0.00    -0.390 OA
ATOM     74  O1A NTO d 869      70.911   2.024   5.246  0.00  0.00    -0.572 OA
ATOM     75  O5A NTO d 869      55.557   0.859   5.881  0.00  0.00    -0.391 OA
ATOM     76  O37 NTO d 869      60.973   2.659  14.204  0.00  0.00    -0.572 OA
ATOM     77  O24 NTO d 869      67.041   4.693   8.435  0.00  0.00    -0.646 OA
ATOM     78  O1H NTO d 869      69.467  -0.498  14.898  0.00  0.00    -0.296 OA
ATOM     79  O22 NTO d 869      64.780   3.690   9.543  0.00  0.00    -0.340 OA
ATOM     80  O3D NTO d 869      64.450   5.513   5.897  0.00  0.00    -0.572 OA
ATOM     81  C33 NTO d 869      60.718   3.408  11.603  0.00  0.00     0.067 C 
ATOM     82  S35 NTO d 869      61.882   3.772  13.775  0.00  0.00     0.251 S 
ATOM     83  S3B NTO d 869      63.099   5.108   6.408  0.00  0.00     0.252 S 
ATOM     84  O4C NTO d 869      52.982   4.241   8.927  0.00  0.00    -0.572 OA
ATOM     85  C39 NTO d 869      61.694   5.129   8.303  0.00  0.00     0.108 C 
ATOM     86  O16 NTO d 869      70.758   1.631   7.595  0.00  0.00    -0.254 OA
ATOM     87  O5M NTO d 869      52.084   0.972   3.207  0.00  0.00    -0.364 OA
ATOM     88  O3C NTO d 869      62.043   5.786   5.587  0.00  0.00    -0.572 OA
ATOM     89  C1K NTO d 869      68.306   0.671  10.774  0.00  0.00     0.150 C 
ATOM     90  O32 NTO d 869      59.754   5.283  10.408  0.00  0.00    -0.349 OA
ATOM     91  O34 NTO d 869      61.488   4.238  12.477  0.00  0.00    -0.254 OA
ATOM     92  H   NTO d 869      57.915   7.413   7.371  0.00  0.00     0.231 HD
ATOM     93  H   NTO d 869      67.258  -2.251  13.200  0.00  0.00     0.231 HD
ATOM     94  H   NTO d 869      56.522   2.705   8.426  0.00  0.00     0.104 H 
ATOM     95  H   NTO d 869      69.436   2.401  12.569  0.00  0.00     0.089 H 
ATOM     96  H   NTO d 869      53.242  -0.888   3.613  0.00  0.00     0.140 HD
ATOM     97  H   NTO d 869      66.950   0.214  12.687  0.00  0.00     0.140 HD
ATOM     98  H   NTO d 869      59.132   7.990   9.435  0.00  0.00     0.231 HD
ATOM     99  H   NTO d 869      50.256   0.693   2.316  0.00  0.00     0.066 H 
ATOM    100  H   NTO d 869      51.637   0.358   1.300  0.00  0.00     0.066 H 
ATOM    101  H   NTO d 869      51.205   2.010   1.670  0.00  0.00     0.066 H 
ATOM    102  H   NTO d 869      65.844   3.836  11.259  0.00  0.00     0.104 H 
ATOM    103  H   NTO d 869      65.344   1.549  11.941  0.00  0.00     0.091 H 
ATOM    104  H   NTO d 869      55.537   3.154   4.580  0.00  0.00     0.091 H 
ATOM    105  H   NTO d 869      55.052   4.169   8.697  0.00  0.00     0.097 H 
ATOM    106  H   NTO d 869      57.022   6.282   7.842  0.00  0.00     0.091 H 
ATOM    107  H   NTO d 869      60.167   6.500   6.638  0.00  0.00     0.140 HD
ATOM    108  H   NTO d 869      57.801   4.183   9.742  0.00  0.00     0.092 H 
ATOM    109  H   NTO d 869      56.372  -2.315   4.137  0.00  0.00     0.231 HD
ATOM    110  H   NTO d 869      66.595   1.713   9.211  0.00  0.00     0.092 H 
ATOM    111  H   NTO d 869      52.841   5.320   3.401  0.00  0.00     0.080 H 
ATOM    112  H   NTO d 869      53.706   5.382   4.925  0.00  0.00     0.080 H 
ATOM    113  H   NTO d 869      56.094   5.504  10.428  0.00  0.00     0.210 HD
ATOM    114  H   NTO d 869      54.371  -3.328   3.122  0.00  0.00     0.231 HD
ATOM    115  H   NTO d 869      63.570   3.297  11.135  0.00  0.00     0.133 H 
ATOM    116  H   NTO d 869      66.192  -0.854  14.890  0.00  0.00     0.231 HD
ATOM    117  H   NTO d 869      71.569   0.667  11.349  0.00  0.00     0.091 H 
ATOM    118  H   NTO d 869      69.400  -0.581  12.144  0.00  0.00     0.076 H 
ATOM    119  H   NTO d 869      69.785   2.635   9.954  0.00  0.00     0.090 H 
ATOM    120  H   NTO d 869      64.151   1.063   9.213  0.00  0.00     0.094 H 
ATOM    121  H   NTO d 869      59.954   3.429   9.588  0.00  0.00     0.090 H 
ATOM    122  H   NTO d 869      61.355   7.028   9.241  0.00  0.00     0.076 H 
ATOM    123  H   NTO d 869      55.766   0.193   1.743  0.00  0.00     0.231 HD
ATOM    124  H   NTO d 869      55.428   0.925   3.287  0.00  0.00     0.076 H 
ATOM    125  H   NTO d 869      71.055   0.297  13.617  0.00  0.00     0.210 HD
ATOM    126  H   NTO d 869      53.564   1.065   1.834  0.00  0.00     0.131 H 
ATOM    127  H   NTO d 869      62.474   4.927  10.261  0.00  0.00     0.091 H 
ATOM    128  H   NTO d 869      62.990   1.084  11.823  0.00  0.00     0.210 HD
ATOM    129  H   NTO d 869      58.836   6.736   9.285  0.00  0.00     0.131 H 
ATOM    130  H   NTO d 869      55.696   5.040   5.892  0.00  0.00     0.133 H 
ATOM    131  H   NTO d 869      71.879   0.658   9.002  0.00  0.00     0.080 H 
ATOM    132  H   NTO d 869      72.032   2.408   8.988  0.00  0.00     0.080 H 
ATOM    133  H   NTO d 869      52.546   3.177   4.595  0.00  0.00     0.090 H 
ATOM    134  H   NTO d 869      59.737  10.399   6.963  0.00  0.00     0.231 HD
ATOM    135  H   NTO d 869      71.233   3.505  11.569  0.00  0.00     0.210 HD
ATOM    136  H   NTO d 869      53.530   1.115   5.606  0.00  0.00     0.089 H 
ATOM    137  H   NTO d 869      65.838  -0.427   9.942  0.00  0.00     0.210 HD
ATOM    138  H   NTO d 869      56.386   1.091   5.436  0.00  0.00     0.210 HD
ATOM    139  H   NTO d 869      70.159  -0.534  14.218  0.00  0.00     0.231 HD
ATOM    140  H   NTO d 869      61.232   2.481  11.462  0.00  0.00     0.080 H 
ATOM    141  H   NTO d 869      59.759   3.250  12.050  0.00  0.00     0.080 H 
ATOM    142  H   NTO d 869      61.195   4.512   7.585  0.00  0.00     0.092 H 
ATOM    143  H   NTO d 869      67.555  -0.041  10.502  0.00  0.00     0.131 H 
ENDROOT
TORSDOF 46
ENDMDL
MODEL 72
REMARK VINA RESULT:      -5.3      3.638     14.240
REMARK  0 active torsions:
REMARK  status: ('A' for Active; 'I' for Inactive)
REMARK       I    between atoms: O3I_1  and  S3H_51 
REMARK       I    between atoms: O1I_2  and  S1G_48 
REMARK       I    between atoms: O54_3  and  C53_28 
REMARK       I    between atoms: O54_3  and  S55_64 
REMARK       I    between atoms: C41_5  and  C43_30 
REMARK       I    between atoms: C1B_6  and  O1C_53 
REMARK       I    between atoms: O4G_7  and  C4F_62 
REMARK       I    between atoms: O4G_7  and  C50_15 
REMARK       I    between atoms: N5G_8  and  C5F_50 
REMARK       I    between atoms: N5G_8  and  S5H_47 
REMARK       I    between atoms: N1F_9  and  C1E_41 
REMARK       I    between atoms: N1F_9  and  S1G_48 
REMARK       I    between atoms: O3K_10  and  S3H_51 
REMARK       I    between atoms: C5N_11  and  O5M_87 
REMARK       I    between atoms: C21_12  and  C23_57 
REMARK       I    between atoms: C26_13  and  O27_73 
REMARK       I    between atoms: C49_16  and  O4A_21 
REMARK       I    between atoms: O2D_17  and  C2C_35 
REMARK       I    between atoms: O2D_17  and  C30_56 
REMARK       I    between atoms: O1L_18  and  C1K_89 
REMARK       I    between atoms: O1L_18  and  C20_27 
REMARK       I    between atoms: C46_20  and  O47_33 
REMARK       I    between atoms: O4A_21  and  S4B_39 
REMARK       I    between atoms: N3G_22  and  C3F_46 
REMARK       I    between atoms: N3G_22  and  S3H_51 
REMARK       I    between atoms: C40_25  and  O3M_29 
REMARK       I    between atoms: O5I_26  and  S5H_47 
REMARK       I    between atoms: C53_28  and  C51_66 
REMARK       I    between atoms: O3M_29  and  C3L_61 
REMARK       I    between atoms: S17_31  and  O16_86 
REMARK       I    between atoms: O5K_34  and  S5H_47 
REMARK       I    between atoms: O1J_37  and  S1G_48 
REMARK       I    between atoms: C12_38  and  O10_70 
REMARK       I    between atoms: C13_42  and  C15_63 
REMARK       I    between atoms: C29_43  and  O2A_60 
REMARK       I    between atoms: C31_45  and  C33_81 
REMARK       I    between atoms: S5H_47  and  O5J_49 
REMARK       I    between atoms: S1G_48  and  O1H_78 
REMARK       I    between atoms: S3H_51  and  O3J_68 
REMARK       I    between atoms: O3A_54  and  C39_85 
REMARK       I    between atoms: O3A_54  and  S3B_83 
REMARK       I    between atoms: C5L_55  and  O5M_87 
REMARK       I    between atoms: C15_63  and  O16_86 
REMARK       I    between atoms: C59_71  and  O5A_75 
REMARK       I    between atoms: C33_81  and  O34_91 
REMARK       I    between atoms: S35_82  and  O34_91 
ROOT
ATOM      1  O3I NTO d 869      66.617  -3.596   5.777  0.00  0.00    -0.296 OA
ATOM      2  O1I NTO d 869      67.460   2.931  20.022  0.00  0.00    -0.296 OA
ATOM      3  O54 NTO d 869      61.024  -3.451   4.100  0.00  0.00    -0.254 OA
ATOM      4  O18 NTO d 869      65.149  -5.040  21.273  0.00  0.00    -0.572 OA
ATOM      5  C41 NTO d 869      63.566   0.145   7.603  0.00  0.00     0.152 C 
ATOM      6  C1B NTO d 869      69.759  -0.503  19.613  0.00  0.00     0.083 C 
ATOM      7  O4G NTO d 869      61.696  -0.056   4.963  0.00  0.00    -0.348 OA
ATOM      8  N5G NTO d 869      57.170   0.304   6.666  0.00  0.00    -0.210 NA
ATOM      9  N1F NTO d 869      68.742   1.388  18.443  0.00  0.00    -0.210 NA
ATOM     10  O3K NTO d 869      68.761  -2.826   6.685  0.00  0.00    -0.296 OA
ATOM     11  C5N NTO d 869      56.136  -0.737   3.095  0.00  0.00     0.007 C 
ATOM     12  C21 NTO d 869      68.336  -1.711  15.021  0.00  0.00     0.152 C 
ATOM     13  C26 NTO d 869      67.015   0.229  15.756  0.00  0.00     0.092 C 
ATOM     14  O4E NTO d 869      64.342   0.933   1.528  0.00  0.00    -0.572 OA
ATOM     15  C50 NTO d 869      60.498  -0.804   5.217  0.00  0.00     0.095 C 
ATOM     16  C49 NTO d 869      64.096   0.085   5.064  0.00  0.00     0.134 C 
ATOM     17  O2D NTO d 869      66.233  -0.754  12.204  0.00  0.00    -0.348 OA
ATOM     18  O1L NTO d 869      68.304  -1.130  17.344  0.00  0.00    -0.348 OA
ATOM     19  O19 NTO d 869      67.243  -6.302  21.474  0.00  0.00    -0.572 OA
ATOM     20  C46 NTO d 869      65.311  -0.357   5.881  0.00  0.00     0.094 C 
ATOM     21  O4A NTO d 869      64.343  -0.108   3.669  0.00  0.00    -0.244 OA
ATOM     22  N3G NTO d 869      66.957  -3.668   8.311  0.00  0.00    -0.210 NA
ATOM     23  O36 NTO d 869      69.468   2.134  13.133  0.00  0.00    -0.572 OA
ATOM     24  O57 NTO d 869      62.127  -4.420   2.212  0.00  0.00    -0.572 OA
ATOM     25  C40 NTO d 869      65.053  -0.068   7.358  0.00  0.00     0.103 C 
ATOM     26  O5I NTO d 869      56.937  -0.385   9.111  0.00  0.00    -0.296 OA
ATOM     27  C20 NTO d 869      67.492  -1.164  16.162  0.00  0.00     0.103 C 
ATOM     28  C53 NTO d 869      60.865  -2.299   3.270  0.00  0.00     0.067 C 
ATOM     29  O3M NTO d 869      65.515  -1.197   8.110  0.00  0.00    -0.348 OA
ATOM     30  C43 NTO d 869      63.313   0.057   9.100  0.00  0.00     0.206 C 
ATOM     31  S17 NTO d 869      66.299  -5.635  20.517  0.00  0.00     0.251 S 
ATOM     32  O45 NTO d 869      63.729  -0.955   9.708  0.00  0.00    -0.646 OA
ATOM     33  O47 NTO d 869      66.463   0.374   5.449  0.00  0.00    -0.390 OA
ATOM     34  O5K NTO d 869      54.905   0.167   7.854  0.00  0.00    -0.296 OA
ATOM     35  C2C NTO d 869      67.055  -0.566  13.368  0.00  0.00     0.160 C 
ATOM     36  O38 NTO d 869      70.711   2.646  11.092  0.00  0.00    -0.572 OA
ATOM     37  O1J NTO d 869      69.136   3.906  18.524  0.00  0.00    -0.296 OA
ATOM     38  C12 NTO d 869      69.455  -1.812  20.348  0.00  0.00     0.089 C 
ATOM     39  S4B NTO d 869      64.476   1.152   3.005  0.00  0.00     0.252 S 
ATOM     40  O4D NTO d 869      65.819   1.744   3.313  0.00  0.00    -0.572 OA
ATOM     41  C1E NTO d 869      68.453   0.221  19.285  0.00  0.00     0.081 C 
ATOM     42  C13 NTO d 869      68.422  -2.640  19.581  0.00  0.00     0.090 C 
ATOM     43  C29 NTO d 869      66.221   0.121  14.452  0.00  0.00     0.110 C 
ATOM     44  O42 NTO d 869      62.799  -0.862   6.919  0.00  0.00    -0.340 OA
ATOM     45  C31 NTO d 869      66.765   0.180  10.055  0.00  0.00     0.091 C 
ATOM     46  C3F NTO d 869      67.348  -2.424   8.999  0.00  0.00     0.083 C 
ATOM     47  S5H NTO d 869      56.260  -0.471   7.776  0.00  0.00     0.156 S 
ATOM     48  S1G NTO d 869      68.800   2.720  19.379  0.00  0.00     0.156 S 
ATOM     49  O5J NTO d 869      56.096  -1.911   7.389  0.00  0.00    -0.296 OA
ATOM     50  C5F NTO d 869      58.175  -0.614   6.109  0.00  0.00     0.081 C 
ATOM     51  S3H NTO d 869      67.652  -3.822   6.840  0.00  0.00     0.156 S 
ATOM     52  O25 NTO d 869      69.956  -3.039  16.150  0.00  0.00    -0.646 OA
ATOM     53  O1C NTO d 869      70.576   0.330  20.438  0.00  0.00    -0.391 OA
ATOM     54  O3A NTO d 869      66.994  -3.399  11.196  0.00  0.00    -0.247 OA
ATOM     55  C5L NTO d 869      57.664  -1.200   4.792  0.00  0.00     0.149 C 
ATOM     56  C30 NTO d 869      67.009  -0.976  11.016  0.00  0.00     0.096 C 
ATOM     57  C23 NTO d 869      68.909  -3.050  15.460  0.00  0.00     0.206 C 
ATOM     58  O3E NTO d 869      64.741  -3.536  12.023  0.00  0.00    -0.572 OA
ATOM     59  O14 NTO d 869      67.242  -1.865  19.314  0.00  0.00    -0.349 OA
ATOM     60  O2A NTO d 869      65.849   1.429  14.014  0.00  0.00    -0.388 OA
ATOM     61  C3L NTO d 869      66.948  -1.216   8.153  0.00  0.00     0.150 C 
ATOM     62  C4F NTO d 869      62.859  -0.710   5.493  0.00  0.00     0.161 C 
ATOM     63  C15 NTO d 869      68.008  -3.832  20.449  0.00  0.00     0.067 C 
ATOM     64  S55 NTO d 869      61.838  -4.551   3.678  0.00  0.00     0.251 S 
ATOM     65  O58 NTO d 869      61.100  -5.831   3.932  0.00  0.00    -0.572 OA
ATOM     66  C51 NTO d 869      59.893  -1.308   3.916  0.00  0.00     0.091 C 
ATOM     67  O56 NTO d 869      63.131  -4.555   4.439  0.00  0.00    -0.572 OA
ATOM     68  O3J NTO d 869      68.223  -5.202   6.697  0.00  0.00    -0.296 OA
ATOM     69  O44 NTO d 869      62.706   1.008   9.657  0.00  0.00    -0.646 OA
ATOM     70  O10 NTO d 869      70.663  -2.568  20.456  0.00  0.00    -0.390 OA
ATOM     71  C59 NTO d 869      59.495   0.128   5.895  0.00  0.00     0.083 C 
ATOM     72  O52 NTO d 869      58.663  -2.012   4.154  0.00  0.00    -0.349 OA
ATOM     73  O27 NTO d 869      66.172   0.774  16.775  0.00  0.00    -0.390 OA
ATOM     74  O1A NTO d 869      65.780  -6.640  19.535  0.00  0.00    -0.572 OA
ATOM     75  O5A NTO d 869      60.033   0.527   7.160  0.00  0.00    -0.391 OA
ATOM     76  O37 NTO d 869      68.552   3.730  11.521  0.00  0.00    -0.572 OA
ATOM     77  O24 NTO d 869      68.298  -4.093  15.126  0.00  0.00    -0.646 OA
ATOM     78  O1H NTO d 869      69.846   2.539  20.438  0.00  0.00    -0.296 OA
ATOM     79  O22 NTO d 869      67.550  -1.836  13.823  0.00  0.00    -0.340 OA
ATOM     80  O3D NTO d 869      66.295  -5.412  12.284  0.00  0.00    -0.572 OA
ATOM     81  C33 NTO d 869      67.278   1.474  10.695  0.00  0.00     0.067 C 
ATOM     82  S35 NTO d 869      69.342   2.464  11.676  0.00  0.00     0.251 S 
ATOM     83  S3B NTO d 869      65.882  -4.279  11.392  0.00  0.00     0.252 S 
ATOM     84  O4C NTO d 869      63.393   2.082   3.467  0.00  0.00    -0.572 OA
ATOM     85  C39 NTO d 869      66.635  -2.303  10.347  0.00  0.00     0.108 C 
ATOM     86  O16 NTO d 869      66.988  -4.599  19.807  0.00  0.00    -0.254 OA
ATOM     87  O5M NTO d 869      57.156  -0.176   3.928  0.00  0.00    -0.364 OA
ATOM     88  O3C NTO d 869      65.436  -4.836  10.072  0.00  0.00    -0.572 OA
ATOM     89  C1K NTO d 869      67.548  -0.726  18.495  0.00  0.00     0.150 C 
ATOM     90  O32 NTO d 869      67.428  -0.026   8.798  0.00  0.00    -0.349 OA
ATOM     91  O34 NTO d 869      68.676   1.397  10.989  0.00  0.00    -0.254 OA
ATOM     92  H   NTO d 869      66.248  -2.704   5.869  0.00  0.00     0.231 HD
ATOM     93  H   NTO d 869      66.786   3.048  19.333  0.00  0.00     0.231 HD
ATOM     94  H   NTO d 869      63.270   1.104   7.231  0.00  0.00     0.104 H 
ATOM     95  H   NTO d 869      70.278  -0.721  18.703  0.00  0.00     0.089 H 
ATOM     96  H   NTO d 869      56.570   0.644   5.915  0.00  0.00     0.140 HD
ATOM     97  H   NTO d 869      68.008   1.494  17.743  0.00  0.00     0.140 HD
ATOM     98  H   NTO d 869      68.405  -1.928   6.776  0.00  0.00     0.231 HD
ATOM     99  H   NTO d 869      55.749   0.021   2.446  0.00  0.00     0.066 H 
ATOM    100  H   NTO d 869      55.345  -1.119   3.707  0.00  0.00     0.066 H 
ATOM    101  H   NTO d 869      56.549  -1.532   2.510  0.00  0.00     0.066 H 
ATOM    102  H   NTO d 869      69.136  -1.038  14.794  0.00  0.00     0.104 H 
ATOM    103  H   NTO d 869      67.862   0.870  15.620  0.00  0.00     0.091 H 
ATOM    104  H   NTO d 869      60.728  -1.646   5.837  0.00  0.00     0.091 H 
ATOM    105  H   NTO d 869      63.919   1.125   5.243  0.00  0.00     0.097 H 
ATOM    106  H   NTO d 869      65.479  -1.404   5.741  0.00  0.00     0.091 H 
ATOM    107  H   NTO d 869      65.943  -3.672   8.195  0.00  0.00     0.140 HD
ATOM    108  H   NTO d 869      65.570   0.819   7.657  0.00  0.00     0.092 H 
ATOM    109  H   NTO d 869      57.043   0.546   9.361  0.00  0.00     0.231 HD
ATOM    110  H   NTO d 869      66.636  -1.774  16.366  0.00  0.00     0.092 H 
ATOM    111  H   NTO d 869      60.480  -2.600   2.319  0.00  0.00     0.080 H 
ATOM    112  H   NTO d 869      61.815  -1.824   3.149  0.00  0.00     0.080 H 
ATOM    113  H   NTO d 869      66.310   1.323   5.576  0.00  0.00     0.210 HD
ATOM    114  H   NTO d 869      55.000   1.100   8.105  0.00  0.00     0.231 HD
ATOM    115  H   NTO d 869      67.897   0.050  13.134  0.00  0.00     0.133 H 
ATOM    116  H   NTO d 869      68.455   4.016  17.842  0.00  0.00     0.231 HD
ATOM    117  H   NTO d 869      69.061  -1.581  21.315  0.00  0.00     0.091 H 
ATOM    118  H   NTO d 869      67.976   0.529  20.192  0.00  0.00     0.076 H 
ATOM    119  H   NTO d 869      68.858  -2.957  18.657  0.00  0.00     0.090 H 
ATOM    120  H   NTO d 869      65.344  -0.465  14.631  0.00  0.00     0.094 H 
ATOM    121  H   NTO d 869      65.715   0.244   9.865  0.00  0.00     0.090 H 
ATOM    122  H   NTO d 869      68.408  -2.452   9.148  0.00  0.00     0.076 H 
ATOM    123  H   NTO d 869      56.967  -2.332   7.336  0.00  0.00     0.231 HD
ATOM    124  H   NTO d 869      58.346  -1.415   6.797  0.00  0.00     0.076 H 
ATOM    125  H   NTO d 869      70.105   0.528  21.264  0.00  0.00     0.210 HD
ATOM    126  H   NTO d 869      56.844  -1.848   5.019  0.00  0.00     0.131 H 
ATOM    127  H   NTO d 869      68.045  -1.027  11.280  0.00  0.00     0.091 H 
ATOM    128  H   NTO d 869      66.648   1.956  13.855  0.00  0.00     0.210 HD
ATOM    129  H   NTO d 869      67.357  -1.269   7.166  0.00  0.00     0.131 H 
ATOM    130  H   NTO d 869      62.909  -1.703   5.098  0.00  0.00     0.133 H 
ATOM    131  H   NTO d 869      67.638  -3.472  21.386  0.00  0.00     0.080 H 
ATOM    132  H   NTO d 869      68.863  -4.458  20.601  0.00  0.00     0.080 H 
ATOM    133  H   NTO d 869      59.707  -0.463   3.287  0.00  0.00     0.090 H 
ATOM    134  H   NTO d 869      68.635  -5.292   5.823  0.00  0.00     0.231 HD
ATOM    135  H   NTO d 869      71.001  -2.765  19.568  0.00  0.00     0.210 HD
ATOM    136  H   NTO d 869      59.318   0.988   5.283  0.00  0.00     0.089 H 
ATOM    137  H   NTO d 869      65.403   0.196  16.902  0.00  0.00     0.210 HD
ATOM    138  H   NTO d 869      60.190  -0.258   7.706  0.00  0.00     0.210 HD
ATOM    139  H   NTO d 869      69.622   1.771  20.986  0.00  0.00     0.231 HD
ATOM    140  H   NTO d 869      66.740   1.649  11.603  0.00  0.00     0.080 H 
ATOM    141  H   NTO d 869      67.125   2.275  10.000  0.00  0.00     0.080 H 
ATOM    142  H   NTO d 869      65.578  -2.326  10.185  0.00  0.00     0.092 H 
ATOM    143  H   NTO d 869      66.628  -0.262  18.206  0.00  0.00     0.131 H 
ENDROOT
TORSDOF 46
ENDMDL
MODEL 73
REMARK VINA RESULT:      -5.2      5.119     14.296
REMARK  0 active torsions:
REMARK  status: ('A' for Active; 'I' for Inactive)
REMARK       I    between atoms: O3I_1  and  S3H_51 
REMARK       I    between atoms: O1I_2  and  S1G_48 
REMARK       I    between atoms: O54_3  and  C53_28 
REMARK       I    between atoms: O54_3  and  S55_64 
REMARK       I    between atoms: C41_5  and  C43_30 
REMARK       I    between atoms: C1B_6  and  O1C_53 
REMARK       I    between atoms: O4G_7  and  C4F_62 
REMARK       I    between atoms: O4G_7  and  C50_15 
REMARK       I    between atoms: N5G_8  and  C5F_50 
REMARK       I    between atoms: N5G_8  and  S5H_47 
REMARK       I    between atoms: N1F_9  and  C1E_41 
REMARK       I    between atoms: N1F_9  and  S1G_48 
REMARK       I    between atoms: O3K_10  and  S3H_51 
REMARK       I    between atoms: C5N_11  and  O5M_87 
REMARK       I    between atoms: C21_12  and  C23_57 
REMARK       I    between atoms: C26_13  and  O27_73 
REMARK       I    between atoms: C49_16  and  O4A_21 
REMARK       I    between atoms: O2D_17  and  C2C_35 
REMARK       I    between atoms: O2D_17  and  C30_56 
REMARK       I    between atoms: O1L_18  and  C1K_89 
REMARK       I    between atoms: O1L_18  and  C20_27 
REMARK       I    between atoms: C46_20  and  O47_33 
REMARK       I    between atoms: O4A_21  and  S4B_39 
REMARK       I    between atoms: N3G_22  and  C3F_46 
REMARK       I    between atoms: N3G_22  and  S3H_51 
REMARK       I    between atoms: C40_25  and  O3M_29 
REMARK       I    between atoms: O5I_26  and  S5H_47 
REMARK       I    between atoms: C53_28  and  C51_66 
REMARK       I    between atoms: O3M_29  and  C3L_61 
REMARK       I    between atoms: S17_31  and  O16_86 
REMARK       I    between atoms: O5K_34  and  S5H_47 
REMARK       I    between atoms: O1J_37  and  S1G_48 
REMARK       I    between atoms: C12_38  and  O10_70 
REMARK       I    between atoms: C13_42  and  C15_63 
REMARK       I    between atoms: C29_43  and  O2A_60 
REMARK       I    between atoms: C31_45  and  C33_81 
REMARK       I    between atoms: S5H_47  and  O5J_49 
REMARK       I    between atoms: S1G_48  and  O1H_78 
REMARK       I    between atoms: S3H_51  and  O3J_68 
REMARK       I    between atoms: O3A_54  and  C39_85 
REMARK       I    between atoms: O3A_54  and  S3B_83 
REMARK       I    between atoms: C5L_55  and  O5M_87 
REMARK       I    between atoms: C15_63  and  O16_86 
REMARK       I    between atoms: C59_71  and  O5A_75 
REMARK       I    between atoms: C33_81  and  O34_91 
REMARK       I    between atoms: S35_82  and  O34_91 
ROOT
ATOM      1  O3I NTO d 869      60.460  -1.265  10.501  0.00  0.00    -0.296 OA
ATOM      2  O1I NTO d 869      73.125   0.366  19.620  0.00  0.00    -0.296 OA
ATOM      3  O54 NTO d 869      62.311  -2.737   5.160  0.00  0.00    -0.254 OA
ATOM      4  O18 NTO d 869      72.290   7.639  15.515  0.00  0.00    -0.572 OA
ATOM      5  C41 NTO d 869      64.910  -3.837  10.028  0.00  0.00     0.152 C 
ATOM      6  C1B NTO d 869      70.261   3.319  20.185  0.00  0.00     0.083 C 
ATOM      7  O4G NTO d 869      63.880  -5.160   7.254  0.00  0.00    -0.348 OA
ATOM      8  N5G NTO d 869      67.757  -5.020   4.345  0.00  0.00    -0.210 NA
ATOM      9  N1F NTO d 869      70.660   1.013  19.476  0.00  0.00    -0.210 NA
ATOM     10  O3K NTO d 869      60.262  -1.277  12.945  0.00  0.00    -0.296 OA
ATOM     11  C5N NTO d 869      65.257  -6.015   1.576  0.00  0.00     0.007 C 
ATOM     12  C21 NTO d 869      67.147   1.919  16.593  0.00  0.00     0.152 C 
ATOM     13  C26 NTO d 869      69.153   0.502  16.473  0.00  0.00     0.092 C 
ATOM     14  O4E NTO d 869      60.247  -7.500   8.305  0.00  0.00    -0.572 OA
ATOM     15  C50 NTO d 869      64.439  -4.497   6.111  0.00  0.00     0.095 C 
ATOM     16  C49 NTO d 869      62.701  -5.014   9.347  0.00  0.00     0.134 C 
ATOM     17  O2D NTO d 869      66.552  -0.509  13.943  0.00  0.00    -0.348 OA
ATOM     18  O1L NTO d 869      69.121   2.586  17.773  0.00  0.00    -0.348 OA
ATOM     19  O19 NTO d 869      70.819   9.014  16.916  0.00  0.00    -0.572 OA
ATOM     20  C46 NTO d 869      62.481  -4.115  10.563  0.00  0.00     0.094 C 
ATOM     21  O4A NTO d 869      61.451  -5.528   8.881  0.00  0.00    -0.244 OA
ATOM     22  N3G NTO d 869      62.141   0.103  11.860  0.00  0.00    -0.210 NA
ATOM     23  O36 NTO d 869      66.580  -2.233  18.028  0.00  0.00    -0.572 OA
ATOM     24  O57 NTO d 869      59.931  -2.754   4.928  0.00  0.00    -0.572 OA
ATOM     25  C40 NTO d 869      63.835  -3.642  11.089  0.00  0.00     0.103 C 
ATOM     26  O5I NTO d 869      69.449  -3.219   4.977  0.00  0.00    -0.296 OA
ATOM     27  C20 NTO d 869      68.668   1.948  16.571  0.00  0.00     0.103 C 
ATOM     28  C53 NTO d 869      62.216  -4.158   5.060  0.00  0.00     0.067 C 
ATOM     29  O3M NTO d 869      63.717  -2.252  11.415  0.00  0.00    -0.348 OA
ATOM     30  C43 NTO d 869      66.133  -3.031  10.438  0.00  0.00     0.206 C 
ATOM     31  S17 NTO d 869      70.872   7.874  15.942  0.00  0.00     0.251 S 
ATOM     32  O45 NTO d 869      65.976  -1.817  10.703  0.00  0.00    -0.646 OA
ATOM     33  O47 NTO d 869      61.808  -4.856  11.585  0.00  0.00    -0.390 OA
ATOM     34  O5K NTO d 869      69.828  -4.509   2.926  0.00  0.00    -0.296 OA
ATOM     35  C2C NTO d 869      67.045  -0.011  15.198  0.00  0.00     0.160 C 
ATOM     36  O38 NTO d 869      64.572  -3.588  18.353  0.00  0.00    -0.572 OA
ATOM     37  O1J NTO d 869      71.463  -1.075  20.699  0.00  0.00    -0.296 OA
ATOM     38  C12 NTO d 869      70.479   4.786  19.804  0.00  0.00     0.089 C 
ATOM     39  S4B NTO d 869      61.361  -6.933   9.133  0.00  0.00     0.252 S 
ATOM     40  O4D NTO d 869      61.084  -7.166  10.589  0.00  0.00    -0.572 OA
ATOM     41  C1E NTO d 869      71.003   2.414  19.202  0.00  0.00     0.081 C 
ATOM     42  C13 NTO d 869      70.154   5.019  18.327  0.00  0.00     0.090 C 
ATOM     43  C29 NTO d 869      68.571  -0.132  15.208  0.00  0.00     0.110 C 
ATOM     44  O42 NTO d 869      64.434  -3.384   8.748  0.00  0.00    -0.340 OA
ATOM     45  C31 NTO d 869      65.011  -2.345  13.772  0.00  0.00     0.091 C 
ATOM     46  C3F NTO d 869      62.915  -0.586  12.910  0.00  0.00     0.083 C 
ATOM     47  S5H NTO d 869      68.788  -3.878   3.804  0.00  0.00     0.156 S 
ATOM     48  S1G NTO d 869      71.834   0.344  20.385  0.00  0.00     0.156 S 
ATOM     49  O5J NTO d 869      68.041  -2.849   3.008  0.00  0.00    -0.296 OA
ATOM     50  C5F NTO d 869      66.444  -4.421   4.627  0.00  0.00     0.081 C 
ATOM     51  S3H NTO d 869      60.605  -0.442  11.748  0.00  0.00     0.156 S 
ATOM     52  O25 NTO d 869      66.602   3.775  17.979  0.00  0.00    -0.646 OA
ATOM     53  O1C NTO d 869      70.749   3.092  21.510  0.00  0.00    -0.391 OA
ATOM     54  O3A NTO d 869      64.378   1.326  13.236  0.00  0.00    -0.247 OA
ATOM     55  C5L NTO d 869      65.515  -4.626   3.429  0.00  0.00     0.149 C 
ATOM     56  C30 NTO d 869      65.157  -0.846  13.998  0.00  0.00     0.096 C 
ATOM     57  C23 NTO d 869      66.653   3.343  16.804  0.00  0.00     0.206 C 
ATOM     58  O3E NTO d 869      66.172   1.656  11.671  0.00  0.00    -0.572 OA
ATOM     59  O14 NTO d 869      70.892   4.113  17.493  0.00  0.00    -0.349 OA
ATOM     60  O2A NTO d 869      68.943  -1.510  15.155  0.00  0.00    -0.388 OA
ATOM     61  C3L NTO d 869      62.960  -2.085  12.621  0.00  0.00     0.150 C 
ATOM     62  C4F NTO d 869      63.393  -4.227   8.230  0.00  0.00     0.161 C 
ATOM     63  C15 NTO d 869      70.575   6.443  17.953  0.00  0.00     0.067 C 
ATOM     64  S55 NTO d 869      61.134  -1.930   5.279  0.00  0.00     0.251 S 
ATOM     65  O58 NTO d 869      61.239  -0.768   4.338  0.00  0.00    -0.572 OA
ATOM     66  C51 NTO d 869      63.605  -4.773   4.869  0.00  0.00     0.091 C 
ATOM     67  O56 NTO d 869      60.996  -1.427   6.686  0.00  0.00    -0.572 OA
ATOM     68  O3J NTO d 869      59.661   0.723  11.690  0.00  0.00    -0.296 OA
ATOM     69  O44 NTO d 869      67.242  -3.623  10.499  0.00  0.00    -0.646 OA
ATOM     70  O10 NTO d 869      69.613   5.599  20.600  0.00  0.00    -0.390 OA
ATOM     71  C59 NTO d 869      65.846  -5.048   5.888  0.00  0.00     0.083 C 
ATOM     72  O52 NTO d 869      64.185  -4.158   3.707  0.00  0.00    -0.349 OA
ATOM     73  O27 NTO d 869      70.581   0.472  16.399  0.00  0.00    -0.390 OA
ATOM     74  O1A NTO d 869      70.039   8.196  14.739  0.00  0.00    -0.572 OA
ATOM     75  O5A NTO d 869      66.650  -4.706   7.021  0.00  0.00    -0.391 OA
ATOM     76  O37 NTO d 869      66.482  -4.498  17.110  0.00  0.00    -0.572 OA
ATOM     77  O24 NTO d 869      66.340   4.016  15.793  0.00  0.00    -0.646 OA
ATOM     78  O1H NTO d 869      71.986   1.127  21.655  0.00  0.00    -0.296 OA
ATOM     79  O22 NTO d 869      66.632   1.354  15.374  0.00  0.00    -0.340 OA
ATOM     80  O3D NTO d 869      64.807   3.540  12.438  0.00  0.00    -0.572 OA
ATOM     81  C33 NTO d 869      65.702  -3.090  14.919  0.00  0.00     0.067 C 
ATOM     82  S35 NTO d 869      65.686  -3.261  17.404  0.00  0.00     0.251 S 
ATOM     83  S3B NTO d 869      64.796   2.081  12.093  0.00  0.00     0.252 S 
ATOM     84  O4C NTO d 869      62.650  -7.597   8.749  0.00  0.00    -0.572 OA
ATOM     85  C39 NTO d 869      64.357  -0.076  12.943  0.00  0.00     0.108 C 
ATOM     86  O16 NTO d 869      70.359   6.688  16.561  0.00  0.00    -0.254 OA
ATOM     87  O5M NTO d 869      65.536  -5.986   2.979  0.00  0.00    -0.364 OA
ATOM     88  O3C NTO d 869      63.842   1.855  10.959  0.00  0.00    -0.572 OA
ATOM     89  C1K NTO d 869      70.546   2.749  17.781  0.00  0.00     0.150 C 
ATOM     90  O32 NTO d 869      63.632  -2.741  13.708  0.00  0.00    -0.349 OA
ATOM     91  O34 NTO d 869      65.130  -2.749  16.186  0.00  0.00    -0.254 OA
ATOM     92  H   NTO d 869      61.069  -2.018  10.537  0.00  0.00     0.231 HD
ATOM     93  H   NTO d 869      73.022  -0.141  18.799  0.00  0.00     0.231 HD
ATOM     94  H   NTO d 869      65.158  -4.874   9.948  0.00  0.00     0.104 H 
ATOM     95  H   NTO d 869      69.215   3.096  20.148  0.00  0.00     0.089 H 
ATOM     96  H   NTO d 869      67.652  -5.744   3.634  0.00  0.00     0.140 HD
ATOM     97  H   NTO d 869      70.577   0.504  18.596  0.00  0.00     0.140 HD
ATOM     98  H   NTO d 869      60.866  -2.035  12.994  0.00  0.00     0.231 HD
ATOM     99  H   NTO d 869      65.271  -7.028   1.230  0.00  0.00     0.066 H 
ATOM    100  H   NTO d 869      66.000  -5.450   1.053  0.00  0.00     0.066 H 
ATOM    101  H   NTO d 869      64.292  -5.589   1.395  0.00  0.00     0.066 H 
ATOM    102  H   NTO d 869      66.797   1.299  17.391  0.00  0.00     0.104 H 
ATOM    103  H   NTO d 869      68.834  -0.040  17.339  0.00  0.00     0.091 H 
ATOM    104  H   NTO d 869      64.456  -3.441   6.284  0.00  0.00     0.091 H 
ATOM    105  H   NTO d 869      63.326  -5.835   9.632  0.00  0.00     0.097 H 
ATOM    106  H   NTO d 869      61.887  -3.270  10.285  0.00  0.00     0.091 H 
ATOM    107  H   NTO d 869      62.605  -0.043  10.964  0.00  0.00     0.140 HD
ATOM    108  H   NTO d 869      64.114  -4.209  11.952  0.00  0.00     0.092 H 
ATOM    109  H   NTO d 869      69.931  -3.884   5.492  0.00  0.00     0.231 HD
ATOM    110  H   NTO d 869      69.054   2.497  15.739  0.00  0.00     0.092 H 
ATOM    111  H   NTO d 869      61.600  -4.413   4.223  0.00  0.00     0.080 H 
ATOM    112  H   NTO d 869      61.788  -4.542   5.962  0.00  0.00     0.080 H 
ATOM    113  H   NTO d 869      62.347  -5.622  11.837  0.00  0.00     0.210 HD
ATOM    114  H   NTO d 869      70.317  -5.176   3.433  0.00  0.00     0.231 HD
ATOM    115  H   NTO d 869      66.645  -0.583  16.008  0.00  0.00     0.133 H 
ATOM    116  H   NTO d 869      71.367  -1.574  19.873  0.00  0.00     0.231 HD
ATOM    117  H   NTO d 869      71.504   5.039  19.975  0.00  0.00     0.091 H 
ATOM    118  H   NTO d 869      72.058   2.562  19.304  0.00  0.00     0.076 H 
ATOM    119  H   NTO d 869      69.105   4.866  18.182  0.00  0.00     0.090 H 
ATOM    120  H   NTO d 869      68.960   0.383  14.354  0.00  0.00     0.094 H 
ATOM    121  H   NTO d 869      65.466  -2.591  12.835  0.00  0.00     0.090 H 
ATOM    122  H   NTO d 869      62.438  -0.392  13.848  0.00  0.00     0.076 H 
ATOM    123  H   NTO d 869      67.366  -2.435   3.567  0.00  0.00     0.231 HD
ATOM    124  H   NTO d 869      66.561  -3.371   4.795  0.00  0.00     0.076 H 
ATOM    125  H   NTO d 869      71.698   3.294  21.544  0.00  0.00     0.210 HD
ATOM    126  H   NTO d 869      65.886  -4.028   2.623  0.00  0.00     0.131 H 
ATOM    127  H   NTO d 869      64.770  -0.576  14.958  0.00  0.00     0.091 H 
ATOM    128  H   NTO d 869      68.589  -1.971  15.931  0.00  0.00     0.210 HD
ATOM    129  H   NTO d 869      61.978  -2.500  12.515  0.00  0.00     0.131 H 
ATOM    130  H   NTO d 869      62.694  -3.567   7.762  0.00  0.00     0.133 H 
ATOM    131  H   NTO d 869      71.613   6.572  18.174  0.00  0.00     0.080 H 
ATOM    132  H   NTO d 869      69.984   7.134  18.517  0.00  0.00     0.080 H 
ATOM    133  H   NTO d 869      63.557  -5.833   4.729  0.00  0.00     0.090 H 
ATOM    134  H   NTO d 869      58.750   0.399  11.623  0.00  0.00     0.231 HD
ATOM    135  H   NTO d 869      68.691   5.352  20.429  0.00  0.00     0.210 HD
ATOM    136  H   NTO d 869      65.813  -6.111   5.767  0.00  0.00     0.089 H 
ATOM    137  H   NTO d 869      70.876   0.962  15.616  0.00  0.00     0.210 HD
ATOM    138  H   NTO d 869      66.674  -3.742   7.122  0.00  0.00     0.210 HD
ATOM    139  H   NTO d 869      72.227   2.043  21.444  0.00  0.00     0.231 HD
ATOM    140  H   NTO d 869      66.740  -2.832  14.925  0.00  0.00     0.080 H 
ATOM    141  H   NTO d 869      65.570  -4.141  14.764  0.00  0.00     0.080 H 
ATOM    142  H   NTO d 869      64.803  -0.233  11.983  0.00  0.00     0.092 H 
ATOM    143  H   NTO d 869      71.008   2.122  17.047  0.00  0.00     0.131 H 
ENDROOT
TORSDOF 46
ENDMDL
MODEL 74
REMARK VINA RESULT:      -5.2      3.473     14.036
REMARK  0 active torsions:
REMARK  status: ('A' for Active; 'I' for Inactive)
REMARK       I    between atoms: O3I_1  and  S3H_51 
REMARK       I    between atoms: O1I_2  and  S1G_48 
REMARK       I    between atoms: O54_3  and  C53_28 
REMARK       I    between atoms: O54_3  and  S55_64 
REMARK       I    between atoms: C41_5  and  C43_30 
REMARK       I    between atoms: C1B_6  and  O1C_53 
REMARK       I    between atoms: O4G_7  and  C4F_62 
REMARK       I    between atoms: O4G_7  and  C50_15 
REMARK       I    between atoms: N5G_8  and  C5F_50 
REMARK       I    between atoms: N5G_8  and  S5H_47 
REMARK       I    between atoms: N1F_9  and  C1E_41 
REMARK       I    between atoms: N1F_9  and  S1G_48 
REMARK       I    between atoms: O3K_10  and  S3H_51 
REMARK       I    between atoms: C5N_11  and  O5M_87 
REMARK       I    between atoms: C21_12  and  C23_57 
REMARK       I    between atoms: C26_13  and  O27_73 
REMARK       I    between atoms: C49_16  and  O4A_21 
REMARK       I    between atoms: O2D_17  and  C2C_35 
REMARK       I    between atoms: O2D_17  and  C30_56 
REMARK       I    between atoms: O1L_18  and  C1K_89 
REMARK       I    between atoms: O1L_18  and  C20_27 
REMARK       I    between atoms: C46_20  and  O47_33 
REMARK       I    between atoms: O4A_21  and  S4B_39 
REMARK       I    between atoms: N3G_22  and  C3F_46 
REMARK       I    between atoms: N3G_22  and  S3H_51 
REMARK       I    between atoms: C40_25  and  O3M_29 
REMARK       I    between atoms: O5I_26  and  S5H_47 
REMARK       I    between atoms: C53_28  and  C51_66 
REMARK       I    between atoms: O3M_29  and  C3L_61 
REMARK       I    between atoms: S17_31  and  O16_86 
REMARK       I    between atoms: O5K_34  and  S5H_47 
REMARK       I    between atoms: O1J_37  and  S1G_48 
REMARK       I    between atoms: C12_38  and  O10_70 
REMARK       I    between atoms: C13_42  and  C15_63 
REMARK       I    between atoms: C29_43  and  O2A_60 
REMARK       I    between atoms: C31_45  and  C33_81 
REMARK       I    between atoms: S5H_47  and  O5J_49 
REMARK       I    between atoms: S1G_48  and  O1H_78 
REMARK       I    between atoms: S3H_51  and  O3J_68 
REMARK       I    between atoms: O3A_54  and  C39_85 
REMARK       I    between atoms: O3A_54  and  S3B_83 
REMARK       I    between atoms: C5L_55  and  O5M_87 
REMARK       I    between atoms: C15_63  and  O16_86 
REMARK       I    between atoms: C59_71  and  O5A_75 
REMARK       I    between atoms: C33_81  and  O34_91 
REMARK       I    between atoms: S35_82  and  O34_91 
ROOT
ATOM      1  O3I NTO d 869      64.044  -4.062   8.419  0.00  0.00    -0.296 OA
ATOM      2  O1I NTO d 869      70.831   8.150  15.564  0.00  0.00    -0.296 OA
ATOM      3  O54 NTO d 869      58.453  -2.664   7.471  0.00  0.00    -0.254 OA
ATOM      4  O18 NTO d 869      66.985   3.787  21.615  0.00  0.00    -0.572 OA
ATOM      5  C41 NTO d 869      62.787   0.908   7.818  0.00  0.00     0.152 C 
ATOM      6  C1B NTO d 869      71.907   4.468  17.154  0.00  0.00     0.083 C 
ATOM      7  O4G NTO d 869      60.226   0.068   6.018  0.00  0.00    -0.348 OA
ATOM      8  N5G NTO d 869      56.687   3.030   7.509  0.00  0.00    -0.210 NA
ATOM      9  N1F NTO d 869      71.123   5.646  15.159  0.00  0.00    -0.210 NA
ATOM     10  O3K NTO d 869      66.486  -3.839   8.486  0.00  0.00    -0.296 OA
ATOM     11  C5N NTO d 869      54.389   0.735   5.422  0.00  0.00     0.007 C 
ATOM     12  C21 NTO d 869      68.902   1.651  14.397  0.00  0.00     0.152 C 
ATOM     13  C26 NTO d 869      68.425   4.011  13.897  0.00  0.00     0.092 C 
ATOM     14  O4E NTO d 869      61.877  -2.082   2.493  0.00  0.00    -0.572 OA
ATOM     15  C50 NTO d 869      59.007   0.118   6.774  0.00  0.00     0.095 C 
ATOM     16  C49 NTO d 869      62.492  -0.712   5.814  0.00  0.00     0.134 C 
ATOM     17  O2D NTO d 869      66.379   1.671  11.768  0.00  0.00    -0.348 OA
ATOM     18  O1L NTO d 869      69.725   3.348  15.872  0.00  0.00    -0.348 OA
ATOM     19  O19 NTO d 869      68.630   2.133  22.373  0.00  0.00    -0.572 OA
ATOM     20  C46 NTO d 869      63.735  -1.078   6.626  0.00  0.00     0.094 C 
ATOM     21  O4A NTO d 869      62.247  -1.705   4.814  0.00  0.00    -0.244 OA
ATOM     22  N3G NTO d 869      65.100  -2.883  10.429  0.00  0.00    -0.210 NA
ATOM     23  O36 NTO d 869      70.386   3.056  10.466  0.00  0.00    -0.572 OA
ATOM     24  O57 NTO d 869      58.639  -4.836   6.488  0.00  0.00    -0.572 OA
ATOM     25  C40 NTO d 869      64.020   0.034   7.633  0.00  0.00     0.103 C 
ATOM     26  O5I NTO d 869      57.028   3.924   9.874  0.00  0.00    -0.296 OA
ATOM     27  C20 NTO d 869      68.616   3.005  15.030  0.00  0.00     0.103 C 
ATOM     28  C53 NTO d 869      58.361  -2.189   6.126  0.00  0.00     0.067 C 
ATOM     29  O3M NTO d 869      64.371  -0.583   8.878  0.00  0.00    -0.348 OA
ATOM     30  C43 NTO d 869      62.983   1.748   9.070  0.00  0.00     0.206 C 
ATOM     31  S17 NTO d 869      67.654   2.485  21.290  0.00  0.00     0.251 S 
ATOM     32  O45 NTO d 869      63.280   1.158  10.134  0.00  0.00    -0.646 OA
ATOM     33  O47 NTO d 869      64.853  -1.218   5.745  0.00  0.00    -0.390 OA
ATOM     34  O5K NTO d 869      54.933   4.456   8.714  0.00  0.00    -0.296 OA
ATOM     35  C2C NTO d 869      67.533   2.116  12.502  0.00  0.00     0.160 C 
ATOM     36  O38 NTO d 869      71.045   1.851   8.445  0.00  0.00    -0.572 OA
ATOM     37  O1J NTO d 869      72.173   7.413  13.651  0.00  0.00    -0.296 OA
ATOM     38  C12 NTO d 869      71.504   4.007  18.558  0.00  0.00     0.089 C 
ATOM     39  S4B NTO d 869      62.502  -1.176   3.510  0.00  0.00     0.252 S 
ATOM     40  O4D NTO d 869      63.982  -1.094   3.279  0.00  0.00    -0.572 OA
ATOM     41  C1E NTO d 869      70.803   5.343  16.560  0.00  0.00     0.081 C 
ATOM     42  C13 NTO d 869      70.108   3.381  18.546  0.00  0.00     0.090 C 
ATOM     43  C29 NTO d 869      67.276   3.540  13.003  0.00  0.00     0.110 C 
ATOM     44  O42 NTO d 869      61.613   0.089   7.959  0.00  0.00    -0.340 OA
ATOM     45  C31 NTO d 869      66.466   1.001   9.462  0.00  0.00     0.091 C 
ATOM     46  C3F NTO d 869      65.994  -1.738  10.177  0.00  0.00     0.083 C 
ATOM     47  S5H NTO d 869      55.983   3.407   8.932  0.00  0.00     0.156 S 
ATOM     48  S1G NTO d 869      71.810   7.121  15.076  0.00  0.00     0.156 S 
ATOM     49  O5J NTO d 869      55.336   2.189   9.522  0.00  0.00    -0.296 OA
ATOM     50  C5F NTO d 869      57.198   1.651   7.550  0.00  0.00     0.081 C 
ATOM     51  S3H NTO d 869      65.253  -4.063   9.309  0.00  0.00     0.156 S 
ATOM     52  O25 NTO d 869      70.375   0.634  15.965  0.00  0.00    -0.646 OA
ATOM     53  O1C NTO d 869      73.125   5.213  17.226  0.00  0.00    -0.391 OA
ATOM     54  O3A NTO d 869      66.074  -1.143  12.531  0.00  0.00    -0.247 OA
ATOM     55  C5L NTO d 869      56.178   0.705   6.914  0.00  0.00     0.149 C 
ATOM     56  C30 NTO d 869      66.674   0.561  10.906  0.00  0.00     0.096 C 
ATOM     57  C23 NTO d 869      69.205   0.664  15.514  0.00  0.00     0.206 C 
ATOM     58  O3E NTO d 869      64.223   0.084  13.450  0.00  0.00    -0.572 OA
ATOM     59  O14 NTO d 869      69.151   4.278  17.959  0.00  0.00    -0.349 OA
ATOM     60  O2A NTO d 869      67.150   4.424  11.889  0.00  0.00    -0.388 OA
ATOM     61  C3L NTO d 869      65.692  -1.137   8.806  0.00  0.00     0.150 C 
ATOM     62  C4F NTO d 869      61.278  -0.589   6.739  0.00  0.00     0.161 C 
ATOM     63  C15 NTO d 869      69.675   3.123  19.992  0.00  0.00     0.067 C 
ATOM     64  S55 NTO d 869      58.781  -4.031   7.745  0.00  0.00     0.251 S 
ATOM     65  O58 NTO d 869      57.844  -4.559   8.788  0.00  0.00    -0.572 OA
ATOM     66  C51 NTO d 869      57.927  -0.722   6.108  0.00  0.00     0.091 C 
ATOM     67  O56 NTO d 869      60.193  -4.131   8.240  0.00  0.00    -0.572 OA
ATOM     68  O3J NTO d 869      65.368  -5.393   9.993  0.00  0.00    -0.296 OA
ATOM     69  O44 NTO d 869      62.846   2.996   8.977  0.00  0.00    -0.646 OA
ATOM     70  O10 NTO d 869      72.444   3.028  19.006  0.00  0.00    -0.390 OA
ATOM     71  C59 NTO d 869      58.539   1.571   6.819  0.00  0.00     0.083 C 
ATOM     72  O52 NTO d 869      56.686  -0.637   6.827  0.00  0.00    -0.349 OA
ATOM     73  O27 NTO d 869      68.104   5.297  14.435  0.00  0.00    -0.390 OA
ATOM     74  O1A NTO d 869      66.617   1.410  21.174  0.00  0.00    -0.572 OA
ATOM     75  O5A NTO d 869      59.517   2.340   7.526  0.00  0.00    -0.391 OA
ATOM     76  O37 NTO d 869      69.482   3.737   8.297  0.00  0.00    -0.572 OA
ATOM     77  O24 NTO d 869      68.269  -0.054  15.940  0.00  0.00    -0.646 OA
ATOM     78  O1H NTO d 869      73.039   7.147  15.934  0.00  0.00    -0.296 OA
ATOM     79  O22 NTO d 869      67.788   1.220  13.596  0.00  0.00    -0.340 OA
ATOM     80  O3D NTO d 869      65.229  -1.783  14.675  0.00  0.00    -0.572 OA
ATOM     81  C33 NTO d 869      67.470   2.109   9.132  0.00  0.00     0.067 C 
ATOM     82  S35 NTO d 869      69.919   2.567   9.128  0.00  0.00     0.251 S 
ATOM     83  S3B NTO d 869      64.881  -1.257  13.315  0.00  0.00     0.252 S 
ATOM     84  O4C NTO d 869      61.895   0.191   3.393  0.00  0.00    -0.572 OA
ATOM     85  C39 NTO d 869      65.780  -0.642  11.222  0.00  0.00     0.108 C 
ATOM     86  O16 NTO d 869      68.345   2.605  20.040  0.00  0.00    -0.254 OA
ATOM     87  O5M NTO d 869      55.722   1.202   5.650  0.00  0.00    -0.364 OA
ATOM     88  O3C NTO d 869      63.929  -2.208  12.654  0.00  0.00    -0.572 OA
ATOM     89  C1K NTO d 869      69.486   4.566  16.592  0.00  0.00     0.150 C 
ATOM     90  O32 NTO d 869      66.641  -0.090   8.545  0.00  0.00    -0.349 OA
ATOM     91  O34 NTO d 869      68.820   1.662   9.296  0.00  0.00    -0.254 OA
ATOM     92  H   NTO d 869      63.970  -3.202   7.976  0.00  0.00     0.231 HD
ATOM     93  H   NTO d 869      70.038   8.130  15.006  0.00  0.00     0.231 HD
ATOM     94  H   NTO d 869      62.657   1.538   6.963  0.00  0.00     0.104 H 
ATOM     95  H   NTO d 869      72.051   3.611  16.529  0.00  0.00     0.089 H 
ATOM     96  H   NTO d 869      56.001   3.113   6.760  0.00  0.00     0.140 HD
ATOM     97  H   NTO d 869      70.268   5.636  14.604  0.00  0.00     0.140 HD
ATOM     98  H   NTO d 869      66.424  -2.981   8.037  0.00  0.00     0.231 HD
ATOM     99  H   NTO d 869      54.039   1.102   4.479  0.00  0.00     0.066 H 
ATOM    100  H   NTO d 869      53.748   1.090   6.202  0.00  0.00     0.066 H 
ATOM    101  H   NTO d 869      54.381  -0.335   5.414  0.00  0.00     0.066 H 
ATOM    102  H   NTO d 869      69.745   1.717  13.741  0.00  0.00     0.104 H 
ATOM    103  H   NTO d 869      69.329   4.084  13.329  0.00  0.00     0.091 H 
ATOM    104  H   NTO d 869      59.182  -0.266   7.757  0.00  0.00     0.091 H 
ATOM    105  H   NTO d 869      62.659   0.229   5.332  0.00  0.00     0.097 H 
ATOM    106  H   NTO d 869      63.570  -2.000   7.143  0.00  0.00     0.091 H 
ATOM    107  H   NTO d 869      64.135  -2.551  10.424  0.00  0.00     0.140 HD
ATOM    108  H   NTO d 869      64.817   0.654   7.283  0.00  0.00     0.092 H 
ATOM    109  H   NTO d 869      57.446   4.712   9.492  0.00  0.00     0.231 HD
ATOM    110  H   NTO d 869      67.733   2.995  15.633  0.00  0.00     0.092 H 
ATOM    111  H   NTO d 869      57.643  -2.776   5.594  0.00  0.00     0.080 H 
ATOM    112  H   NTO d 869      59.322  -2.273   5.662  0.00  0.00     0.080 H 
ATOM    113  H   NTO d 869      65.002  -0.381   5.277  0.00  0.00     0.210 HD
ATOM    114  H   NTO d 869      55.342   5.249   8.332  0.00  0.00     0.231 HD
ATOM    115  H   NTO d 869      68.396   2.119  11.871  0.00  0.00     0.133 H 
ATOM    116  H   NTO d 869      71.373   7.395  13.103  0.00  0.00     0.231 HD
ATOM    117  H   NTO d 869      71.496   4.855  19.210  0.00  0.00     0.091 H 
ATOM    118  H   NTO d 869      70.721   6.249  17.124  0.00  0.00     0.076 H 
ATOM    119  H   NTO d 869      70.146   2.476  17.976  0.00  0.00     0.090 H 
ATOM    120  H   NTO d 869      66.371   3.543  13.574  0.00  0.00     0.094 H 
ATOM    121  H   NTO d 869      65.463   1.358   9.360  0.00  0.00     0.090 H 
ATOM    122  H   NTO d 869      67.003  -2.094  10.224  0.00  0.00     0.076 H 
ATOM    123  H   NTO d 869      56.006   1.504   9.666  0.00  0.00     0.231 HD
ATOM    124  H   NTO d 869      57.349   1.358   8.568  0.00  0.00     0.076 H 
ATOM    125  H   NTO d 869      72.995   5.990  17.793  0.00  0.00     0.210 HD
ATOM    126  H   NTO d 869      55.323   0.666   7.557  0.00  0.00     0.131 H 
ATOM    127  H   NTO d 869      67.689   0.259  11.060  0.00  0.00     0.091 H 
ATOM    128  H   NTO d 869      67.973   4.418  11.375  0.00  0.00     0.210 HD
ATOM    129  H   NTO d 869      65.756  -1.869   8.027  0.00  0.00     0.131 H 
ATOM    130  H   NTO d 869      60.943  -1.562   7.032  0.00  0.00     0.133 H 
ATOM    131  H   NTO d 869      69.714   4.041  20.539  0.00  0.00     0.080 H 
ATOM    132  H   NTO d 869      70.339   2.403  20.424  0.00  0.00     0.080 H 
ATOM    133  H   NTO d 869      57.791  -0.358   5.111  0.00  0.00     0.090 H 
ATOM    134  H   NTO d 869      65.459  -6.093   9.328  0.00  0.00     0.231 HD
ATOM    135  H   NTO d 869      72.435   2.270  18.400  0.00  0.00     0.210 HD
ATOM    136  H   NTO d 869      58.419   1.952   5.826  0.00  0.00     0.089 H 
ATOM    137  H   NTO d 869      67.284   5.236  14.952  0.00  0.00     0.210 HD
ATOM    138  H   NTO d 869      59.619   1.986   8.423  0.00  0.00     0.210 HD
ATOM    139  H   NTO d 869      72.796   6.957  16.855  0.00  0.00     0.231 HD
ATOM    140  H   NTO d 869      67.298   2.940   9.783  0.00  0.00     0.080 H 
ATOM    141  H   NTO d 869      67.333   2.392   8.109  0.00  0.00     0.080 H 
ATOM    142  H   NTO d 869      64.756  -0.332  11.195  0.00  0.00     0.092 H 
ATOM    143  H   NTO d 869      68.679   5.117  16.157  0.00  0.00     0.131 H 
ENDROOT
TORSDOF 46
ENDMDL
MODEL 75
REMARK VINA RESULT:      -5.0      4.626      6.690
REMARK  0 active torsions:
REMARK  status: ('A' for Active; 'I' for Inactive)
REMARK       I    between atoms: O3I_1  and  S3H_51 
REMARK       I    between atoms: O1I_2  and  S1G_48 
REMARK       I    between atoms: O54_3  and  C53_28 
REMARK       I    between atoms: O54_3  and  S55_64 
REMARK       I    between atoms: C41_5  and  C43_30 
REMARK       I    between atoms: C1B_6  and  O1C_53 
REMARK       I    between atoms: O4G_7  and  C4F_62 
REMARK       I    between atoms: O4G_7  and  C50_15 
REMARK       I    between atoms: N5G_8  and  C5F_50 
REMARK       I    between atoms: N5G_8  and  S5H_47 
REMARK       I    between atoms: N1F_9  and  C1E_41 
REMARK       I    between atoms: N1F_9  and  S1G_48 
REMARK       I    between atoms: O3K_10  and  S3H_51 
REMARK       I    between atoms: C5N_11  and  O5M_87 
REMARK       I    between atoms: C21_12  and  C23_57 
REMARK       I    between atoms: C26_13  and  O27_73 
REMARK       I    between atoms: C49_16  and  O4A_21 
REMARK       I    between atoms: O2D_17  and  C2C_35 
REMARK       I    between atoms: O2D_17  and  C30_56 
REMARK       I    between atoms: O1L_18  and  C1K_89 
REMARK       I    between atoms: O1L_18  and  C20_27 
REMARK       I    between atoms: C46_20  and  O47_33 
REMARK       I    between atoms: O4A_21  and  S4B_39 
REMARK       I    between atoms: N3G_22  and  C3F_46 
REMARK       I    between atoms: N3G_22  and  S3H_51 
REMARK       I    between atoms: C40_25  and  O3M_29 
REMARK       I    between atoms: O5I_26  and  S5H_47 
REMARK       I    between atoms: C53_28  and  C51_66 
REMARK       I    between atoms: O3M_29  and  C3L_61 
REMARK       I    between atoms: S17_31  and  O16_86 
REMARK       I    between atoms: O5K_34  and  S5H_47 
REMARK       I    between atoms: O1J_37  and  S1G_48 
REMARK       I    between atoms: C12_38  and  O10_70 
REMARK       I    between atoms: C13_42  and  C15_63 
REMARK       I    between atoms: C29_43  and  O2A_60 
REMARK       I    between atoms: C31_45  and  C33_81 
REMARK       I    between atoms: S5H_47  and  O5J_49 
REMARK       I    between atoms: S1G_48  and  O1H_78 
REMARK       I    between atoms: S3H_51  and  O3J_68 
REMARK       I    between atoms: O3A_54  and  C39_85 
REMARK       I    between atoms: O3A_54  and  S3B_83 
REMARK       I    between atoms: C5L_55  and  O5M_87 
REMARK       I    between atoms: C15_63  and  O16_86 
REMARK       I    between atoms: C59_71  and  O5A_75 
REMARK       I    between atoms: C33_81  and  O34_91 
REMARK       I    between atoms: S35_82  and  O34_91 
ROOT
ATOM      1  O3I NTO d 869      67.787   6.070   4.860  0.00  0.00    -0.296 OA
ATOM      2  O1I NTO d 869      55.099  -3.046   6.329  0.00  0.00    -0.296 OA
ATOM      3  O54 NTO d 869      69.694   7.315  10.239  0.00  0.00    -0.254 OA
ATOM      4  O18 NTO d 869      52.388   4.843   7.262  0.00  0.00    -0.572 OA
ATOM      5  C41 NTO d 869      66.870   2.708   8.668  0.00  0.00     0.152 C 
ATOM      6  C1B NTO d 869      54.719  -0.101   3.426  0.00  0.00     0.083 C 
ATOM      7  O4G NTO d 869      69.495   3.754  10.257  0.00  0.00    -0.348 OA
ATOM      8  N5G NTO d 869      68.090   3.955  14.894  0.00  0.00    -0.210 NA
ATOM      9  N1F NTO d 869      56.284  -1.510   4.670  0.00  0.00    -0.210 NA
ATOM     10  O3K NTO d 869      66.959   4.747   2.968  0.00  0.00    -0.296 OA
ATOM     11  C5N NTO d 869      71.424   5.824  15.440  0.00  0.00     0.007 C 
ATOM     12  C21 NTO d 869      59.036   2.194   4.243  0.00  0.00     0.152 C 
ATOM     13  C26 NTO d 869      58.758   0.441   5.944  0.00  0.00     0.092 C 
ATOM     14  O4E NTO d 869      72.942   2.937   7.570  0.00  0.00    -0.572 OA
ATOM     15  C50 NTO d 869      69.148   4.657  11.318  0.00  0.00     0.095 C 
ATOM     16  C49 NTO d 869      69.322   3.139   7.938  0.00  0.00     0.134 C 
ATOM     17  O2D NTO d 869      62.074   2.203   6.254  0.00  0.00    -0.348 OA
ATOM     18  O1L NTO d 869      56.878   1.206   4.561  0.00  0.00    -0.348 OA
ATOM     19  O19 NTO d 869      51.852   5.620   4.999  0.00  0.00    -0.572 OA
ATOM     20  C46 NTO d 869      68.383   3.179   6.731  0.00  0.00     0.094 C 
ATOM     21  O4A NTO d 869      70.639   3.539   7.551  0.00  0.00    -0.244 OA
ATOM     22  N3G NTO d 869      65.276   5.600   4.714  0.00  0.00    -0.210 NA
ATOM     23  O36 NTO d 869      61.601  -1.373   3.674  0.00  0.00    -0.572 OA
ATOM     24  O57 NTO d 869      71.303   8.390   8.834  0.00  0.00    -0.572 OA
ATOM     25  C40 NTO d 869      67.005   2.675   7.152  0.00  0.00     0.103 C 
ATOM     26  O5I NTO d 869      65.569   4.206  15.192  0.00  0.00    -0.296 OA
ATOM     27  C20 NTO d 869      58.063   1.616   5.259  0.00  0.00     0.103 C 
ATOM     28  C53 NTO d 869      70.742   6.391  10.537  0.00  0.00     0.067 C 
ATOM     29  O3M NTO d 869      66.024   3.533   6.556  0.00  0.00    -0.348 OA
ATOM     30  C43 NTO d 869      65.398   2.561   9.018  0.00  0.00     0.206 C 
ATOM     31  S17 NTO d 869      52.961   5.337   5.968  0.00  0.00     0.251 S 
ATOM     32  O45 NTO d 869      64.583   3.343   8.476  0.00  0.00    -0.646 OA
ATOM     33  O47 NTO d 869      68.902   2.336   5.699  0.00  0.00    -0.390 OA
ATOM     34  O5K NTO d 869      66.995   4.299  17.185  0.00  0.00    -0.296 OA
ATOM     35  C2C NTO d 869      60.936   1.646   5.573  0.00  0.00     0.160 C 
ATOM     36  O38 NTO d 869      63.648  -1.723   2.386  0.00  0.00    -0.572 OA
ATOM     37  O1J NTO d 869      56.688  -4.026   4.743  0.00  0.00    -0.296 OA
ATOM     38  C12 NTO d 869      53.753   1.081   3.547  0.00  0.00     0.089 C 
ATOM     39  S4B NTO d 869      71.534   2.424   7.594  0.00  0.00     0.252 S 
ATOM     40  O4D NTO d 869      71.293   1.538   6.408  0.00  0.00    -0.572 OA
ATOM     41  C1E NTO d 869      55.240  -0.487   4.811  0.00  0.00     0.081 C 
ATOM     42  C13 NTO d 869      54.383   2.220   4.351  0.00  0.00     0.090 C 
ATOM     43  C29 NTO d 869      60.046   0.941   6.601  0.00  0.00     0.110 C 
ATOM     44  O42 NTO d 869      67.373   3.953   9.185  0.00  0.00    -0.340 OA
ATOM     45  C31 NTO d 869      64.341   1.602   5.731  0.00  0.00     0.091 C 
ATOM     46  C3F NTO d 869      64.833   4.198   4.608  0.00  0.00     0.083 C 
ATOM     47  S5H NTO d 869      66.888   4.669  15.735  0.00  0.00     0.156 S 
ATOM     48  S1G NTO d 869      55.629  -2.979   4.927  0.00  0.00     0.156 S 
ATOM     49  O5J NTO d 869      66.987   6.159  15.607  0.00  0.00    -0.296 OA
ATOM     50  C5F NTO d 869      68.410   4.751  13.700  0.00  0.00     0.081 C 
ATOM     51  S3H NTO d 869      66.656   5.891   3.889  0.00  0.00     0.156 S 
ATOM     52  O25 NTO d 869      57.599   2.953   2.505  0.00  0.00    -0.646 OA
ATOM     53  O1C NTO d 869      54.042  -1.215   2.840  0.00  0.00    -0.391 OA
ATOM     54  O3A NTO d 869      62.503   4.794   4.953  0.00  0.00    -0.247 OA
ATOM     55  C5L NTO d 869      69.606   5.660  13.992  0.00  0.00     0.149 C 
ATOM     56  C30 NTO d 869      63.160   2.490   5.359  0.00  0.00     0.096 C 
ATOM     57  C23 NTO d 869      58.316   3.293   3.474  0.00  0.00     0.206 C 
ATOM     58  O3E NTO d 869      61.762   5.202   7.203  0.00  0.00    -0.572 OA
ATOM     59  O14 NTO d 869      54.849   1.749   5.626  0.00  0.00    -0.349 OA
ATOM     60  O2A NTO d 869      60.751  -0.166   7.165  0.00  0.00    -0.388 OA
ATOM     61  C3L NTO d 869      65.918   3.269   5.151  0.00  0.00     0.150 C 
ATOM     62  C4F NTO d 869      68.797   4.062   9.042  0.00  0.00     0.161 C 
ATOM     63  C15 NTO d 869      53.314   3.285   4.611  0.00  0.00     0.067 C 
ATOM     64  S55 NTO d 869      69.854   8.298   9.209  0.00  0.00     0.251 S 
ATOM     65  O58 NTO d 869      69.382   9.625   9.723  0.00  0.00    -0.572 OA
ATOM     66  C51 NTO d 869      70.348   5.501  11.718  0.00  0.00     0.091 C 
ATOM     67  O56 NTO d 869      69.054   7.912   8.001  0.00  0.00    -0.572 OA
ATOM     68  O3J NTO d 869      66.499   7.137   3.070  0.00  0.00    -0.296 OA
ATOM     69  O44 NTO d 869      65.067   1.657   9.828  0.00  0.00    -0.646 OA
ATOM     70  O10 NTO d 869      53.446   1.557   2.235  0.00  0.00    -0.390 OA
ATOM     71  C59 NTO d 869      68.712   3.823  12.522  0.00  0.00     0.083 C 
ATOM     72  O52 NTO d 869      70.027   6.371  12.816  0.00  0.00    -0.349 OA
ATOM     73  O27 NTO d 869      57.903  -0.113   6.949  0.00  0.00    -0.390 OA
ATOM     74  O1A NTO d 869      53.746   6.588   6.220  0.00  0.00    -0.572 OA
ATOM     75  O5A NTO d 869      67.530   3.099  12.166  0.00  0.00    -0.391 OA
ATOM     76  O37 NTO d 869      63.535  -2.434   4.732  0.00  0.00    -0.572 OA
ATOM     77  O24 NTO d 869      58.462   4.477   3.860  0.00  0.00    -0.646 OA
ATOM     78  O1H NTO d 869      54.512  -3.203   3.952  0.00  0.00    -0.296 OA
ATOM     79  O22 NTO d 869      60.218   2.690   4.896  0.00  0.00    -0.340 OA
ATOM     80  O3D NTO d 869      61.068   6.663   5.363  0.00  0.00    -0.572 OA
ATOM     81  C33 NTO d 869      63.950   0.138   5.511  0.00  0.00     0.067 C 
ATOM     82  S35 NTO d 869      63.098  -1.395   3.742  0.00  0.00     0.251 S 
ATOM     83  S3B NTO d 869      62.184   5.818   5.901  0.00  0.00     0.252 S 
ATOM     84  O4C NTO d 869      71.312   1.649   8.859  0.00  0.00    -0.572 OA
ATOM     85  C39 NTO d 869      63.567   3.965   5.435  0.00  0.00     0.108 C 
ATOM     86  O16 NTO d 869      53.834   4.340   5.423  0.00  0.00    -0.254 OA
ATOM     87  O5M NTO d 869      70.677   4.933  14.606  0.00  0.00    -0.364 OA
ATOM     88  O3C NTO d 869      63.384   6.687   6.134  0.00  0.00    -0.572 OA
ATOM     89  C1K NTO d 869      55.864   0.746   5.465  0.00  0.00     0.150 C 
ATOM     90  O32 NTO d 869      65.503   1.909   4.944  0.00  0.00    -0.349 OA
ATOM     91  O34 NTO d 869      63.587  -0.110   4.149  0.00  0.00    -0.254 OA
ATOM     92  H   NTO d 869      67.889   5.264   5.390  0.00  0.00     0.231 HD
ATOM     93  H   NTO d 869      55.824  -2.900   6.957  0.00  0.00     0.231 HD
ATOM     94  H   NTO d 869      67.437   1.910   9.101  0.00  0.00     0.104 H 
ATOM     95  H   NTO d 869      55.545   0.180   2.806  0.00  0.00     0.089 H 
ATOM     96  H   NTO d 869      68.919   3.883  15.484  0.00  0.00     0.140 HD
ATOM     97  H   NTO d 869      57.022  -1.340   5.354  0.00  0.00     0.140 HD
ATOM     98  H   NTO d 869      67.064   3.933   3.486  0.00  0.00     0.231 HD
ATOM     99  H   NTO d 869      72.227   5.290  15.904  0.00  0.00     0.066 H 
ATOM    100  H   NTO d 869      70.782   6.229  16.195  0.00  0.00     0.066 H 
ATOM    101  H   NTO d 869      71.821   6.620  14.846  0.00  0.00     0.066 H 
ATOM    102  H   NTO d 869      59.358   1.435   3.560  0.00  0.00     0.104 H 
ATOM    103  H   NTO d 869      58.982  -0.313   5.218  0.00  0.00     0.091 H 
ATOM    104  H   NTO d 869      68.364   5.308  10.990  0.00  0.00     0.091 H 
ATOM    105  H   NTO d 869      69.361   2.138   8.312  0.00  0.00     0.097 H 
ATOM    106  H   NTO d 869      68.305   4.182   6.368  0.00  0.00     0.091 H 
ATOM    107  H   NTO d 869      65.431   5.820   5.698  0.00  0.00     0.140 HD
ATOM    108  H   NTO d 869      66.867   1.665   6.829  0.00  0.00     0.092 H 
ATOM    109  H   NTO d 869      65.505   3.243  15.275  0.00  0.00     0.231 HD
ATOM    110  H   NTO d 869      57.779   2.329   6.004  0.00  0.00     0.092 H 
ATOM    111  H   NTO d 869      71.630   6.933  10.784  0.00  0.00     0.080 H 
ATOM    112  H   NTO d 869      70.915   5.773   9.680  0.00  0.00     0.080 H 
ATOM    113  H   NTO d 869      68.973   1.426   6.029  0.00  0.00     0.210 HD
ATOM    114  H   NTO d 869      66.932   3.335  17.279  0.00  0.00     0.231 HD
ATOM    115  H   NTO d 869      61.252   0.935   4.840  0.00  0.00     0.133 H 
ATOM    116  H   NTO d 869      57.406  -3.874   5.377  0.00  0.00     0.231 HD
ATOM    117  H   NTO d 869      52.868   0.753   4.051  0.00  0.00     0.091 H 
ATOM    118  H   NTO d 869      54.433  -0.863   5.405  0.00  0.00     0.076 H 
ATOM    119  H   NTO d 869      55.207   2.614   3.793  0.00  0.00     0.090 H 
ATOM    120  H   NTO d 869      59.792   1.641   7.369  0.00  0.00     0.094 H 
ATOM    121  H   NTO d 869      64.584   1.778   6.757  0.00  0.00     0.090 H 
ATOM    122  H   NTO d 869      64.637   3.993   3.576  0.00  0.00     0.076 H 
ATOM    123  H   NTO d 869      66.919   6.409  14.672  0.00  0.00     0.231 HD
ATOM    124  H   NTO d 869      67.571   5.362  13.443  0.00  0.00     0.076 H 
ATOM    125  H   NTO d 869      53.293  -1.470   3.402  0.00  0.00     0.210 HD
ATOM    126  H   NTO d 869      69.289   6.399  14.698  0.00  0.00     0.131 H 
ATOM    127  H   NTO d 869      62.847   2.292   4.355  0.00  0.00     0.091 H 
ATOM    128  H   NTO d 869      60.978  -0.797   6.464  0.00  0.00     0.210 HD
ATOM    129  H   NTO d 869      66.857   3.426   4.662  0.00  0.00     0.131 H 
ATOM    130  H   NTO d 869      68.983   5.083   8.783  0.00  0.00     0.133 H 
ATOM    131  H   NTO d 869      52.484   2.834   5.112  0.00  0.00     0.080 H 
ATOM    132  H   NTO d 869      53.005   3.696   3.672  0.00  0.00     0.080 H 
ATOM    133  H   NTO d 869      71.140   4.840  12.003  0.00  0.00     0.090 H 
ATOM    134  H   NTO d 869      67.318   7.309   2.581  0.00  0.00     0.231 HD
ATOM    135  H   NTO d 869      54.262   1.848   1.798  0.00  0.00     0.210 HD
ATOM    136  H   NTO d 869      69.489   3.143  12.802  0.00  0.00     0.089 H 
ATOM    137  H   NTO d 869      57.697   0.567   7.609  0.00  0.00     0.210 HD
ATOM    138  H   NTO d 869      66.833   3.724  11.914  0.00  0.00     0.210 HD
ATOM    139  H   NTO d 869      53.832  -2.523   4.077  0.00  0.00     0.231 HD
ATOM    140  H   NTO d 869      63.118  -0.098   6.141  0.00  0.00     0.080 H 
ATOM    141  H   NTO d 869      64.795  -0.474   5.749  0.00  0.00     0.080 H 
ATOM    142  H   NTO d 869      63.766   4.220   6.455  0.00  0.00     0.092 H 
ATOM    143  H   NTO d 869      56.278   0.530   6.428  0.00  0.00     0.131 H 
ENDROOT
TORSDOF 46
ENDMDL
MODEL 76
REMARK VINA RESULT:      -5.0      5.097     14.149
REMARK  0 active torsions:
REMARK  status: ('A' for Active; 'I' for Inactive)
REMARK       I    between atoms: O3I_1  and  S3H_51 
REMARK       I    between atoms: O1I_2  and  S1G_48 
REMARK       I    between atoms: O54_3  and  C53_28 
REMARK       I    between atoms: O54_3  and  S55_64 
REMARK       I    between atoms: C41_5  and  C43_30 
REMARK       I    between atoms: C1B_6  and  O1C_53 
REMARK       I    between atoms: O4G_7  and  C4F_62 
REMARK       I    between atoms: O4G_7  and  C50_15 
REMARK       I    between atoms: N5G_8  and  C5F_50 
REMARK       I    between atoms: N5G_8  and  S5H_47 
REMARK       I    between atoms: N1F_9  and  C1E_41 
REMARK       I    between atoms: N1F_9  and  S1G_48 
REMARK       I    between atoms: O3K_10  and  S3H_51 
REMARK       I    between atoms: C5N_11  and  O5M_87 
REMARK       I    between atoms: C21_12  and  C23_57 
REMARK       I    between atoms: C26_13  and  O27_73 
REMARK       I    between atoms: C49_16  and  O4A_21 
REMARK       I    between atoms: O2D_17  and  C2C_35 
REMARK       I    between atoms: O2D_17  and  C30_56 
REMARK       I    between atoms: O1L_18  and  C1K_89 
REMARK       I    between atoms: O1L_18  and  C20_27 
REMARK       I    between atoms: C46_20  and  O47_33 
REMARK       I    between atoms: O4A_21  and  S4B_39 
REMARK       I    between atoms: N3G_22  and  C3F_46 
REMARK       I    between atoms: N3G_22  and  S3H_51 
REMARK       I    between atoms: C40_25  and  O3M_29 
REMARK       I    between atoms: O5I_26  and  S5H_47 
REMARK       I    between atoms: C53_28  and  C51_66 
REMARK       I    between atoms: O3M_29  and  C3L_61 
REMARK       I    between atoms: S17_31  and  O16_86 
REMARK       I    between atoms: O5K_34  and  S5H_47 
REMARK       I    between atoms: O1J_37  and  S1G_48 
REMARK       I    between atoms: C12_38  and  O10_70 
REMARK       I    between atoms: C13_42  and  C15_63 
REMARK       I    between atoms: C29_43  and  O2A_60 
REMARK       I    between atoms: C31_45  and  C33_81 
REMARK       I    between atoms: S5H_47  and  O5J_49 
REMARK       I    between atoms: S1G_48  and  O1H_78 
REMARK       I    between atoms: S3H_51  and  O3J_68 
REMARK       I    between atoms: O3A_54  and  C39_85 
REMARK       I    between atoms: O3A_54  and  S3B_83 
REMARK       I    between atoms: C5L_55  and  O5M_87 
REMARK       I    between atoms: C15_63  and  O16_86 
REMARK       I    between atoms: C59_71  and  O5A_75 
REMARK       I    between atoms: C33_81  and  O34_91 
REMARK       I    between atoms: S35_82  and  O34_91 
ROOT
ATOM      1  O3I NTO d 869      58.439   0.265  10.106  0.00  0.00    -0.296 OA
ATOM      2  O1I NTO d 869      73.047  -5.152   8.240  0.00  0.00    -0.296 OA
ATOM      3  O54 NTO d 869      58.315   5.737   8.067  0.00  0.00    -0.254 OA
ATOM      4  O18 NTO d 869      73.125  -0.726  15.371  0.00  0.00    -0.572 OA
ATOM      5  C41 NTO d 869      61.734   1.604   6.366  0.00  0.00     0.152 C 
ATOM      6  C1B NTO d 869      71.346  -6.144  11.896  0.00  0.00     0.083 C 
ATOM      7  O4G NTO d 869      59.678   3.889   5.338  0.00  0.00    -0.348 OA
ATOM      8  N5G NTO d 869      62.516   7.686   4.313  0.00  0.00    -0.210 NA
ATOM      9  N1F NTO d 869      70.903  -5.577   9.559  0.00  0.00    -0.210 NA
ATOM     10  O3K NTO d 869      58.912  -2.140  10.197  0.00  0.00    -0.296 OA
ATOM     11  C5N NTO d 869      59.190   9.625   4.018  0.00  0.00     0.007 C 
ATOM     12  C21 NTO d 869      67.121  -3.606  11.372  0.00  0.00     0.152 C 
ATOM     13  C26 NTO d 869      68.563  -3.116   9.440  0.00  0.00     0.092 C 
ATOM     14  O4E NTO d 869      55.973   1.737   4.149  0.00  0.00    -0.572 OA
ATOM     15  C50 NTO d 869      60.065   5.195   5.792  0.00  0.00     0.095 C 
ATOM     16  C49 NTO d 869      59.191   1.590   5.852  0.00  0.00     0.134 C 
ATOM     17  O2D NTO d 869      65.203  -1.434   9.163  0.00  0.00    -0.348 OA
ATOM     18  O1L NTO d 869      69.444  -4.180  11.472  0.00  0.00    -0.348 OA
ATOM     19  O19 NTO d 869      72.512  -2.318  17.133  0.00  0.00    -0.572 OA
ATOM     20  C46 NTO d 869      59.558   0.448   6.801  0.00  0.00     0.094 C 
ATOM     21  O4A NTO d 869      57.772   1.674   5.707  0.00  0.00    -0.244 OA
ATOM     22  N3G NTO d 869      60.728  -0.489  10.965  0.00  0.00    -0.210 NA
ATOM     23  O36 NTO d 869      65.867  -5.524   7.580  0.00  0.00    -0.572 OA
ATOM     24  O57 NTO d 869      56.047   5.355   8.723  0.00  0.00    -0.572 OA
ATOM     25  C40 NTO d 869      61.078   0.330   6.878  0.00  0.00     0.103 C 
ATOM     26  O5I NTO d 869      64.735   7.675   5.570  0.00  0.00    -0.296 OA
ATOM     27  C20 NTO d 869      68.529  -3.197  10.966  0.00  0.00     0.103 C 
ATOM     28  C53 NTO d 869      57.817   5.675   6.729  0.00  0.00     0.067 C 
ATOM     29  O3M NTO d 869      61.431   0.117   8.250  0.00  0.00    -0.348 OA
ATOM     30  C43 NTO d 869      63.192   1.596   6.798  0.00  0.00     0.206 C 
ATOM     31  S17 NTO d 869      71.992  -1.474  16.007  0.00  0.00     0.251 S 
ATOM     32  O45 NTO d 869      63.445   1.415   8.011  0.00  0.00    -0.646 OA
ATOM     33  O47 NTO d 869      59.012  -0.777   6.301  0.00  0.00    -0.390 OA
ATOM     34  O5K NTO d 869      64.186   9.625   4.187  0.00  0.00    -0.296 OA
ATOM     35  C2C NTO d 869      66.131  -2.471   9.524  0.00  0.00     0.160 C 
ATOM     36  O38 NTO d 869      63.733  -6.472   6.859  0.00  0.00    -0.572 OA
ATOM     37  O1J NTO d 869      71.414  -6.748   7.352  0.00  0.00    -0.296 OA
ATOM     38  C12 NTO d 869      71.839  -5.584  13.233  0.00  0.00     0.089 C 
ATOM     39  S4B NTO d 869      57.378   1.275   4.391  0.00  0.00     0.252 S 
ATOM     40  O4D NTO d 869      57.452  -0.218   4.274  0.00  0.00    -0.572 OA
ATOM     41  C1E NTO d 869      71.523  -5.094  10.799  0.00  0.00     0.081 C 
ATOM     42  C13 NTO d 869      71.203  -4.222  13.521  0.00  0.00     0.090 C 
ATOM     43  C29 NTO d 869      67.513  -2.105   8.974  0.00  0.00     0.110 C 
ATOM     44  O42 NTO d 869      61.071   2.759   6.910  0.00  0.00    -0.340 OA
ATOM     45  C31 NTO d 869      63.239  -1.834   7.838  0.00  0.00     0.091 C 
ATOM     46  C3F NTO d 869      61.541  -1.368  10.105  0.00  0.00     0.083 C 
ATOM     47  S5H NTO d 869      63.630   8.576   5.105  0.00  0.00     0.156 S 
ATOM     48  S1G NTO d 869      72.054  -6.219   8.601  0.00  0.00     0.156 S 
ATOM     49  O5J NTO d 869      63.002   9.250   6.287  0.00  0.00    -0.296 OA
ATOM     50  C5F NTO d 869      61.539   7.138   5.266  0.00  0.00     0.081 C 
ATOM     51  S3H NTO d 869      59.130  -0.821  10.877  0.00  0.00     0.156 S 
ATOM     52  O25 NTO d 869      67.491  -4.904  13.331  0.00  0.00    -0.646 OA
ATOM     53  O1C NTO d 869      72.093  -7.317  11.564  0.00  0.00    -0.391 OA
ATOM     54  O3A NTO d 869      63.497  -1.131  11.527  0.00  0.00    -0.247 OA
ATOM     55  C5L NTO d 869      60.302   8.037   5.311  0.00  0.00     0.149 C 
ATOM     56  C30 NTO d 869      63.838  -1.873   9.238  0.00  0.00     0.096 C 
ATOM     57  C23 NTO d 869      67.105  -3.800  12.881  0.00  0.00     0.206 C 
ATOM     58  O3E NTO d 869      64.823   0.861  11.303  0.00  0.00    -0.572 OA
ATOM     59  O14 NTO d 869      71.417  -3.317  12.426  0.00  0.00    -0.349 OA
ATOM     60  O2A NTO d 869      67.472  -2.090   7.547  0.00  0.00    -0.388 OA
ATOM     61  C3L NTO d 869      61.101  -1.221   8.649  0.00  0.00     0.150 C 
ATOM     62  C4F NTO d 869      59.742   2.915   6.389  0.00  0.00     0.161 C 
ATOM     63  C15 NTO d 869      71.874  -3.620  14.759  0.00  0.00     0.067 C 
ATOM     64  S55 NTO d 869      57.475   5.400   9.177  0.00  0.00     0.251 S 
ATOM     65  O58 NTO d 869      57.632   6.443  10.243  0.00  0.00    -0.572 OA
ATOM     66  C51 NTO d 869      58.884   6.153   5.741  0.00  0.00     0.091 C 
ATOM     67  O56 NTO d 869      57.862   4.059   9.725  0.00  0.00    -0.572 OA
ATOM     68  O3J NTO d 869      58.556  -0.895  12.261  0.00  0.00    -0.296 OA
ATOM     69  O44 NTO d 869      64.075   1.762   5.917  0.00  0.00    -0.646 OA
ATOM     70  O10 NTO d 869      71.472  -6.492  14.274  0.00  0.00    -0.390 OA
ATOM     71  C59 NTO d 869      61.158   5.714   4.859  0.00  0.00     0.083 C 
ATOM     72  O52 NTO d 869      59.273   7.477   6.143  0.00  0.00    -0.349 OA
ATOM     73  O27 NTO d 869      69.855  -2.687   9.003  0.00  0.00    -0.390 OA
ATOM     74  O1A NTO d 869      70.985  -0.497  16.530  0.00  0.00    -0.572 OA
ATOM     75  O5A NTO d 869      62.298   4.858   4.980  0.00  0.00    -0.391 OA
ATOM     76  O37 NTO d 869      64.919  -4.878   5.420  0.00  0.00    -0.572 OA
ATOM     77  O24 NTO d 869      66.724  -2.843  13.596  0.00  0.00    -0.646 OA
ATOM     78  O1H NTO d 869      72.748  -7.329   9.332  0.00  0.00    -0.296 OA
ATOM     79  O22 NTO d 869      66.164  -2.617  10.953  0.00  0.00    -0.340 OA
ATOM     80  O3D NTO d 869      64.274  -0.046  13.512  0.00  0.00    -0.572 OA
ATOM     81  C33 NTO d 869      63.986  -2.833   6.950  0.00  0.00     0.067 C 
ATOM     82  S35 NTO d 869      64.595  -5.246   6.837  0.00  0.00     0.251 S 
ATOM     83  S3B NTO d 869      63.778   0.146  12.109  0.00  0.00     0.252 S 
ATOM     84  O4C NTO d 869      58.288   1.909   3.380  0.00  0.00    -0.572 OA
ATOM     85  C39 NTO d 869      63.020  -0.987  10.183  0.00  0.00     0.108 C 
ATOM     86  O16 NTO d 869      71.366  -2.312  15.028  0.00  0.00    -0.254 OA
ATOM     87  O5M NTO d 869      59.834   8.347   3.993  0.00  0.00    -0.364 OA
ATOM     88  O3C NTO d 869      62.529   0.975  12.143  0.00  0.00    -0.572 OA
ATOM     89  C1K NTO d 869      70.808  -3.811  11.223  0.00  0.00     0.150 C 
ATOM     90  O32 NTO d 869      61.839  -2.159   7.850  0.00  0.00    -0.349 OA
ATOM     91  O34 NTO d 869      63.891  -4.165   7.463  0.00  0.00    -0.254 OA
ATOM     92  H   NTO d 869      58.809   0.313   9.211  0.00  0.00     0.231 HD
ATOM     93  H   NTO d 869      72.594  -4.436   7.767  0.00  0.00     0.231 HD
ATOM     94  H   NTO d 869      61.662   1.647   5.299  0.00  0.00     0.104 H 
ATOM     95  H   NTO d 869      70.309  -6.394  11.979  0.00  0.00     0.089 H 
ATOM     96  H   NTO d 869      62.032   8.275   3.635  0.00  0.00     0.140 HD
ATOM     97  H   NTO d 869      70.452  -4.799   9.077  0.00  0.00     0.140 HD
ATOM     98  H   NTO d 869      59.279  -2.106   9.300  0.00  0.00     0.231 HD
ATOM     99  H   NTO d 869      58.837   9.865   3.037  0.00  0.00     0.066 H 
ATOM    100  H   NTO d 869      59.888  10.370   4.338  0.00  0.00     0.066 H 
ATOM    101  H   NTO d 869      58.364   9.594   4.697  0.00  0.00     0.066 H 
ATOM    102  H   NTO d 869      66.846  -4.522  10.892  0.00  0.00     0.104 H 
ATOM    103  H   NTO d 869      68.355  -4.082   9.028  0.00  0.00     0.091 H 
ATOM    104  H   NTO d 869      60.412   5.131   6.803  0.00  0.00     0.091 H 
ATOM    105  H   NTO d 869      59.626   1.396   4.894  0.00  0.00     0.097 H 
ATOM    106  H   NTO d 869      59.161   0.645   7.774  0.00  0.00     0.091 H 
ATOM    107  H   NTO d 869      60.876   0.478  10.675  0.00  0.00     0.140 HD
ATOM    108  H   NTO d 869      61.417  -0.484   6.272  0.00  0.00     0.092 H 
ATOM    109  H   NTO d 869      65.141   7.240   4.805  0.00  0.00     0.231 HD
ATOM    110  H   NTO d 869      68.810  -2.246  11.366  0.00  0.00     0.092 H 
ATOM    111  H   NTO d 869      56.954   6.300   6.645  0.00  0.00     0.080 H 
ATOM    112  H   NTO d 869      57.561   4.662   6.500  0.00  0.00     0.080 H 
ATOM    113  H   NTO d 869      59.372  -0.955   5.418  0.00  0.00     0.210 HD
ATOM    114  H   NTO d 869      64.595   9.198   3.418  0.00  0.00     0.231 HD
ATOM    115  H   NTO d 869      65.827  -3.407   9.105  0.00  0.00     0.133 H 
ATOM    116  H   NTO d 869      70.968  -6.025   6.886  0.00  0.00     0.231 HD
ATOM    117  H   NTO d 869      72.901  -5.465  13.187  0.00  0.00     0.091 H 
ATOM    118  H   NTO d 869      72.566  -4.911  10.642  0.00  0.00     0.076 H 
ATOM    119  H   NTO d 869      70.153  -4.362  13.669  0.00  0.00     0.090 H 
ATOM    120  H   NTO d 869      67.780  -1.137   9.341  0.00  0.00     0.094 H 
ATOM    121  H   NTO d 869      63.340  -0.840   7.456  0.00  0.00     0.090 H 
ATOM    122  H   NTO d 869      61.405  -2.374  10.444  0.00  0.00     0.076 H 
ATOM    123  H   NTO d 869      62.640   8.580   6.887  0.00  0.00     0.231 HD
ATOM    124  H   NTO d 869      61.975   7.105   6.243  0.00  0.00     0.076 H 
ATOM    125  H   NTO d 869      73.034  -7.090  11.489  0.00  0.00     0.210 HD
ATOM    126  H   NTO d 869      60.588   8.964   5.763  0.00  0.00     0.131 H 
ATOM    127  H   NTO d 869      63.811  -2.870   9.625  0.00  0.00     0.091 H 
ATOM    128  H   NTO d 869      67.230  -2.971   7.220  0.00  0.00     0.210 HD
ATOM    129  H   NTO d 869      60.054  -1.407   8.529  0.00  0.00     0.131 H 
ATOM    130  H   NTO d 869      59.147   3.251   7.212  0.00  0.00     0.133 H 
ATOM    131  H   NTO d 869      72.929  -3.558  14.591  0.00  0.00     0.080 H 
ATOM    132  H   NTO d 869      71.667  -4.248  15.600  0.00  0.00     0.080 H 
ATOM    133  H   NTO d 869      58.518   6.175   4.736  0.00  0.00     0.090 H 
ATOM    134  H   NTO d 869      57.608  -1.092  12.208  0.00  0.00     0.231 HD
ATOM    135  H   NTO d 869      70.507  -6.585  14.296  0.00  0.00     0.210 HD
ATOM    136  H   NTO d 869      60.808   5.721   3.848  0.00  0.00     0.089 H 
ATOM    137  H   NTO d 869      70.048  -1.811   9.375  0.00  0.00     0.210 HD
ATOM    138  H   NTO d 869      62.607   4.859   5.899  0.00  0.00     0.210 HD
ATOM    139  H   NTO d 869      73.159  -6.979  10.138  0.00  0.00     0.231 HD
ATOM    140  H   NTO d 869      65.017  -2.552   6.902  0.00  0.00     0.080 H 
ATOM    141  H   NTO d 869      63.540  -2.816   5.977  0.00  0.00     0.080 H 
ATOM    142  H   NTO d 869      63.132   0.035   9.888  0.00  0.00     0.092 H 
ATOM    143  H   NTO d 869      70.868  -3.046  10.477  0.00  0.00     0.131 H 
ENDROOT
TORSDOF 46
ENDMDL
MODEL 77
REMARK VINA RESULT:      -5.0      3.267      4.576
REMARK  0 active torsions:
REMARK  status: ('A' for Active; 'I' for Inactive)
REMARK       I    between atoms: O3I_1  and  S3H_51 
REMARK       I    between atoms: O1I_2  and  S1G_48 
REMARK       I    between atoms: O54_3  and  C53_28 
REMARK       I    between atoms: O54_3  and  S55_64 
REMARK       I    between atoms: C41_5  and  C43_30 
REMARK       I    between atoms: C1B_6  and  O1C_53 
REMARK       I    between atoms: O4G_7  and  C4F_62 
REMARK       I    between atoms: O4G_7  and  C50_15 
REMARK       I    between atoms: N5G_8  and  C5F_50 
REMARK       I    between atoms: N5G_8  and  S5H_47 
REMARK       I    between atoms: N1F_9  and  C1E_41 
REMARK       I    between atoms: N1F_9  and  S1G_48 
REMARK       I    between atoms: O3K_10  and  S3H_51 
REMARK       I    between atoms: C5N_11  and  O5M_87 
REMARK       I    between atoms: C21_12  and  C23_57 
REMARK       I    between atoms: C26_13  and  O27_73 
REMARK       I    between atoms: C49_16  and  O4A_21 
REMARK       I    between atoms: O2D_17  and  C2C_35 
REMARK       I    between atoms: O2D_17  and  C30_56 
REMARK       I    between atoms: O1L_18  and  C1K_89 
REMARK       I    between atoms: O1L_18  and  C20_27 
REMARK       I    between atoms: C46_20  and  O47_33 
REMARK       I    between atoms: O4A_21  and  S4B_39 
REMARK       I    between atoms: N3G_22  and  C3F_46 
REMARK       I    between atoms: N3G_22  and  S3H_51 
REMARK       I    between atoms: C40_25  and  O3M_29 
REMARK       I    between atoms: O5I_26  and  S5H_47 
REMARK       I    between atoms: C53_28  and  C51_66 
REMARK       I    between atoms: O3M_29  and  C3L_61 
REMARK       I    between atoms: S17_31  and  O16_86 
REMARK       I    between atoms: O5K_34  and  S5H_47 
REMARK       I    between atoms: O1J_37  and  S1G_48 
REMARK       I    between atoms: C12_38  and  O10_70 
REMARK       I    between atoms: C13_42  and  C15_63 
REMARK       I    between atoms: C29_43  and  O2A_60 
REMARK       I    between atoms: C31_45  and  C33_81 
REMARK       I    between atoms: S5H_47  and  O5J_49 
REMARK       I    between atoms: S1G_48  and  O1H_78 
REMARK       I    between atoms: S3H_51  and  O3J_68 
REMARK       I    between atoms: O3A_54  and  C39_85 
REMARK       I    between atoms: O3A_54  and  S3B_83 
REMARK       I    between atoms: C5L_55  and  O5M_87 
REMARK       I    between atoms: C15_63  and  O16_86 
REMARK       I    between atoms: C59_71  and  O5A_75 
REMARK       I    between atoms: C33_81  and  O34_91 
REMARK       I    between atoms: S35_82  and  O34_91 
ROOT
ATOM      1  O3I NTO d 869      69.970   1.692   9.680  0.00  0.00    -0.296 OA
ATOM      2  O1I NTO d 869      54.996  -1.946   6.719  0.00  0.00    -0.296 OA
ATOM      3  O54 NTO d 869      70.993   0.505  15.307  0.00  0.00    -0.254 OA
ATOM      4  O18 NTO d 869      54.877   5.743  10.080  0.00  0.00    -0.572 OA
ATOM      5  C41 NTO d 869      67.221  -2.021  11.981  0.00  0.00     0.152 C 
ATOM      6  C1B NTO d 869      56.224   1.627   4.998  0.00  0.00     0.083 C 
ATOM      7  O4G NTO d 869      69.642  -2.555  14.069  0.00  0.00    -0.348 OA
ATOM      8  N5G NTO d 869      67.430  -3.191  18.337  0.00  0.00    -0.210 NA
ATOM      9  N1F NTO d 869      56.941  -0.564   5.813  0.00  0.00    -0.210 NA
ATOM     10  O3K NTO d 869      69.178   1.390   7.378  0.00  0.00    -0.296 OA
ATOM     11  C5N NTO d 869      70.995  -2.968  19.802  0.00  0.00     0.007 C 
ATOM     12  C21 NTO d 869      60.776   1.775   6.953  0.00  0.00     0.152 C 
ATOM     13  C26 NTO d 869      59.586  -0.155   7.907  0.00  0.00     0.092 C 
ATOM     14  O4E NTO d 869      73.121  -3.799  11.594  0.00  0.00    -0.572 OA
ATOM     15  C50 NTO d 869      69.392  -1.938  15.340  0.00  0.00     0.095 C 
ATOM     16  C49 NTO d 869      69.775  -2.357  11.675  0.00  0.00     0.134 C 
ATOM     17  O2D NTO d 869      63.150   0.050   9.113  0.00  0.00    -0.348 OA
ATOM     18  O1L NTO d 869      58.398   1.630   6.709  0.00  0.00    -0.348 OA
ATOM     19  O19 NTO d 869      55.118   7.286   8.188  0.00  0.00    -0.572 OA
ATOM     20  C46 NTO d 869      69.179  -1.617  10.477  0.00  0.00     0.094 C 
ATOM     21  O4A NTO d 869      71.200  -2.392  11.574  0.00  0.00    -0.244 OA
ATOM     22  N3G NTO d 869      67.535   2.271   9.149  0.00  0.00    -0.210 NA
ATOM     23  O36 NTO d 869      62.094  -2.167   5.420  0.00  0.00    -0.572 OA
ATOM     24  O57 NTO d 869      73.124   1.249  14.517  0.00  0.00    -0.572 OA
ATOM     25  C40 NTO d 869      67.655  -1.662  10.568  0.00  0.00     0.103 C 
ATOM     26  O5I NTO d 869      65.127  -2.102  18.471  0.00  0.00    -0.296 OA
ATOM     27  C20 NTO d 869      59.475   1.340   7.611  0.00  0.00     0.103 C 
ATOM     28  C53 NTO d 869      71.593  -0.790  15.360  0.00  0.00     0.067 C 
ATOM     29  O3M NTO d 869      67.159  -0.364  10.220  0.00  0.00    -0.348 OA
ATOM     30  C43 NTO d 869      65.742  -1.694  12.122  0.00  0.00     0.206 C 
ATOM     31  S17 NTO d 869      55.841   6.336   9.097  0.00  0.00     0.251 S 
ATOM     32  O45 NTO d 869      65.362  -0.542  11.813  0.00  0.00    -0.646 OA
ATOM     33  O47 NTO d 869      69.601  -2.256   9.268  0.00  0.00    -0.390 OA
ATOM     34  O5K NTO d 869      66.048  -3.138  20.494  0.00  0.00    -0.296 OA
ATOM     35  C2C NTO d 869      62.065   0.188   8.180  0.00  0.00     0.160 C 
ATOM     36  O38 NTO d 869      64.139  -2.876   4.284  0.00  0.00    -0.572 OA
ATOM     37  O1J NTO d 869      56.476  -2.950   5.045  0.00  0.00    -0.296 OA
ATOM     38  C12 NTO d 869      55.694   2.996   5.432  0.00  0.00     0.089 C 
ATOM     39  S4B NTO d 869      71.652  -3.724  11.309  0.00  0.00     0.252 S 
ATOM     40  O4D NTO d 869      71.392  -4.067   9.873  0.00  0.00    -0.572 OA
ATOM     41  C1E NTO d 869      56.284   0.689   6.204  0.00  0.00     0.081 C 
ATOM     42  C13 NTO d 869      56.476   3.527   6.636  0.00  0.00     0.090 C 
ATOM     43  C29 NTO d 869      60.797  -0.393   8.812  0.00  0.00     0.110 C 
ATOM     44  O42 NTO d 869      67.980  -1.266  12.943  0.00  0.00    -0.340 OA
ATOM     45  C31 NTO d 869      65.153  -1.184   8.624  0.00  0.00     0.091 C 
ATOM     46  C3F NTO d 869      66.692   1.236   8.523  0.00  0.00     0.083 C 
ATOM     47  S5H NTO d 869      66.378  -2.352  19.259  0.00  0.00     0.156 S 
ATOM     48  S1G NTO d 869      55.804  -1.683   5.482  0.00  0.00     0.156 S 
ATOM     49  O5J NTO d 869      66.983  -1.042  19.667  0.00  0.00    -0.296 OA
ATOM     50  C5F NTO d 869      68.239  -2.266  17.529  0.00  0.00     0.081 C 
ATOM     51  S3H NTO d 869      69.076   2.243   8.607  0.00  0.00     0.156 S 
ATOM     52  O25 NTO d 869      60.068   3.489   5.463  0.00  0.00    -0.646 OA
ATOM     53  O1C NTO d 869      55.361   1.074   4.001  0.00  0.00    -0.391 OA
ATOM     54  O3A NTO d 869      64.668   2.542   8.838  0.00  0.00    -0.247 OA
ATOM     55  C5L NTO d 869      69.574  -2.004  18.227  0.00  0.00     0.149 C 
ATOM     56  C30 NTO d 869      64.434   0.150   8.477  0.00  0.00     0.096 C 
ATOM     57  C23 NTO d 869      60.635   3.235   6.552  0.00  0.00     0.206 C 
ATOM     58  O3E NTO d 869      63.640   2.530  11.011  0.00  0.00    -0.572 OA
ATOM     59  O14 NTO d 869      56.480   2.567   7.705  0.00  0.00    -0.349 OA
ATOM     60  O2A NTO d 869      60.965  -1.796   9.019  0.00  0.00    -0.388 OA
ATOM     61  C3L NTO d 869      67.273  -0.148   8.806  0.00  0.00     0.150 C 
ATOM     62  C4F NTO d 869      69.358  -1.668  12.977  0.00  0.00     0.161 C 
ATOM     63  C15 NTO d 869      55.784   4.792   7.150  0.00  0.00     0.067 C 
ATOM     64  S55 NTO d 869      71.680   1.608  14.702  0.00  0.00     0.251 S 
ATOM     65  O58 NTO d 869      71.569   2.803  15.599  0.00  0.00    -0.572 OA
ATOM     66  C51 NTO d 869      70.689  -1.765  16.118  0.00  0.00     0.091 C 
ATOM     67  O56 NTO d 869      71.073   1.921  13.367  0.00  0.00    -0.572 OA
ATOM     68  O3J NTO d 869      69.512   3.636   8.261  0.00  0.00    -0.296 OA
ATOM     69  O44 NTO d 869      64.970  -2.599  12.534  0.00  0.00    -0.646 OA
ATOM     70  O10 NTO d 869      55.845   3.912   4.345  0.00  0.00    -0.390 OA
ATOM     71  C59 NTO d 869      68.464  -2.854  16.135  0.00  0.00     0.083 C 
ATOM     72  O52 NTO d 869      70.444  -1.197  17.415  0.00  0.00    -0.349 OA
ATOM     73  O27 NTO d 869      58.405  -0.609   8.573  0.00  0.00    -0.390 OA
ATOM     74  O1A NTO d 869      56.919   7.066   9.838  0.00  0.00    -0.572 OA
ATOM     75  O5A NTO d 869      67.214  -2.940  15.443  0.00  0.00    -0.391 OA
ATOM     76  O37 NTO d 869      63.305  -4.138   6.216  0.00  0.00    -0.572 OA
ATOM     77  O24 NTO d 869      61.074   4.110   7.336  0.00  0.00    -0.646 OA
ATOM     78  O1H NTO d 869      54.909  -1.174   4.392  0.00  0.00    -0.296 OA
ATOM     79  O22 NTO d 869      61.888   1.574   7.844  0.00  0.00    -0.340 OA
ATOM     80  O3D NTO d 869      63.869   4.610   9.738  0.00  0.00    -0.572 OA
ATOM     81  C33 NTO d 869      64.361  -2.260   7.874  0.00  0.00     0.067 C 
ATOM     82  S35 NTO d 869      63.452  -2.772   5.613  0.00  0.00     0.251 S 
ATOM     83  S3B NTO d 869      64.507   3.289  10.049  0.00  0.00     0.252 S 
ATOM     84  O4C NTO d 869      70.926  -4.688  12.201  0.00  0.00    -0.572 OA
ATOM     85  C39 NTO d 869      65.274   1.271   9.097  0.00  0.00     0.108 C 
ATOM     86  O16 NTO d 869      56.434   5.288   8.322  0.00  0.00    -0.254 OA
ATOM     87  O5M NTO d 869      70.193  -3.226  18.646  0.00  0.00    -0.364 OA
ATOM     88  O3C NTO d 869      65.846   3.530  10.678  0.00  0.00    -0.572 OA
ATOM     89  C1K NTO d 869      57.122   1.348   7.300  0.00  0.00     0.150 C 
ATOM     90  O32 NTO d 869      66.491  -1.126   8.103  0.00  0.00    -0.349 OA
ATOM     91  O34 NTO d 869      64.235  -1.946   6.484  0.00  0.00    -0.254 OA
ATOM     92  H   NTO d 869      69.689   0.791   9.903  0.00  0.00     0.231 HD
ATOM     93  H   NTO d 869      55.579  -2.275   7.422  0.00  0.00     0.231 HD
ATOM     94  H   NTO d 869      67.391  -3.062  12.161  0.00  0.00     0.104 H 
ATOM     95  H   NTO d 869      57.208   1.741   4.593  0.00  0.00     0.089 H 
ATOM     96  H   NTO d 869      68.045  -3.738  18.939  0.00  0.00     0.140 HD
ATOM     97  H   NTO d 869      57.531  -0.892   6.578  0.00  0.00     0.140 HD
ATOM     98  H   NTO d 869      68.899   0.485   7.588  0.00  0.00     0.231 HD
ATOM     99  H   NTO d 869      71.462  -3.875  20.124  0.00  0.00     0.066 H 
ATOM    100  H   NTO d 869      70.376  -2.588  20.588  0.00  0.00     0.066 H 
ATOM    101  H   NTO d 869      71.747  -2.246  19.561  0.00  0.00     0.066 H 
ATOM    102  H   NTO d 869      60.969   1.183   6.083  0.00  0.00     0.104 H 
ATOM    103  H   NTO d 869      59.701  -0.692   6.988  0.00  0.00     0.091 H 
ATOM    104  H   NTO d 869      68.953  -0.974  15.188  0.00  0.00     0.091 H 
ATOM    105  H   NTO d 869      69.404  -3.362  11.680  0.00  0.00     0.097 H 
ATOM    106  H   NTO d 869      69.512  -0.601  10.479  0.00  0.00     0.091 H 
ATOM    107  H   NTO d 869      67.542   2.120  10.158  0.00  0.00     0.140 HD
ATOM    108  H   NTO d 869      67.267  -2.404   9.902  0.00  0.00     0.092 H 
ATOM    109  H   NTO d 869      64.736  -2.949  18.208  0.00  0.00     0.231 HD
ATOM    110  H   NTO d 869      59.288   1.858   8.528  0.00  0.00     0.092 H 
ATOM    111  H   NTO d 869      72.535  -0.721  15.861  0.00  0.00     0.080 H 
ATOM    112  H   NTO d 869      71.732  -1.150  14.362  0.00  0.00     0.080 H 
ATOM    113  H   NTO d 869      69.298  -3.178   9.267  0.00  0.00     0.210 HD
ATOM    114  H   NTO d 869      65.655  -3.989  20.241  0.00  0.00     0.231 HD
ATOM    115  H   NTO d 869      62.279  -0.344   7.277  0.00  0.00     0.133 H 
ATOM    116  H   NTO d 869      57.053  -3.272   5.755  0.00  0.00     0.231 HD
ATOM    117  H   NTO d 869      54.665   2.897   5.707  0.00  0.00     0.091 H 
ATOM    118  H   NTO d 869      55.292   0.492   6.554  0.00  0.00     0.076 H 
ATOM    119  H   NTO d 869      57.482   3.723   6.328  0.00  0.00     0.090 H 
ATOM    120  H   NTO d 869      60.629   0.095   9.749  0.00  0.00     0.094 H 
ATOM    121  H   NTO d 869      65.217  -1.420   9.665  0.00  0.00     0.090 H 
ATOM    122  H   NTO d 869      66.664   1.430   7.471  0.00  0.00     0.076 H 
ATOM    123  H   NTO d 869      67.200  -0.526  18.875  0.00  0.00     0.231 HD
ATOM    124  H   NTO d 869      67.719  -1.337  17.424  0.00  0.00     0.076 H 
ATOM    125  H   NTO d 869      54.469   0.970   4.368  0.00  0.00     0.210 HD
ATOM    126  H   NTO d 869      69.375  -1.439  19.113  0.00  0.00     0.131 H 
ATOM    127  H   NTO d 869      64.294   0.386   7.443  0.00  0.00     0.091 H 
ATOM    128  H   NTO d 869      61.117  -2.233   8.166  0.00  0.00     0.210 HD
ATOM    129  H   NTO d 869      68.293  -0.223   8.491  0.00  0.00     0.131 H 
ATOM    130  H   NTO d 869      69.918  -0.765  13.108  0.00  0.00     0.133 H 
ATOM    131  H   NTO d 869      54.765   4.564   7.385  0.00  0.00     0.080 H 
ATOM    132  H   NTO d 869      55.832   5.542   6.388  0.00  0.00     0.080 H 
ATOM    133  H   NTO d 869      71.142  -2.728  16.226  0.00  0.00     0.090 H 
ATOM    134  H   NTO d 869      70.427   3.619   7.940  0.00  0.00     0.231 HD
ATOM    135  H   NTO d 869      56.784   3.986   4.113  0.00  0.00     0.210 HD
ATOM    136  H   NTO d 869      68.898  -3.827  16.232  0.00  0.00     0.089 H 
ATOM    137  H   NTO d 869      58.297  -0.125   9.407  0.00  0.00     0.210 HD
ATOM    138  H   NTO d 869      66.829  -2.054  15.360  0.00  0.00     0.210 HD
ATOM    139  H   NTO d 869      54.478  -0.355   4.683  0.00  0.00     0.231 HD
ATOM    140  H   NTO d 869      63.385  -2.335   8.304  0.00  0.00     0.080 H 
ATOM    141  H   NTO d 869      64.889  -3.187   7.962  0.00  0.00     0.080 H 
ATOM    142  H   NTO d 869      65.325   1.124  10.156  0.00  0.00     0.092 H 
ATOM    143  H   NTO d 869      57.229   0.722   8.162  0.00  0.00     0.131 H 
ENDROOT
TORSDOF 46
ENDMDL
MODEL 78
REMARK VINA RESULT:      -4.9      4.623     13.950
REMARK  0 active torsions:
REMARK  status: ('A' for Active; 'I' for Inactive)
REMARK       I    between atoms: O3I_1  and  S3H_51 
REMARK       I    between atoms: O1I_2  and  S1G_48 
REMARK       I    between atoms: O54_3  and  C53_28 
REMARK       I    between atoms: O54_3  and  S55_64 
REMARK       I    between atoms: C41_5  and  C43_30 
REMARK       I    between atoms: C1B_6  and  O1C_53 
REMARK       I    between atoms: O4G_7  and  C4F_62 
REMARK       I    between atoms: O4G_7  and  C50_15 
REMARK       I    between atoms: N5G_8  and  C5F_50 
REMARK       I    between atoms: N5G_8  and  S5H_47 
REMARK       I    between atoms: N1F_9  and  C1E_41 
REMARK       I    between atoms: N1F_9  and  S1G_48 
REMARK       I    between atoms: O3K_10  and  S3H_51 
REMARK       I    between atoms: C5N_11  and  O5M_87 
REMARK       I    between atoms: C21_12  and  C23_57 
REMARK       I    between atoms: C26_13  and  O27_73 
REMARK       I    between atoms: C49_16  and  O4A_21 
REMARK       I    between atoms: O2D_17  and  C2C_35 
REMARK       I    between atoms: O2D_17  and  C30_56 
REMARK       I    between atoms: O1L_18  and  C1K_89 
REMARK       I    between atoms: O1L_18  and  C20_27 
REMARK       I    between atoms: C46_20  and  O47_33 
REMARK       I    between atoms: O4A_21  and  S4B_39 
REMARK       I    between atoms: N3G_22  and  C3F_46 
REMARK       I    between atoms: N3G_22  and  S3H_51 
REMARK       I    between atoms: C40_25  and  O3M_29 
REMARK       I    between atoms: O5I_26  and  S5H_47 
REMARK       I    between atoms: C53_28  and  C51_66 
REMARK       I    between atoms: O3M_29  and  C3L_61 
REMARK       I    between atoms: S17_31  and  O16_86 
REMARK       I    between atoms: O5K_34  and  S5H_47 
REMARK       I    between atoms: O1J_37  and  S1G_48 
REMARK       I    between atoms: C12_38  and  O10_70 
REMARK       I    between atoms: C13_42  and  C15_63 
REMARK       I    between atoms: C29_43  and  O2A_60 
REMARK       I    between atoms: C31_45  and  C33_81 
REMARK       I    between atoms: S5H_47  and  O5J_49 
REMARK       I    between atoms: S1G_48  and  O1H_78 
REMARK       I    between atoms: S3H_51  and  O3J_68 
REMARK       I    between atoms: O3A_54  and  C39_85 
REMARK       I    between atoms: O3A_54  and  S3B_83 
REMARK       I    between atoms: C5L_55  and  O5M_87 
REMARK       I    between atoms: C15_63  and  O16_86 
REMARK       I    between atoms: C59_71  and  O5A_75 
REMARK       I    between atoms: C33_81  and  O34_91 
REMARK       I    between atoms: S35_82  and  O34_91 
ROOT
ATOM      1  O3I NTO d 869      58.458   0.363   8.111  0.00  0.00    -0.296 OA
ATOM      2  O1I NTO d 869      72.644  -4.611  12.609  0.00  0.00    -0.296 OA
ATOM      3  O54 NTO d 869      59.096   5.721   5.875  0.00  0.00    -0.254 OA
ATOM      4  O18 NTO d 869      69.775   0.156  18.893  0.00  0.00    -0.572 OA
ATOM      5  C41 NTO d 869      62.966   1.636   5.943  0.00  0.00     0.152 C 
ATOM      6  C1B NTO d 869      69.624  -5.484  15.322  0.00  0.00     0.083 C 
ATOM      7  O4G NTO d 869      61.470   3.793   4.041  0.00  0.00    -0.348 OA
ATOM      8  N5G NTO d 869      64.430   7.635   4.024  0.00  0.00    -0.210 NA
ATOM      9  N1F NTO d 869      70.156  -5.048  12.975  0.00  0.00    -0.210 NA
ATOM     10  O3K NTO d 869      58.886  -2.016   8.526  0.00  0.00    -0.296 OA
ATOM     11  C5N NTO d 869      61.482   9.436   2.300  0.00  0.00     0.007 C 
ATOM     12  C21 NTO d 869      65.939  -3.128  12.992  0.00  0.00     0.152 C 
ATOM     13  C26 NTO d 869      68.031  -2.681  11.780  0.00  0.00     0.092 C 
ATOM     14  O4E NTO d 869      58.591   1.453   1.589  0.00  0.00    -0.572 OA
ATOM     15  C50 NTO d 869      61.623   5.132   4.535  0.00  0.00     0.095 C 
ATOM     16  C49 NTO d 869      60.848   1.506   4.450  0.00  0.00     0.134 C 
ATOM     17  O2D NTO d 869      65.048  -1.137  10.074  0.00  0.00    -0.348 OA
ATOM     18  O1L NTO d 869      68.030  -3.612  14.053  0.00  0.00    -0.348 OA
ATOM     19  O19 NTO d 869      68.524  -1.369  20.350  0.00  0.00    -0.572 OA
ATOM     20  C46 NTO d 869      60.815   0.425   5.532  0.00  0.00     0.094 C 
ATOM     21  O4A NTO d 869      59.607   1.531   3.741  0.00  0.00    -0.244 OA
ATOM     22  N3G NTO d 869      60.214  -0.266   9.861  0.00  0.00    -0.210 NA
ATOM     23  O36 NTO d 869      66.349  -5.271   9.137  0.00  0.00    -0.572 OA
ATOM     24  O57 NTO d 869      56.762   5.291   5.584  0.00  0.00    -0.572 OA
ATOM     25  C40 NTO d 869      62.176   0.365   6.222  0.00  0.00     0.103 C 
ATOM     26  O5I NTO d 869      65.952   7.765   6.067  0.00  0.00    -0.296 OA
ATOM     27  C20 NTO d 869      67.385  -2.689  13.164  0.00  0.00     0.103 C 
ATOM     28  C53 NTO d 869      59.183   5.576   4.457  0.00  0.00     0.067 C 
ATOM     29  O3M NTO d 869      61.947   0.232   7.630  0.00  0.00    -0.348 OA
ATOM     30  C43 NTO d 869      64.125   1.701   6.925  0.00  0.00     0.206 C 
ATOM     31  S17 NTO d 869      68.492  -0.600  19.062  0.00  0.00     0.251 S 
ATOM     32  O45 NTO d 869      63.868   1.588   8.146  0.00  0.00    -0.646 OA
ATOM     33  O47 NTO d 869      60.533  -0.841   4.927  0.00  0.00    -0.390 OA
ATOM     34  O5K NTO d 869      65.982   9.624   4.467  0.00  0.00    -0.296 OA
ATOM     35  C2C NTO d 869      65.765  -2.120  10.838  0.00  0.00     0.160 C 
ATOM     36  O38 NTO d 869      64.701  -6.330   7.675  0.00  0.00    -0.572 OA
ATOM     37  O1J NTO d 869      71.530  -6.306  11.235  0.00  0.00    -0.296 OA
ATOM     38  C12 NTO d 869      69.527  -4.842  16.709  0.00  0.00     0.089 C 
ATOM     39  S4B NTO d 869      59.784   1.055   2.404  0.00  0.00     0.252 S 
ATOM     40  O4D NTO d 869      59.919  -0.439   2.414  0.00  0.00    -0.572 OA
ATOM     41  C1E NTO d 869      70.216  -4.484  14.329  0.00  0.00     0.081 C 
ATOM     42  C13 NTO d 869      68.811  -3.492  16.636  0.00  0.00     0.090 C 
ATOM     43  C29 NTO d 869      67.246  -1.733  10.872  0.00  0.00     0.110 C 
ATOM     44  O42 NTO d 869      62.124   2.791   6.105  0.00  0.00    -0.340 OA
ATOM     45  C31 NTO d 869      63.792  -1.670   8.096  0.00  0.00     0.091 C 
ATOM     46  C3F NTO d 869      61.318  -1.157   9.455  0.00  0.00     0.083 C 
ATOM     47  S5H NTO d 869      65.118   8.601   5.143  0.00  0.00     0.156 S 
ATOM     48  S1G NTO d 869      71.605  -5.694  12.602  0.00  0.00     0.156 S 
ATOM     49  O5J NTO d 869      64.056   9.310   5.931  0.00  0.00    -0.296 OA
ATOM     50  C5F NTO d 869      63.159   7.099   4.534  0.00  0.00     0.081 C 
ATOM     51  S3H NTO d 869      58.793  -0.659   9.158  0.00  0.00     0.156 S 
ATOM     52  O25 NTO d 869      65.502  -4.315  15.007  0.00  0.00    -0.646 OA
ATOM     53  O1C NTO d 869      70.457  -6.644  15.389  0.00  0.00    -0.391 OA
ATOM     54  O3A NTO d 869      62.528  -0.780  11.528  0.00  0.00    -0.247 OA
ATOM     55  C5L NTO d 869      61.997   7.954   4.024  0.00  0.00     0.149 C 
ATOM     56  C30 NTO d 869      63.775  -1.620   9.618  0.00  0.00     0.096 C 
ATOM     57  C23 NTO d 869      65.316  -3.249  14.375  0.00  0.00     0.206 C 
ATOM     58  O3E NTO d 869      63.805   1.245  11.740  0.00  0.00    -0.572 OA
ATOM     59  O14 NTO d 869      69.437  -2.634  15.668  0.00  0.00    -0.349 OA
ATOM     60  O2A NTO d 869      67.785  -1.788   9.550  0.00  0.00    -0.388 OA
ATOM     61  C3L NTO d 869      61.502  -1.096   7.940  0.00  0.00     0.150 C 
ATOM     62  C4F NTO d 869      61.117   2.873   5.084  0.00  0.00     0.161 C 
ATOM     63  C15 NTO d 869      68.917  -2.807  18.001  0.00  0.00     0.067 C 
ATOM     64  S55 NTO d 869      57.884   5.408   6.572  0.00  0.00     0.251 S 
ATOM     65  O58 NTO d 869      57.583   6.507   7.546  0.00  0.00    -0.572 OA
ATOM     66  C51 NTO d 869      60.552   6.043   3.956  0.00  0.00     0.091 C 
ATOM     67  O56 NTO d 869      58.035   4.110   7.307  0.00  0.00    -0.572 OA
ATOM     68  O3J NTO d 869      57.710  -0.686  10.195  0.00  0.00    -0.296 OA
ATOM     69  O44 NTO d 869      65.286   1.856   6.466  0.00  0.00    -0.646 OA
ATOM     70  O10 NTO d 869      68.783  -5.712  17.565  0.00  0.00    -0.390 OA
ATOM     71  C59 NTO d 869      62.993   5.644   4.092  0.00  0.00     0.083 C 
ATOM     72  O52 NTO d 869      60.727   7.398   4.402  0.00  0.00    -0.349 OA
ATOM     73  O27 NTO d 869      69.384  -2.227  11.876  0.00  0.00    -0.390 OA
ATOM     74  O1A NTO d 869      67.346   0.365  19.076  0.00  0.00    -0.572 OA
ATOM     75  O5A NTO d 869      63.999   4.837   4.712  0.00  0.00    -0.391 OA
ATOM     76  O37 NTO d 869      66.347  -4.766   6.744  0.00  0.00    -0.572 OA
ATOM     77  O24 NTO d 869      64.666  -2.272  14.818  0.00  0.00    -0.646 OA
ATOM     78  O1H NTO d 869      71.958  -6.742  13.615  0.00  0.00    -0.296 OA
ATOM     79  O22 NTO d 869      65.219  -2.195  12.166  0.00  0.00    -0.340 OA
ATOM     80  O3D NTO d 869      62.422   0.427  13.590  0.00  0.00    -0.572 OA
ATOM     81  C33 NTO d 869      64.848  -2.684   7.645  0.00  0.00     0.067 C 
ATOM     82  S35 NTO d 869      65.482  -5.076   7.929  0.00  0.00     0.251 S 
ATOM     83  S3B NTO d 869      62.533   0.533  12.098  0.00  0.00     0.252 S 
ATOM     84  O4C NTO d 869      61.016   1.671   1.809  0.00  0.00    -0.572 OA
ATOM     85  C39 NTO d 869      62.634  -0.719  10.101  0.00  0.00     0.108 C 
ATOM     86  O16 NTO d 869      68.326  -1.506  17.965  0.00  0.00    -0.254 OA
ATOM     87  O5M NTO d 869      62.098   8.182   2.613  0.00  0.00    -0.364 OA
ATOM     88  O3C NTO d 869      61.366   1.317  11.577  0.00  0.00    -0.572 OA
ATOM     89  C1K NTO d 869      69.373  -3.208  14.353  0.00  0.00     0.150 C 
ATOM     90  O32 NTO d 869      62.512  -2.044   7.562  0.00  0.00    -0.349 OA
ATOM     91  O34 NTO d 869      64.571  -3.992   8.154  0.00  0.00    -0.254 OA
ATOM     92  H   NTO d 869      59.158   0.380   7.440  0.00  0.00     0.231 HD
ATOM     93  H   NTO d 869      72.412  -3.936  11.953  0.00  0.00     0.231 HD
ATOM     94  H   NTO d 869      63.331   1.624   4.937  0.00  0.00     0.104 H 
ATOM     95  H   NTO d 869      68.646  -5.767  14.995  0.00  0.00     0.089 H 
ATOM     96  H   NTO d 869      64.254   8.172   3.176  0.00  0.00     0.140 HD
ATOM     97  H   NTO d 869      69.928  -4.311  12.308  0.00  0.00     0.140 HD
ATOM     98  H   NTO d 869      59.584  -2.013   7.852  0.00  0.00     0.231 HD
ATOM     99  H   NTO d 869      61.552   9.616   1.248  0.00  0.00     0.066 H 
ATOM    100  H   NTO d 869      61.981  10.221   2.830  0.00  0.00     0.066 H 
ATOM    101  H   NTO d 869      60.452   9.409   2.590  0.00  0.00     0.066 H 
ATOM    102  H   NTO d 869      65.893  -4.076  12.497  0.00  0.00     0.104 H 
ATOM    103  H   NTO d 869      68.020  -3.672  11.376  0.00  0.00     0.091 H 
ATOM    104  H   NTO d 869      61.533   5.130   5.601  0.00  0.00     0.091 H 
ATOM    105  H   NTO d 869      61.635   1.281   3.761  0.00  0.00     0.097 H 
ATOM    106  H   NTO d 869      60.056   0.655   6.249  0.00  0.00     0.091 H 
ATOM    107  H   NTO d 869      60.454   0.690   9.600  0.00  0.00     0.140 HD
ATOM    108  H   NTO d 869      62.741  -0.465   5.853  0.00  0.00     0.092 H 
ATOM    109  H   NTO d 869      66.638   7.308   5.557  0.00  0.00     0.231 HD
ATOM    110  H   NTO d 869      67.467  -1.710  13.587  0.00  0.00     0.092 H 
ATOM    111  H   NTO d 869      58.419   6.165   3.995  0.00  0.00     0.080 H 
ATOM    112  H   NTO d 869      59.055   4.545   4.204  0.00  0.00     0.080 H 
ATOM    113  H   NTO d 869      61.223  -1.049   4.277  0.00  0.00     0.210 HD
ATOM    114  H   NTO d 869      66.674   9.175   3.954  0.00  0.00     0.231 HD
ATOM    115  H   NTO d 869      65.668  -3.086  10.388  0.00  0.00     0.133 H 
ATOM    116  H   NTO d 869      71.302  -5.622  10.586  0.00  0.00     0.231 HD
ATOM    117  H   NTO d 869      70.516  -4.688  17.088  0.00  0.00     0.091 H 
ATOM    118  H   NTO d 869      71.230  -4.271  14.596  0.00  0.00     0.076 H 
ATOM    119  H   NTO d 869      67.793  -3.662  16.356  0.00  0.00     0.090 H 
ATOM    120  H   NTO d 869      67.330  -0.738  11.257  0.00  0.00     0.094 H 
ATOM    121  H   NTO d 869      64.027  -0.693   7.729  0.00  0.00     0.090 H 
ATOM    122  H   NTO d 869      61.069  -2.149   9.770  0.00  0.00     0.076 H 
ATOM    123  H   NTO d 869      63.491   8.657   6.372  0.00  0.00     0.231 HD
ATOM    124  H   NTO d 869      63.163   7.130   5.603  0.00  0.00     0.076 H 
ATOM    125  H   NTO d 869      71.345  -6.388  15.686  0.00  0.00     0.210 HD
ATOM    126  H   NTO d 869      62.064   8.911   4.497  0.00  0.00     0.131 H 
ATOM    127  H   NTO d 869      63.608  -2.597  10.020  0.00  0.00     0.091 H 
ATOM    128  H   NTO d 869      67.707  -2.692   9.206  0.00  0.00     0.210 HD
ATOM    129  H   NTO d 869      60.595  -1.325   7.419  0.00  0.00     0.131 H 
ATOM    130  H   NTO d 869      60.236   3.228   5.576  0.00  0.00     0.133 H 
ATOM    131  H   NTO d 869      69.949  -2.716  18.269  0.00  0.00     0.080 H 
ATOM    132  H   NTO d 869      68.396  -3.400  18.723  0.00  0.00     0.080 H 
ATOM    133  H   NTO d 869      60.622   6.004   2.889  0.00  0.00     0.090 H 
ATOM    134  H   NTO d 869      56.867  -0.919   9.776  0.00  0.00     0.231 HD
ATOM    135  H   NTO d 869      67.892  -5.838  17.203  0.00  0.00     0.210 HD
ATOM    136  H   NTO d 869      63.082   5.589   3.027  0.00  0.00     0.089 H 
ATOM    137  H   NTO d 869      69.399  -1.328  12.241  0.00  0.00     0.210 HD
ATOM    138  H   NTO d 869      63.909   4.893   5.676  0.00  0.00     0.210 HD
ATOM    139  H   NTO d 869      72.004  -6.338  14.496  0.00  0.00     0.231 HD
ATOM    140  H   NTO d 869      65.807  -2.369   7.999  0.00  0.00     0.080 H 
ATOM    141  H   NTO d 869      64.833  -2.730   6.575  0.00  0.00     0.080 H 
ATOM    142  H   NTO d 869      62.842   0.291   9.815  0.00  0.00     0.092 H 
ATOM    143  H   NTO d 869      69.720  -2.478  13.651  0.00  0.00     0.131 H 
ENDROOT
TORSDOF 46
ENDMDL
MODEL 79
REMARK VINA RESULT:      -4.9      3.673     14.095
REMARK  0 active torsions:
REMARK  status: ('A' for Active; 'I' for Inactive)
REMARK       I    between atoms: O3I_1  and  S3H_51 
REMARK       I    between atoms: O1I_2  and  S1G_48 
REMARK       I    between atoms: O54_3  and  C53_28 
REMARK       I    between atoms: O54_3  and  S55_64 
REMARK       I    between atoms: C41_5  and  C43_30 
REMARK       I    between atoms: C1B_6  and  O1C_53 
REMARK       I    between atoms: O4G_7  and  C4F_62 
REMARK       I    between atoms: O4G_7  and  C50_15 
REMARK       I    between atoms: N5G_8  and  C5F_50 
REMARK       I    between atoms: N5G_8  and  S5H_47 
REMARK       I    between atoms: N1F_9  and  C1E_41 
REMARK       I    between atoms: N1F_9  and  S1G_48 
REMARK       I    between atoms: O3K_10  and  S3H_51 
REMARK       I    between atoms: C5N_11  and  O5M_87 
REMARK       I    between atoms: C21_12  and  C23_57 
REMARK       I    between atoms: C26_13  and  O27_73 
REMARK       I    between atoms: C49_16  and  O4A_21 
REMARK       I    between atoms: O2D_17  and  C2C_35 
REMARK       I    between atoms: O2D_17  and  C30_56 
REMARK       I    between atoms: O1L_18  and  C1K_89 
REMARK       I    between atoms: O1L_18  and  C20_27 
REMARK       I    between atoms: C46_20  and  O47_33 
REMARK       I    between atoms: O4A_21  and  S4B_39 
REMARK       I    between atoms: N3G_22  and  C3F_46 
REMARK       I    between atoms: N3G_22  and  S3H_51 
REMARK       I    between atoms: C40_25  and  O3M_29 
REMARK       I    between atoms: O5I_26  and  S5H_47 
REMARK       I    between atoms: C53_28  and  C51_66 
REMARK       I    between atoms: O3M_29  and  C3L_61 
REMARK       I    between atoms: S17_31  and  O16_86 
REMARK       I    between atoms: O5K_34  and  S5H_47 
REMARK       I    between atoms: O1J_37  and  S1G_48 
REMARK       I    between atoms: C12_38  and  O10_70 
REMARK       I    between atoms: C13_42  and  C15_63 
REMARK       I    between atoms: C29_43  and  O2A_60 
REMARK       I    between atoms: C31_45  and  C33_81 
REMARK       I    between atoms: S5H_47  and  O5J_49 
REMARK       I    between atoms: S1G_48  and  O1H_78 
REMARK       I    between atoms: S3H_51  and  O3J_68 
REMARK       I    between atoms: O3A_54  and  C39_85 
REMARK       I    between atoms: O3A_54  and  S3B_83 
REMARK       I    between atoms: C5L_55  and  O5M_87 
REMARK       I    between atoms: C15_63  and  O16_86 
REMARK       I    between atoms: C59_71  and  O5A_75 
REMARK       I    between atoms: C33_81  and  O34_91 
REMARK       I    between atoms: S35_82  and  O34_91 
ROOT
ATOM      1  O3I NTO d 869      65.037   3.230   4.384  0.00  0.00    -0.296 OA
ATOM      2  O1I NTO d 869      68.115   2.674  19.761  0.00  0.00    -0.296 OA
ATOM      3  O54 NTO d 869      59.232   3.377   3.752  0.00  0.00    -0.254 OA
ATOM      4  O18 NTO d 869      66.501  -5.231  17.448  0.00  0.00    -0.572 OA
ATOM      5  C41 NTO d 869      62.175   5.306   8.144  0.00  0.00     0.152 C 
ATOM      6  C1B NTO d 869      70.481   0.131  17.485  0.00  0.00     0.083 C 
ATOM      7  O4G NTO d 869      59.869   6.072   6.000  0.00  0.00    -0.348 OA
ATOM      8  N5G NTO d 869      55.717   5.025   8.276  0.00  0.00    -0.210 NA
ATOM      9  N1F NTO d 869      69.168   2.195  17.485  0.00  0.00    -0.210 NA
ATOM     10  O3K NTO d 869      67.267   3.783   5.243  0.00  0.00    -0.296 OA
ATOM     11  C5N NTO d 869      54.105   5.581   4.812  0.00  0.00     0.007 C 
ATOM     12  C21 NTO d 869      68.310   0.949  13.105  0.00  0.00     0.152 C 
ATOM     13  C26 NTO d 869      67.044   2.156  14.833  0.00  0.00     0.092 C 
ATOM     14  O4E NTO d 869      61.787   8.844   3.099  0.00  0.00    -0.572 OA
ATOM     15  C50 NTO d 869      58.779   5.139   6.037  0.00  0.00     0.095 C 
ATOM     16  C49 NTO d 869      62.235   6.468   5.826  0.00  0.00     0.134 C 
ATOM     17  O2D NTO d 869      65.681   2.787  11.378  0.00  0.00    -0.348 OA
ATOM     18  O1L NTO d 869      68.672   0.409  15.410  0.00  0.00    -0.348 OA
ATOM     19  O19 NTO d 869      68.660  -6.159  16.747  0.00  0.00    -0.572 OA
ATOM     20  C46 NTO d 869      63.601   5.870   6.166  0.00  0.00     0.094 C 
ATOM     21  O4A NTO d 869      62.234   6.959   4.483  0.00  0.00    -0.244 OA
ATOM     22  N3G NTO d 869      65.838   2.067   6.518  0.00  0.00    -0.210 NA
ATOM     23  O36 NTO d 869      68.872   5.344  13.096  0.00  0.00    -0.572 OA
ATOM     24  O57 NTO d 869      60.023   3.519   1.500  0.00  0.00    -0.572 OA
ATOM     25  C40 NTO d 869      63.602   5.424   7.627  0.00  0.00     0.103 C 
ATOM     26  O5I NTO d 869      55.971   3.283  10.121  0.00  0.00    -0.296 OA
ATOM     27  C20 NTO d 869      67.661   0.806  14.473  0.00  0.00     0.103 C 
ATOM     28  C53 NTO d 869      58.863   4.747   3.588  0.00  0.00     0.067 C 
ATOM     29  O3M NTO d 869      64.252   4.149   7.694  0.00  0.00    -0.348 OA
ATOM     30  C43 NTO d 869      62.205   4.519   9.445  0.00  0.00     0.206 C 
ATOM     31  S17 NTO d 869      67.523  -5.263  16.352  0.00  0.00     0.251 S 
ATOM     32  O45 NTO d 869      62.778   3.406   9.447  0.00  0.00    -0.646 OA
ATOM     33  O47 NTO d 869      64.614   6.861   5.973  0.00  0.00    -0.390 OA
ATOM     34  O5K NTO d 869      53.716   4.069   9.560  0.00  0.00    -0.296 OA
ATOM     35  C2C NTO d 869      66.690   2.537  12.370  0.00  0.00     0.160 C 
ATOM     36  O38 NTO d 869      69.693   6.881  11.381  0.00  0.00    -0.572 OA
ATOM     37  O1J NTO d 869      69.435   4.432  18.678  0.00  0.00    -0.296 OA
ATOM     38  C12 NTO d 869      70.386  -1.396  17.558  0.00  0.00     0.089 C 
ATOM     39  S4B NTO d 869      62.176   8.389   4.473  0.00  0.00     0.252 S 
ATOM     40  O4D NTO d 869      63.519   8.950   4.835  0.00  0.00    -0.572 OA
ATOM     41  C1E NTO d 869      69.100   0.746  17.715  0.00  0.00     0.081 C 
ATOM     42  C13 NTO d 869      69.276  -1.917  16.642  0.00  0.00     0.090 C 
ATOM     43  C29 NTO d 869      66.032   2.544  13.753  0.00  0.00     0.110 C 
ATOM     44  O42 NTO d 869      61.351   4.624   7.181  0.00  0.00    -0.340 OA
ATOM     45  C31 NTO d 869      65.762   4.652   9.865  0.00  0.00     0.091 C 
ATOM     46  C3F NTO d 869      66.280   2.907   7.646  0.00  0.00     0.083 C 
ATOM     47  S5H NTO d 869      55.067   3.720   9.008  0.00  0.00     0.156 S 
ATOM     48  S1G NTO d 869      69.324   2.955  18.917  0.00  0.00     0.156 S 
ATOM     49  O5J NTO d 869      54.912   2.602   8.020  0.00  0.00    -0.296 OA
ATOM     50  C5F NTO d 869      56.651   4.599   7.223  0.00  0.00     0.081 C 
ATOM     51  S3H NTO d 869      66.259   2.686   5.066  0.00  0.00     0.156 S 
ATOM     52  O25 NTO d 869      70.178  -0.519  13.249  0.00  0.00    -0.646 OA
ATOM     53  O1C NTO d 869      71.389   0.602  18.483  0.00  0.00    -0.391 OA
ATOM     54  O3A NTO d 869      66.385   1.008   9.158  0.00  0.00    -0.247 OA
ATOM     55  C5L NTO d 869      55.940   4.608   5.868  0.00  0.00     0.149 C 
ATOM     56  C30 NTO d 869      66.238   3.230  10.131  0.00  0.00     0.096 C 
ATOM     57  C23 NTO d 869      69.025  -0.355  12.784  0.00  0.00     0.206 C 
ATOM     58  O3E NTO d 869      64.332   0.217  10.125  0.00  0.00    -0.572 OA
ATOM     59  O14 NTO d 869      68.028  -1.268  16.932  0.00  0.00    -0.349 OA
ATOM     60  O2A NTO d 869      65.518   3.847  14.032  0.00  0.00    -0.388 OA
ATOM     61  C3L NTO d 869      65.668   4.301   7.526  0.00  0.00     0.150 C 
ATOM     62  C4F NTO d 869      61.142   5.410   5.998  0.00  0.00     0.161 C 
ATOM     63  C15 NTO d 869      69.092  -3.415  16.900  0.00  0.00     0.067 C 
ATOM     64  S55 NTO d 869      60.013   2.703   2.758  0.00  0.00     0.251 S 
ATOM     65  O58 NTO d 869      59.404   1.362   2.484  0.00  0.00    -0.572 OA
ATOM     66  C51 NTO d 869      57.974   5.202   4.747  0.00  0.00     0.091 C 
ATOM     67  O56 NTO d 869      61.421   2.527   3.244  0.00  0.00    -0.572 OA
ATOM     68  O3J NTO d 869      66.867   1.609   4.217  0.00  0.00    -0.296 OA
ATOM     69  O44 NTO d 869      61.659   5.027  10.459  0.00  0.00    -0.646 OA
ATOM     70  O10 NTO d 869      71.633  -1.952  17.133  0.00  0.00    -0.390 OA
ATOM     71  C59 NTO d 869      57.868   5.525   7.201  0.00  0.00     0.083 C 
ATOM     72  O52 NTO d 869      56.848   4.311   4.795  0.00  0.00    -0.349 OA
ATOM     73  O27 NTO d 869      66.374   2.065  16.094  0.00  0.00    -0.390 OA
ATOM     74  O1A NTO d 869      66.888  -5.774  15.096  0.00  0.00    -0.572 OA
ATOM     75  O5A NTO d 869      58.605   5.377   8.419  0.00  0.00    -0.391 OA
ATOM     76  O37 NTO d 869      67.593   7.359  12.558  0.00  0.00    -0.572 OA
ATOM     77  O24 NTO d 869      68.420  -1.205  12.089  0.00  0.00    -0.646 OA
ATOM     78  O1H NTO d 869      70.554   2.456  19.615  0.00  0.00    -0.296 OA
ATOM     79  O22 NTO d 869      67.327   1.276  12.107  0.00  0.00    -0.340 OA
ATOM     80  O3D NTO d 869      66.005  -1.351   9.264  0.00  0.00    -0.572 OA
ATOM     81  C33 NTO d 869      66.312   5.573  10.957  0.00  0.00     0.067 C 
ATOM     82  S35 NTO d 869      68.465   6.276  11.994  0.00  0.00     0.251 S 
ATOM     83  S3B NTO d 869      65.376  -0.004   9.070  0.00  0.00     0.252 S 
ATOM     84  O4C NTO d 869      61.147   8.858   5.459  0.00  0.00    -0.572 OA
ATOM     85  C39 NTO d 869      65.820   2.312   8.978  0.00  0.00     0.108 C 
ATOM     86  O16 NTO d 869      68.014  -3.937  16.121  0.00  0.00    -0.254 OA
ATOM     87  O5M NTO d 869      55.229   5.835   5.661  0.00  0.00    -0.364 OA
ATOM     88  O3C NTO d 869      64.728   0.042   7.719  0.00  0.00    -0.572 OA
ATOM     89  C1K NTO d 869      68.118   0.148  16.707  0.00  0.00     0.150 C 
ATOM     90  O32 NTO d 869      66.194   5.125   8.579  0.00  0.00    -0.349 OA
ATOM     91  O34 NTO d 869      67.743   5.556  10.987  0.00  0.00    -0.254 OA
ATOM     92  H   NTO d 869      64.644   3.927   4.931  0.00  0.00     0.231 HD
ATOM     93  H   NTO d 869      67.322   2.999  19.306  0.00  0.00     0.231 HD
ATOM     94  H   NTO d 869      61.766   6.280   8.307  0.00  0.00     0.104 H 
ATOM     95  H   NTO d 869      70.836   0.418  16.517  0.00  0.00     0.089 H 
ATOM     96  H   NTO d 869      54.972   5.584   7.860  0.00  0.00     0.140 HD
ATOM     97  H   NTO d 869      68.314   2.507  17.024  0.00  0.00     0.140 HD
ATOM     98  H   NTO d 869      66.886   4.487   5.791  0.00  0.00     0.231 HD
ATOM     99  H   NTO d 869      53.567   6.492   4.651  0.00  0.00     0.066 H 
ATOM    100  H   NTO d 869      53.461   4.864   5.276  0.00  0.00     0.066 H 
ATOM    101  H   NTO d 869      54.447   5.198   3.873  0.00  0.00     0.066 H 
ATOM    102  H   NTO d 869      69.019   1.751  13.111  0.00  0.00     0.104 H 
ATOM    103  H   NTO d 869      67.816   2.894  14.898  0.00  0.00     0.091 H 
ATOM    104  H   NTO d 869      59.163   4.147   6.153  0.00  0.00     0.091 H 
ATOM    105  H   NTO d 869      62.039   7.282   6.492  0.00  0.00     0.097 H 
ATOM    106  H   NTO d 869      63.796   5.031   5.532  0.00  0.00     0.091 H 
ATOM    107  H   NTO d 869      64.821   1.982   6.553  0.00  0.00     0.140 HD
ATOM    108  H   NTO d 869      64.116   6.141   8.231  0.00  0.00     0.092 H 
ATOM    109  H   NTO d 869      56.070   4.006  10.760  0.00  0.00     0.231 HD
ATOM    110  H   NTO d 869      66.891   0.063  14.483  0.00  0.00     0.092 H 
ATOM    111  H   NTO d 869      58.328   4.860   2.668  0.00  0.00     0.080 H 
ATOM    112  H   NTO d 869      59.749   5.347   3.574  0.00  0.00     0.080 H 
ATOM    113  H   NTO d 869      64.436   7.622   6.548  0.00  0.00     0.210 HD
ATOM    114  H   NTO d 869      53.806   4.792  10.201  0.00  0.00     0.231 HD
ATOM    115  H   NTO d 869      67.441   3.297  12.339  0.00  0.00     0.133 H 
ATOM    116  H   NTO d 869      68.636   4.747  18.228  0.00  0.00     0.231 HD
ATOM    117  H   NTO d 869      70.164  -1.680  18.565  0.00  0.00     0.091 H 
ATOM    118  H   NTO d 869      68.781   0.546  18.717  0.00  0.00     0.076 H 
ATOM    119  H   NTO d 869      69.553  -1.722  15.627  0.00  0.00     0.090 H 
ATOM    120  H   NTO d 869      65.235   1.830  13.755  0.00  0.00     0.094 H 
ATOM    121  H   NTO d 869      64.692   4.656   9.872  0.00  0.00     0.090 H 
ATOM    122  H   NTO d 869      67.349   2.955   7.618  0.00  0.00     0.076 H 
ATOM    123  H   NTO d 869      55.781   2.369   7.657  0.00  0.00     0.231 HD
ATOM    124  H   NTO d 869      56.986   3.603   7.426  0.00  0.00     0.076 H 
ATOM    125  H   NTO d 869      71.067   0.342  19.361  0.00  0.00     0.210 HD
ATOM    126  H   NTO d 869      55.211   3.826   5.876  0.00  0.00     0.131 H 
ATOM    127  H   NTO d 869      67.306   3.202  10.196  0.00  0.00     0.091 H 
ATOM    128  H   NTO d 869      66.245   4.489  14.029  0.00  0.00     0.210 HD
ATOM    129  H   NTO d 869      65.893   4.754   6.582  0.00  0.00     0.131 H 
ATOM    130  H   NTO d 869      61.172   4.717   5.183  0.00  0.00     0.133 H 
ATOM    131  H   NTO d 869      68.881  -3.569  17.938  0.00  0.00     0.080 H 
ATOM    132  H   NTO d 869      69.992  -3.923  16.624  0.00  0.00     0.080 H 
ATOM    133  H   NTO d 869      57.631   6.208   4.618  0.00  0.00     0.090 H 
ATOM    134  H   NTO d 869      67.117   1.977   3.356  0.00  0.00     0.231 HD
ATOM    135  H   NTO d 869      71.813  -1.681  16.220  0.00  0.00     0.210 HD
ATOM    136  H   NTO d 869      57.536   6.536   7.093  0.00  0.00     0.089 H 
ATOM    137  H   NTO d 869      65.672   1.397  16.040  0.00  0.00     0.210 HD
ATOM    138  H   NTO d 869      58.901   4.458   8.508  0.00  0.00     0.210 HD
ATOM    139  H   NTO d 869      70.475   1.500  19.766  0.00  0.00     0.231 HD
ATOM    140  H   NTO d 869      65.941   5.247  11.906  0.00  0.00     0.080 H 
ATOM    141  H   NTO d 869      65.993   6.573  10.746  0.00  0.00     0.080 H 
ATOM    142  H   NTO d 869      64.753   2.225   8.970  0.00  0.00     0.092 H 
ATOM    143  H   NTO d 869      67.138   0.566  16.797  0.00  0.00     0.131 H 
ENDROOT
TORSDOF 46
ENDMDL
MODEL 80
REMARK VINA RESULT:      -4.8      6.205      8.334
REMARK  0 active torsions:
REMARK  status: ('A' for Active; 'I' for Inactive)
REMARK       I    between atoms: O3I_1  and  S3H_51 
REMARK       I    between atoms: O1I_2  and  S1G_48 
REMARK       I    between atoms: O54_3  and  C53_28 
REMARK       I    between atoms: O54_3  and  S55_64 
REMARK       I    between atoms: C41_5  and  C43_30 
REMARK       I    between atoms: C1B_6  and  O1C_53 
REMARK       I    between atoms: O4G_7  and  C4F_62 
REMARK       I    between atoms: O4G_7  and  C50_15 
REMARK       I    between atoms: N5G_8  and  C5F_50 
REMARK       I    between atoms: N5G_8  and  S5H_47 
REMARK       I    between atoms: N1F_9  and  C1E_41 
REMARK       I    between atoms: N1F_9  and  S1G_48 
REMARK       I    between atoms: O3K_10  and  S3H_51 
REMARK       I    between atoms: C5N_11  and  O5M_87 
REMARK       I    between atoms: C21_12  and  C23_57 
REMARK       I    between atoms: C26_13  and  O27_73 
REMARK       I    between atoms: C49_16  and  O4A_21 
REMARK       I    between atoms: O2D_17  and  C2C_35 
REMARK       I    between atoms: O2D_17  and  C30_56 
REMARK       I    between atoms: O1L_18  and  C1K_89 
REMARK       I    between atoms: O1L_18  and  C20_27 
REMARK       I    between atoms: C46_20  and  O47_33 
REMARK       I    between atoms: O4A_21  and  S4B_39 
REMARK       I    between atoms: N3G_22  and  C3F_46 
REMARK       I    between atoms: N3G_22  and  S3H_51 
REMARK       I    between atoms: C40_25  and  O3M_29 
REMARK       I    between atoms: O5I_26  and  S5H_47 
REMARK       I    between atoms: C53_28  and  C51_66 
REMARK       I    between atoms: O3M_29  and  C3L_61 
REMARK       I    between atoms: S17_31  and  O16_86 
REMARK       I    between atoms: O5K_34  and  S5H_47 
REMARK       I    between atoms: O1J_37  and  S1G_48 
REMARK       I    between atoms: C12_38  and  O10_70 
REMARK       I    between atoms: C13_42  and  C15_63 
REMARK       I    between atoms: C29_43  and  O2A_60 
REMARK       I    between atoms: C31_45  and  C33_81 
REMARK       I    between atoms: S5H_47  and  O5J_49 
REMARK       I    between atoms: S1G_48  and  O1H_78 
REMARK       I    between atoms: S3H_51  and  O3J_68 
REMARK       I    between atoms: O3A_54  and  C39_85 
REMARK       I    between atoms: O3A_54  and  S3B_83 
REMARK       I    between atoms: C5L_55  and  O5M_87 
REMARK       I    between atoms: C15_63  and  O16_86 
REMARK       I    between atoms: C59_71  and  O5A_75 
REMARK       I    between atoms: C33_81  and  O34_91 
REMARK       I    between atoms: S35_82  and  O34_91 
ROOT
ATOM      1  O3I NTO d 869      70.358   1.630  17.345  0.00  0.00    -0.296 OA
ATOM      2  O1I NTO d 869      65.721   1.087   2.364  0.00  0.00    -0.296 OA
ATOM      3  O54 NTO d 869      67.137  -2.224  20.327  0.00  0.00    -0.254 OA
ATOM      4  O18 NTO d 869      60.287   6.148   6.275  0.00  0.00    -0.572 OA
ATOM      5  C41 NTO d 869      68.500  -2.504  14.875  0.00  0.00     0.152 C 
ATOM      6  C1B NTO d 869      66.361   4.937   3.781  0.00  0.00     0.083 C 
ATOM      7  O4G NTO d 869      68.459  -4.176  17.652  0.00  0.00    -0.348 OA
ATOM      8  N5G NTO d 869      64.281  -6.634  17.512  0.00  0.00    -0.210 NA
ATOM      9  N1F NTO d 869      66.954   2.577   4.029  0.00  0.00    -0.210 NA
ATOM     10  O3K NTO d 869      71.762   2.551  15.557  0.00  0.00    -0.296 OA
ATOM     11  C5N NTO d 869      65.052  -7.434  21.209  0.00  0.00     0.007 C 
ATOM     12  C21 NTO d 869      67.334   3.754   8.495  0.00  0.00     0.152 C 
ATOM     13  C26 NTO d 869      66.682   1.705   7.302  0.00  0.00     0.092 C 
ATOM     14  O4E NTO d 869      72.682  -4.327  19.036  0.00  0.00    -0.572 OA
ATOM     15  C50 NTO d 869      67.139  -4.239  18.213  0.00  0.00     0.095 C 
ATOM     16  C49 NTO d 869      70.254  -2.849  16.755  0.00  0.00     0.134 C 
ATOM     17  O2D NTO d 869      67.654   1.015  10.876  0.00  0.00    -0.348 OA
ATOM     18  O1L NTO d 869      66.267   3.935   6.359  0.00  0.00    -0.348 OA
ATOM     19  O19 NTO d 869      61.266   8.392   6.132  0.00  0.00    -0.572 OA
ATOM     20  C46 NTO d 869      70.552  -1.575  15.964  0.00  0.00     0.094 C 
ATOM     21  O4A NTO d 869      71.124  -2.942  17.886  0.00  0.00    -0.244 OA
ATOM     22  N3G NTO d 869      69.207   2.584  15.269  0.00  0.00    -0.210 NA
ATOM     23  O36 NTO d 869      70.666   0.969   7.622  0.00  0.00    -0.572 OA
ATOM     24  O57 NTO d 869      68.621  -1.360  21.991  0.00  0.00    -0.572 OA
ATOM     25  C40 NTO d 869      69.665  -1.537  14.721  0.00  0.00     0.103 C 
ATOM     26  O5I NTO d 869      62.516  -5.570  16.008  0.00  0.00    -0.296 OA
ATOM     27  C20 NTO d 869      66.289   3.158   7.565  0.00  0.00     0.103 C 
ATOM     28  C53 NTO d 869      67.905  -3.423  20.429  0.00  0.00     0.067 C 
ATOM     29  O3M NTO d 869      69.174  -0.200  14.575  0.00  0.00    -0.348 OA
ATOM     30  C43 NTO d 869      67.463  -2.172  13.813  0.00  0.00     0.206 C 
ATOM     31  S17 NTO d 869      61.333   7.067   6.831  0.00  0.00     0.251 S 
ATOM     32  O45 NTO d 869      67.060  -0.989  13.734  0.00  0.00    -0.646 OA
ATOM     33  O47 NTO d 869      71.926  -1.575  15.566  0.00  0.00    -0.390 OA
ATOM     34  O5K NTO d 869      61.886  -7.530  17.343  0.00  0.00    -0.296 OA
ATOM     35  C2C NTO d 869      67.708   1.675   9.600  0.00  0.00     0.160 C 
ATOM     36  O38 NTO d 869      72.901   0.744   8.586  0.00  0.00    -0.572 OA
ATOM     37  O1J NTO d 869      68.160   0.913   2.520  0.00  0.00    -0.296 OA
ATOM     38  C12 NTO d 869      65.238   5.958   3.980  0.00  0.00     0.089 C 
ATOM     39  S4B NTO d 869      72.062  -4.007  17.709  0.00  0.00     0.252 S 
ATOM     40  O4D NTO d 869      73.125  -3.586  16.738  0.00  0.00    -0.572 OA
ATOM     41  C1E NTO d 869      65.837   3.529   4.065  0.00  0.00     0.081 C 
ATOM     42  C13 NTO d 869      64.567   5.771   5.343  0.00  0.00     0.090 C 
ATOM     43  C29 NTO d 869      66.754   0.962   8.638  0.00  0.00     0.110 C 
ATOM     44  O42 NTO d 869      67.916  -2.376  16.183  0.00  0.00    -0.340 OA
ATOM     45  C31 NTO d 869      69.575   0.022  11.923  0.00  0.00     0.091 C 
ATOM     46  C3F NTO d 869      69.598   2.055  13.949  0.00  0.00     0.083 C 
ATOM     47  S5H NTO d 869      62.702  -6.271  17.321  0.00  0.00     0.156 S 
ATOM     48  S1G NTO d 869      66.993   1.855   2.569  0.00  0.00     0.156 S 
ATOM     49  O5J NTO d 869      62.243  -5.377  18.435  0.00  0.00    -0.296 OA
ATOM     50  C5F NTO d 869      64.988  -5.500  18.125  0.00  0.00     0.081 C 
ATOM     51  S3H NTO d 869      70.468   2.702  16.301  0.00  0.00     0.156 S 
ATOM     52  O25 NTO d 869      67.429   6.027   7.798  0.00  0.00    -0.646 OA
ATOM     53  O1C NTO d 869      66.840   5.009   2.437  0.00  0.00    -0.391 OA
ATOM     54  O3A NTO d 869      67.768   3.197  12.830  0.00  0.00    -0.247 OA
ATOM     55  C5L NTO d 869      65.099  -5.716  19.635  0.00  0.00     0.149 C 
ATOM     56  C30 NTO d 869      68.797   1.311  11.694  0.00  0.00     0.096 C 
ATOM     57  C23 NTO d 869      67.017   5.231   8.674  0.00  0.00     0.206 C 
ATOM     58  O3E NTO d 869      65.581   2.209  12.942  0.00  0.00    -0.572 OA
ATOM     59  O14 NTO d 869      64.123   4.416   5.513  0.00  0.00    -0.349 OA
ATOM     60  O2A NTO d 869      67.211  -0.372   8.413  0.00  0.00    -0.388 OA
ATOM     61  C3L NTO d 869      70.216   0.668  14.108  0.00  0.00     0.150 C 
ATOM     62  C4F NTO d 869      68.793  -2.850  17.216  0.00  0.00     0.161 C 
ATOM     63  C15 NTO d 869      63.333   6.676   5.410  0.00  0.00     0.067 C 
ATOM     64  S55 NTO d 869      67.558  -1.025  20.988  0.00  0.00     0.251 S 
ATOM     65  O58 NTO d 869      66.382  -0.412  21.687  0.00  0.00    -0.572 OA
ATOM     66  C51 NTO d 869      67.203  -4.569  19.697  0.00  0.00     0.091 C 
ATOM     67  O56 NTO d 869      68.111  -0.054  19.988  0.00  0.00    -0.572 OA
ATOM     68  O3J NTO d 869      70.451   4.048  16.963  0.00  0.00    -0.296 OA
ATOM     69  O44 NTO d 869      67.066  -3.098  13.059  0.00  0.00    -0.646 OA
ATOM     70  O10 NTO d 869      65.797   7.272   3.919  0.00  0.00    -0.390 OA
ATOM     71  C59 NTO d 869      66.374  -5.350  17.497  0.00  0.00     0.083 C 
ATOM     72  O52 NTO d 869      65.885  -4.688  20.259  0.00  0.00    -0.349 OA
ATOM     73  O27 NTO d 869      65.703   1.078   6.469  0.00  0.00    -0.390 OA
ATOM     74  O1A NTO d 869      61.097   7.255   8.299  0.00  0.00    -0.572 OA
ATOM     75  O5A NTO d 869      66.240  -4.989  16.118  0.00  0.00    -0.391 OA
ATOM     76  O37 NTO d 869      71.462  -1.229   8.344  0.00  0.00    -0.572 OA
ATOM     77  O24 NTO d 869      66.346   5.575   9.676  0.00  0.00    -0.646 OA
ATOM     78  O1H NTO d 869      67.132   2.899   1.502  0.00  0.00    -0.296 OA
ATOM     79  O22 NTO d 869      67.350   3.058   9.754  0.00  0.00    -0.340 OA
ATOM     80  O3D NTO d 869      65.890   4.620  13.241  0.00  0.00    -0.572 OA
ATOM     81  C33 NTO d 869      70.102  -0.486  10.578  0.00  0.00     0.067 C 
ATOM     82  S35 NTO d 869      71.490   0.241   8.642  0.00  0.00     0.251 S 
ATOM     83  S3B NTO d 869      66.495   3.269  13.481  0.00  0.00     0.252 S 
ATOM     84  O4C NTO d 869      71.353  -5.222  17.189  0.00  0.00    -0.572 OA
ATOM     85  C39 NTO d 869      68.377   1.917  13.037  0.00  0.00     0.108 C 
ATOM     86  O16 NTO d 869      62.627   6.485   6.637  0.00  0.00    -0.254 OA
ATOM     87  O5M NTO d 869      65.576  -7.033  19.939  0.00  0.00    -0.364 OA
ATOM     88  O3C NTO d 869      66.668   3.067  14.957  0.00  0.00    -0.572 OA
ATOM     89  C1K NTO d 869      65.230   3.502   5.468  0.00  0.00     0.150 C 
ATOM     90  O32 NTO d 869      70.677   0.220  12.823  0.00  0.00    -0.349 OA
ATOM     91  O34 NTO d 869      70.959   0.474   9.953  0.00  0.00    -0.254 OA
ATOM     92  H   NTO d 869      70.369   0.759  16.917  0.00  0.00     0.231 HD
ATOM     93  H   NTO d 869      65.635   0.413   3.056  0.00  0.00     0.231 HD
ATOM     94  H   NTO d 869      68.844  -3.510  14.757  0.00  0.00     0.104 H 
ATOM     95  H   NTO d 869      67.162   5.156   4.457  0.00  0.00     0.089 H 
ATOM     96  H   NTO d 869      64.368  -7.452  18.115  0.00  0.00     0.140 HD
ATOM     97  H   NTO d 869      66.825   1.873   4.755  0.00  0.00     0.140 HD
ATOM     98  H   NTO d 869      71.786   1.683  15.124  0.00  0.00     0.231 HD
ATOM     99  H   NTO d 869      65.403  -8.417  21.445  0.00  0.00     0.066 H 
ATOM    100  H   NTO d 869      63.983  -7.438  21.169  0.00  0.00     0.066 H 
ATOM    101  H   NTO d 869      65.379  -6.748  21.963  0.00  0.00     0.066 H 
ATOM    102  H   NTO d 869      68.312   3.648   8.074  0.00  0.00     0.104 H 
ATOM    103  H   NTO d 869      67.632   1.676   6.811  0.00  0.00     0.091 H 
ATOM    104  H   NTO d 869      66.656  -3.292  18.094  0.00  0.00     0.091 H 
ATOM    105  H   NTO d 869      70.419  -3.695  16.122  0.00  0.00     0.097 H 
ATOM    106  H   NTO d 869      70.356  -0.717  16.573  0.00  0.00     0.091 H 
ATOM    107  H   NTO d 869      68.510   1.961  15.676  0.00  0.00     0.140 HD
ATOM    108  H   NTO d 869      70.226  -1.828  13.859  0.00  0.00     0.092 H 
ATOM    109  H   NTO d 869      62.812  -6.148  15.289  0.00  0.00     0.231 HD
ATOM    110  H   NTO d 869      65.307   3.177   7.988  0.00  0.00     0.092 H 
ATOM    111  H   NTO d 869      68.021  -3.682  21.460  0.00  0.00     0.080 H 
ATOM    112  H   NTO d 869      68.863  -3.261  19.981  0.00  0.00     0.080 H 
ATOM    113  H   NTO d 869      72.103  -2.352  15.014  0.00  0.00     0.210 HD
ATOM    114  H   NTO d 869      62.176  -8.115  16.625  0.00  0.00     0.231 HD
ATOM    115  H   NTO d 869      68.700   1.635   9.202  0.00  0.00     0.133 H 
ATOM    116  H   NTO d 869      68.062   0.241   3.213  0.00  0.00     0.231 HD
ATOM    117  H   NTO d 869      64.505   5.819   3.214  0.00  0.00     0.091 H 
ATOM    118  H   NTO d 869      65.103   3.265   3.331  0.00  0.00     0.076 H 
ATOM    119  H   NTO d 869      65.276   6.013   6.107  0.00  0.00     0.090 H 
ATOM    120  H   NTO d 869      65.779   0.944   9.076  0.00  0.00     0.094 H 
ATOM    121  H   NTO d 869      68.916  -0.695  12.366  0.00  0.00     0.090 H 
ATOM    122  H   NTO d 869      70.300   2.739  13.518  0.00  0.00     0.076 H 
ATOM    123  H   NTO d 869      62.764  -4.560  18.429  0.00  0.00     0.231 HD
ATOM    124  H   NTO d 869      64.437  -4.599  17.948  0.00  0.00     0.076 H 
ATOM    125  H   NTO d 869      66.115   4.810   1.824  0.00  0.00     0.210 HD
ATOM    126  H   NTO d 869      64.115  -5.641  20.049  0.00  0.00     0.131 H 
ATOM    127  H   NTO d 869      69.409   2.030  11.191  0.00  0.00     0.091 H 
ATOM    128  H   NTO d 869      68.095  -0.349   8.015  0.00  0.00     0.210 HD
ATOM    129  H   NTO d 869      71.040   0.675  14.792  0.00  0.00     0.131 H 
ATOM    130  H   NTO d 869      68.668  -2.173  18.035  0.00  0.00     0.133 H 
ATOM    131  H   NTO d 869      62.684   6.444   4.592  0.00  0.00     0.080 H 
ATOM    132  H   NTO d 869      63.653   7.696   5.353  0.00  0.00     0.080 H 
ATOM    133  H   NTO d 869      67.726  -5.496  19.809  0.00  0.00     0.090 H 
ATOM    134  H   NTO d 869      71.199   4.117  17.575  0.00  0.00     0.231 HD
ATOM    135  H   NTO d 869      66.458   7.375   4.621  0.00  0.00     0.210 HD
ATOM    136  H   NTO d 869      66.900  -6.278  17.585  0.00  0.00     0.089 H 
ATOM    137  H   NTO d 869      64.839   1.102   6.910  0.00  0.00     0.210 HD
ATOM    138  H   NTO d 869      65.763  -4.148  16.049  0.00  0.00     0.210 HD
ATOM    139  H   NTO d 869      66.375   3.504   1.540  0.00  0.00     0.231 HD
ATOM    140  H   NTO d 869      69.273  -0.684   9.932  0.00  0.00     0.080 H 
ATOM    141  H   NTO d 869      70.669  -1.377  10.755  0.00  0.00     0.080 H 
ATOM    142  H   NTO d 869      67.665   1.270  13.505  0.00  0.00     0.092 H 
ATOM    143  H   NTO d 869      64.874   2.529   5.738  0.00  0.00     0.131 H 
ENDROOT
TORSDOF 46
ENDMDL
MODEL 81
REMARK VINA RESULT:      -4.8      3.961      5.880
REMARK  0 active torsions:
REMARK  status: ('A' for Active; 'I' for Inactive)
REMARK       I    between atoms: O3I_1  and  S3H_51 
REMARK       I    between atoms: O1I_2  and  S1G_48 
REMARK       I    between atoms: O54_3  and  C53_28 
REMARK       I    between atoms: O54_3  and  S55_64 
REMARK       I    between atoms: C41_5  and  C43_30 
REMARK       I    between atoms: C1B_6  and  O1C_53 
REMARK       I    between atoms: O4G_7  and  C4F_62 
REMARK       I    between atoms: O4G_7  and  C50_15 
REMARK       I    between atoms: N5G_8  and  C5F_50 
REMARK       I    between atoms: N5G_8  and  S5H_47 
REMARK       I    between atoms: N1F_9  and  C1E_41 
REMARK       I    between atoms: N1F_9  and  S1G_48 
REMARK       I    between atoms: O3K_10  and  S3H_51 
REMARK       I    between atoms: C5N_11  and  O5M_87 
REMARK       I    between atoms: C21_12  and  C23_57 
REMARK       I    between atoms: C26_13  and  O27_73 
REMARK       I    between atoms: C49_16  and  O4A_21 
REMARK       I    between atoms: O2D_17  and  C2C_35 
REMARK       I    between atoms: O2D_17  and  C30_56 
REMARK       I    between atoms: O1L_18  and  C1K_89 
REMARK       I    between atoms: O1L_18  and  C20_27 
REMARK       I    between atoms: C46_20  and  O47_33 
REMARK       I    between atoms: O4A_21  and  S4B_39 
REMARK       I    between atoms: N3G_22  and  C3F_46 
REMARK       I    between atoms: N3G_22  and  S3H_51 
REMARK       I    between atoms: C40_25  and  O3M_29 
REMARK       I    between atoms: O5I_26  and  S5H_47 
REMARK       I    between atoms: C53_28  and  C51_66 
REMARK       I    between atoms: O3M_29  and  C3L_61 
REMARK       I    between atoms: S17_31  and  O16_86 
REMARK       I    between atoms: O5K_34  and  S5H_47 
REMARK       I    between atoms: O1J_37  and  S1G_48 
REMARK       I    between atoms: C12_38  and  O10_70 
REMARK       I    between atoms: C13_42  and  C15_63 
REMARK       I    between atoms: C29_43  and  O2A_60 
REMARK       I    between atoms: C31_45  and  C33_81 
REMARK       I    between atoms: S5H_47  and  O5J_49 
REMARK       I    between atoms: S1G_48  and  O1H_78 
REMARK       I    between atoms: S3H_51  and  O3J_68 
REMARK       I    between atoms: O3A_54  and  C39_85 
REMARK       I    between atoms: O3A_54  and  S3B_83 
REMARK       I    between atoms: C5L_55  and  O5M_87 
REMARK       I    between atoms: C15_63  and  O16_86 
REMARK       I    between atoms: C59_71  and  O5A_75 
REMARK       I    between atoms: C33_81  and  O34_91 
REMARK       I    between atoms: S35_82  and  O34_91 
ROOT
ATOM      1  O3I NTO d 869      64.083   4.131   9.655  0.00  0.00    -0.296 OA
ATOM      2  O1I NTO d 869      49.993   1.703   3.188  0.00  0.00    -0.296 OA
ATOM      3  O54 NTO d 869      65.477  -0.659  12.693  0.00  0.00    -0.254 OA
ATOM      4  O18 NTO d 869      48.513   4.240  11.050  0.00  0.00    -0.572 OA
ATOM      5  C41 NTO d 869      62.158  -0.417   8.155  0.00  0.00     0.152 C 
ATOM      6  C1B NTO d 869      50.469   5.503   4.792  0.00  0.00     0.083 C 
ATOM      7  O4G NTO d 869      64.697  -1.951   9.462  0.00  0.00    -0.348 OA
ATOM      8  N5G NTO d 869      62.773  -5.857  11.595  0.00  0.00    -0.210 NA
ATOM      9  N1F NTO d 869      51.613   3.570   3.826  0.00  0.00    -0.210 NA
ATOM     10  O3K NTO d 869      63.295   5.519   7.792  0.00  0.00    -0.296 OA
ATOM     11  C5N NTO d 869      66.272  -6.263  13.176  0.00  0.00     0.007 C 
ATOM     12  C21 NTO d 869      54.965   4.832   6.767  0.00  0.00     0.152 C 
ATOM     13  C26 NTO d 869      54.192   2.684   5.853  0.00  0.00     0.092 C 
ATOM     14  O4E NTO d 869      68.275  -0.416   7.313  0.00  0.00    -0.572 OA
ATOM     15  C50 NTO d 869      64.372  -2.524  10.736  0.00  0.00     0.095 C 
ATOM     16  C49 NTO d 869      64.720  -0.030   8.013  0.00  0.00     0.134 C 
ATOM     17  O2D NTO d 869      57.686   2.457   7.246  0.00  0.00    -0.348 OA
ATOM     18  O1L NTO d 869      52.652   4.563   6.209  0.00  0.00    -0.348 OA
ATOM     19  O19 NTO d 869      48.400   6.687  10.936  0.00  0.00    -0.572 OA
ATOM     20  C46 NTO d 869      63.959   1.254   7.677  0.00  0.00     0.094 C 
ATOM     21  O4A NTO d 869      66.122   0.235   8.093  0.00  0.00    -0.244 OA
ATOM     22  N3G NTO d 869      61.568   4.541   9.426  0.00  0.00    -0.210 NA
ATOM     23  O36 NTO d 869      56.963   3.579   3.017  0.00  0.00    -0.572 OA
ATOM     24  O57 NTO d 869      67.404   0.731  12.965  0.00  0.00    -0.572 OA
ATOM     25  C40 NTO d 869      62.475   0.930   7.520  0.00  0.00     0.103 C 
ATOM     26  O5I NTO d 869      60.310  -5.585  12.201  0.00  0.00    -0.296 OA
ATOM     27  C20 NTO d 869      53.790   3.866   6.733  0.00  0.00     0.103 C 
ATOM     28  C53 NTO d 869      66.314  -1.458  11.855  0.00  0.00     0.067 C 
ATOM     29  O3M NTO d 869      61.731   1.965   8.175  0.00  0.00    -0.348 OA
ATOM     30  C43 NTO d 869      60.649  -0.527   8.308  0.00  0.00     0.206 C 
ATOM     31  S17 NTO d 869      49.317   5.500  10.940  0.00  0.00     0.251 S 
ATOM     32  O45 NTO d 869      60.048   0.400   8.896  0.00  0.00    -0.646 OA
ATOM     33  O47 NTO d 869      64.459   1.792   6.449  0.00  0.00    -0.390 OA
ATOM     34  O5K NTO d 869      61.470  -7.625  12.915  0.00  0.00    -0.296 OA
ATOM     35  C2C NTO d 869      56.568   3.076   6.588  0.00  0.00     0.160 C 
ATOM     36  O38 NTO d 869      59.072   4.260   1.985  0.00  0.00    -0.572 OA
ATOM     37  O1J NTO d 869      51.588   2.505   1.510  0.00  0.00    -0.296 OA
ATOM     38  C12 NTO d 869      49.701   6.001   6.020  0.00  0.00     0.089 C 
ATOM     39  S4B NTO d 869      66.811  -0.375   6.998  0.00  0.00     0.252 S 
ATOM     40  O4D NTO d 869      66.579   0.424   5.750  0.00  0.00    -0.572 OA
ATOM     41  C1E NTO d 869      50.741   4.005   4.924  0.00  0.00     0.081 C 
ATOM     42  C13 NTO d 869      50.403   5.574   7.311  0.00  0.00     0.090 C 
ATOM     43  C29 NTO d 869      55.452   2.039   6.434  0.00  0.00     0.110 C 
ATOM     44  O42 NTO d 869      62.788  -0.520   9.444  0.00  0.00    -0.340 OA
ATOM     45  C31 NTO d 869      59.872   2.308   6.259  0.00  0.00     0.091 C 
ATOM     46  C3F NTO d 869      60.918   4.200   8.147  0.00  0.00     0.083 C 
ATOM     47  S5H NTO d 869      61.607  -6.147  12.700  0.00  0.00     0.156 S 
ATOM     48  S1G NTO d 869      50.700   2.912   2.648  0.00  0.00     0.156 S 
ATOM     49  O5J NTO d 869      61.965  -5.499  14.004  0.00  0.00    -0.296 OA
ATOM     50  C5F NTO d 869      63.367  -4.532  11.826  0.00  0.00     0.081 C 
ATOM     51  S3H NTO d 869      63.070   5.153   9.229  0.00  0.00     0.156 S 
ATOM     52  O25 NTO d 869      53.901   6.954   6.932  0.00  0.00    -0.646 OA
ATOM     53  O1C NTO d 869      49.698   5.750   3.614  0.00  0.00    -0.391 OA
ATOM     54  O3A NTO d 869      58.693   4.521   9.067  0.00  0.00    -0.247 OA
ATOM     55  C5L NTO d 869      64.648  -4.677  12.649  0.00  0.00     0.149 C 
ATOM     56  C30 NTO d 869      58.908   3.185   7.048  0.00  0.00     0.096 C 
ATOM     57  C23 NTO d 869      54.537   6.066   7.547  0.00  0.00     0.206 C 
ATOM     58  O3E NTO d 869      57.751   2.751  10.393  0.00  0.00    -0.572 OA
ATOM     59  O14 NTO d 869      50.621   4.154   7.329  0.00  0.00    -0.349 OA
ATOM     60  O2A NTO d 869      55.890   0.990   5.568  0.00  0.00    -0.388 OA
ATOM     61  C3L NTO d 869      61.760   3.169   7.397  0.00  0.00     0.150 C 
ATOM     62  C4F NTO d 869      64.218  -0.604   9.342  0.00  0.00     0.161 C 
ATOM     63  C15 NTO d 869      49.498   5.920   8.497  0.00  0.00     0.067 C 
ATOM     64  S55 NTO d 869      65.924   0.614  13.176  0.00  0.00     0.251 S 
ATOM     65  O58 NTO d 869      65.614   0.718  14.639  0.00  0.00    -0.572 OA
ATOM     66  C51 NTO d 869      65.634  -2.793  11.542  0.00  0.00     0.091 C 
ATOM     67  O56 NTO d 869      65.229   1.717  12.434  0.00  0.00    -0.572 OA
ATOM     68  O3J NTO d 869      63.222   6.388  10.068  0.00  0.00    -0.296 OA
ATOM     69  O44 NTO d 869      60.076  -1.540   7.830  0.00  0.00    -0.646 OA
ATOM     70  O10 NTO d 869      49.643   7.428   5.977  0.00  0.00    -0.390 OA
ATOM     71  C59 NTO d 869      63.658  -3.852  10.487  0.00  0.00     0.083 C 
ATOM     72  O52 NTO d 869      65.324  -3.418  12.799  0.00  0.00    -0.349 OA
ATOM     73  O27 NTO d 869      53.139   1.716   5.825  0.00  0.00    -0.390 OA
ATOM     74  O1A NTO d 869      50.258   5.591  12.102  0.00  0.00    -0.572 OA
ATOM     75  O5A NTO d 869      62.428  -3.583   9.808  0.00  0.00    -0.391 OA
ATOM     76  O37 NTO d 869      58.549   1.878   2.259  0.00  0.00    -0.572 OA
ATOM     77  O24 NTO d 869      54.825   6.124   8.766  0.00  0.00    -0.646 OA
ATOM     78  O1H NTO d 869      49.693   3.919   2.178  0.00  0.00    -0.296 OA
ATOM     79  O22 NTO d 869      56.120   4.207   7.354  0.00  0.00    -0.340 OA
ATOM     80  O3D NTO d 869      57.543   5.092  11.085  0.00  0.00    -0.572 OA
ATOM     81  C33 NTO d 869      59.278   2.040   4.874  0.00  0.00     0.067 C 
ATOM     82  S35 NTO d 869      58.416   3.242   2.869  0.00  0.00     0.251 S 
ATOM     83  S3B NTO d 869      58.429   4.090  10.406  0.00  0.00     0.252 S 
ATOM     84  O4C NTO d 869      66.308  -1.775   6.804  0.00  0.00    -0.572 OA
ATOM     85  C39 NTO d 869      59.538   3.586   8.386  0.00  0.00     0.108 C 
ATOM     86  O16 NTO d 869      50.076   5.475   9.726  0.00  0.00    -0.254 OA
ATOM     87  O5M NTO d 869      65.500  -5.696  12.113  0.00  0.00    -0.364 OA
ATOM     88  O3C NTO d 869      59.716   3.983  11.168  0.00  0.00    -0.572 OA
ATOM     89  C1K NTO d 869      51.470   3.750   6.244  0.00  0.00     0.150 C 
ATOM     90  O32 NTO d 869      61.158   2.931   6.114  0.00  0.00    -0.349 OA
ATOM     91  O34 NTO d 869      59.053   3.255   4.154  0.00  0.00    -0.254 OA
ATOM     92  H   NTO d 869      63.985   3.333   9.113  0.00  0.00     0.231 HD
ATOM     93  H   NTO d 869      50.648   1.054   3.491  0.00  0.00     0.231 HD
ATOM     94  H   NTO d 869      62.529  -1.207   7.535  0.00  0.00     0.104 H 
ATOM     95  H   NTO d 869      51.401   6.025   4.723  0.00  0.00     0.089 H 
ATOM     96  H   NTO d 869      63.498  -6.570  11.675  0.00  0.00     0.140 HD
ATOM     97  H   NTO d 869      52.277   2.877   4.172  0.00  0.00     0.140 HD
ATOM     98  H   NTO d 869      63.200   4.728   7.239  0.00  0.00     0.231 HD
ATOM     99  H   NTO d 869      66.912  -7.026  12.785  0.00  0.00     0.066 H 
ATOM    100  H   NTO d 869      65.615  -6.688  13.906  0.00  0.00     0.066 H 
ATOM    101  H   NTO d 869      66.865  -5.498  13.633  0.00  0.00     0.066 H 
ATOM    102  H   NTO d 869      55.242   5.117   5.773  0.00  0.00     0.104 H 
ATOM    103  H   NTO d 869      54.380   3.029   4.857  0.00  0.00     0.091 H 
ATOM    104  H   NTO d 869      63.753  -1.845  11.285  0.00  0.00     0.091 H 
ATOM    105  H   NTO d 869      64.547  -0.747   7.238  0.00  0.00     0.097 H 
ATOM    106  H   NTO d 869      64.092   1.968   8.461  0.00  0.00     0.091 H 
ATOM    107  H   NTO d 869      61.632   3.696   9.995  0.00  0.00     0.140 HD
ATOM    108  H   NTO d 869      62.216   0.878   6.484  0.00  0.00     0.092 H 
ATOM    109  H   NTO d 869      60.079  -6.005  11.357  0.00  0.00     0.231 HD
ATOM    110  H   NTO d 869      53.535   3.499   7.705  0.00  0.00     0.092 H 
ATOM    111  H   NTO d 869      67.240  -1.643  12.357  0.00  0.00     0.080 H 
ATOM    112  H   NTO d 869      66.489  -0.935  10.939  0.00  0.00     0.080 H 
ATOM    113  H   NTO d 869      64.338   1.143   5.738  0.00  0.00     0.210 HD
ATOM    114  H   NTO d 869      61.238  -8.054  12.075  0.00  0.00     0.231 HD
ATOM    115  H   NTO d 869      56.853   3.427   5.619  0.00  0.00     0.133 H 
ATOM    116  H   NTO d 869      52.236   1.854   1.822  0.00  0.00     0.231 HD
ATOM    117  H   NTO d 869      48.718   5.578   6.007  0.00  0.00     0.091 H 
ATOM    118  H   NTO d 869      49.815   3.468   4.895  0.00  0.00     0.076 H 
ATOM    119  H   NTO d 869      51.343   6.081   7.370  0.00  0.00     0.090 H 
ATOM    120  H   NTO d 869      55.221   1.640   7.400  0.00  0.00     0.094 H 
ATOM    121  H   NTO d 869      60.010   1.393   6.795  0.00  0.00     0.090 H 
ATOM    122  H   NTO d 869      60.823   5.102   7.578  0.00  0.00     0.076 H 
ATOM    123  H   NTO d 869      62.056  -4.542  13.875  0.00  0.00     0.231 HD
ATOM    124  H   NTO d 869      62.677  -3.922  12.371  0.00  0.00     0.076 H 
ATOM    125  H   NTO d 869      48.853   5.277   3.676  0.00  0.00     0.210 HD
ATOM    126  H   NTO d 869      64.371  -4.992  13.633  0.00  0.00     0.131 H 
ATOM    127  H   NTO d 869      58.696   4.084   6.508  0.00  0.00     0.091 H 
ATOM    128  H   NTO d 869      56.097   1.357   4.695  0.00  0.00     0.210 HD
ATOM    129  H   NTO d 869      62.767   3.505   7.254  0.00  0.00     0.131 H 
ATOM    130  H   NTO d 869      64.600  -0.025  10.157  0.00  0.00     0.133 H 
ATOM    131  H   NTO d 869      48.549   5.445   8.365  0.00  0.00     0.080 H 
ATOM    132  H   NTO d 869      49.380   6.983   8.539  0.00  0.00     0.080 H 
ATOM    133  H   NTO d 869      66.265  -3.438  10.966  0.00  0.00     0.090 H 
ATOM    134  H   NTO d 869      64.114   6.751   9.950  0.00  0.00     0.231 HD
ATOM    135  H   NTO d 869      50.544   7.788   5.989  0.00  0.00     0.210 HD
ATOM    136  H   NTO d 869      64.273  -4.497   9.894  0.00  0.00     0.089 H 
ATOM    137  H   NTO d 869      52.966   1.400   6.726  0.00  0.00     0.210 HD
ATOM    138  H   NTO d 869      61.879  -2.998  10.353  0.00  0.00     0.210 HD
ATOM    139  H   NTO d 869      49.123   4.176   2.920  0.00  0.00     0.231 HD
ATOM    140  H   NTO d 869      58.346   1.527   4.988  0.00  0.00     0.080 H 
ATOM    141  H   NTO d 869      59.975   1.446   4.319  0.00  0.00     0.080 H 
ATOM    142  H   NTO d 869      59.646   2.714   8.996  0.00  0.00     0.092 H 
ATOM    143  H   NTO d 869      51.719   2.718   6.378  0.00  0.00     0.131 H 
ENDROOT
TORSDOF 46
ENDMDL
MODEL 82
REMARK VINA RESULT:      -4.5      4.710     14.367
REMARK  0 active torsions:
REMARK  status: ('A' for Active; 'I' for Inactive)
REMARK       I    between atoms: O3I_1  and  S3H_51 
REMARK       I    between atoms: O1I_2  and  S1G_48 
REMARK       I    between atoms: O54_3  and  C53_28 
REMARK       I    between atoms: O54_3  and  S55_64 
REMARK       I    between atoms: C41_5  and  C43_30 
REMARK       I    between atoms: C1B_6  and  O1C_53 
REMARK       I    between atoms: O4G_7  and  C4F_62 
REMARK       I    between atoms: O4G_7  and  C50_15 
REMARK       I    between atoms: N5G_8  and  C5F_50 
REMARK       I    between atoms: N5G_8  and  S5H_47 
REMARK       I    between atoms: N1F_9  and  C1E_41 
REMARK       I    between atoms: N1F_9  and  S1G_48 
REMARK       I    between atoms: O3K_10  and  S3H_51 
REMARK       I    between atoms: C5N_11  and  O5M_87 
REMARK       I    between atoms: C21_12  and  C23_57 
REMARK       I    between atoms: C26_13  and  O27_73 
REMARK       I    between atoms: C49_16  and  O4A_21 
REMARK       I    between atoms: O2D_17  and  C2C_35 
REMARK       I    between atoms: O2D_17  and  C30_56 
REMARK       I    between atoms: O1L_18  and  C1K_89 
REMARK       I    between atoms: O1L_18  and  C20_27 
REMARK       I    between atoms: C46_20  and  O47_33 
REMARK       I    between atoms: O4A_21  and  S4B_39 
REMARK       I    between atoms: N3G_22  and  C3F_46 
REMARK       I    between atoms: N3G_22  and  S3H_51 
REMARK       I    between atoms: C40_25  and  O3M_29 
REMARK       I    between atoms: O5I_26  and  S5H_47 
REMARK       I    between atoms: C53_28  and  C51_66 
REMARK       I    between atoms: O3M_29  and  C3L_61 
REMARK       I    between atoms: S17_31  and  O16_86 
REMARK       I    between atoms: O5K_34  and  S5H_47 
REMARK       I    between atoms: O1J_37  and  S1G_48 
REMARK       I    between atoms: C12_38  and  O10_70 
REMARK       I    between atoms: C13_42  and  C15_63 
REMARK       I    between atoms: C29_43  and  O2A_60 
REMARK       I    between atoms: C31_45  and  C33_81 
REMARK       I    between atoms: S5H_47  and  O5J_49 
REMARK       I    between atoms: S1G_48  and  O1H_78 
REMARK       I    between atoms: S3H_51  and  O3J_68 
REMARK       I    between atoms: O3A_54  and  C39_85 
REMARK       I    between atoms: O3A_54  and  S3B_83 
REMARK       I    between atoms: C5L_55  and  O5M_87 
REMARK       I    between atoms: C15_63  and  O16_86 
REMARK       I    between atoms: C59_71  and  O5A_75 
REMARK       I    between atoms: C33_81  and  O34_91 
REMARK       I    between atoms: S35_82  and  O34_91 
ROOT
ATOM      1  O3I NTO d 869      69.017  -3.954   6.927  0.00  0.00    -0.296 OA
ATOM      2  O1I NTO d 869      66.386   2.458  21.005  0.00  0.00    -0.296 OA
ATOM      3  O54 NTO d 869      63.859  -4.474   4.236  0.00  0.00    -0.254 OA
ATOM      4  O18 NTO d 869      64.875  -5.750  21.894  0.00  0.00    -0.572 OA
ATOM      5  C41 NTO d 869      65.245  -0.635   8.111  0.00  0.00     0.152 C 
ATOM      6  C1B NTO d 869      69.123  -0.664  21.071  0.00  0.00     0.083 C 
ATOM      7  O4G NTO d 869      63.939  -1.033   5.171  0.00  0.00    -0.348 OA
ATOM      8  N5G NTO d 869      59.165  -1.248   5.997  0.00  0.00    -0.210 NA
ATOM      9  N1F NTO d 869      68.119   1.102  19.710  0.00  0.00    -0.210 NA
ATOM     10  O3K NTO d 869      70.844  -2.938   8.210  0.00  0.00    -0.296 OA
ATOM     11  C5N NTO d 869      58.949  -2.365   2.307  0.00  0.00     0.007 C 
ATOM     12  C21 NTO d 869      68.739  -1.982  16.308  0.00  0.00     0.152 C 
ATOM     13  C26 NTO d 869      67.078  -0.227  16.762  0.00  0.00     0.092 C 
ATOM     14  O4E NTO d 869      67.037   0.313   2.279  0.00  0.00    -0.572 OA
ATOM     15  C50 NTO d 869      62.814  -1.925   5.206  0.00  0.00     0.095 C 
ATOM     16  C49 NTO d 869      66.241  -0.601   5.716  0.00  0.00     0.134 C 
ATOM     17  O2D NTO d 869      67.097  -1.257  13.138  0.00  0.00    -0.348 OA
ATOM     18  O1L NTO d 869      68.204  -1.438  18.578  0.00  0.00    -0.348 OA
ATOM     19  O19 NTO d 869      67.033  -6.749  22.495  0.00  0.00    -0.572 OA
ATOM     20  C46 NTO d 869      67.328  -0.900   6.749  0.00  0.00     0.094 C 
ATOM     21  O4A NTO d 869      66.766  -0.745   4.394  0.00  0.00    -0.244 OA
ATOM     22  N3G NTO d 869      68.885  -4.014   9.481  0.00  0.00    -0.210 NA
ATOM     23  O36 NTO d 869      69.724   1.994  14.621  0.00  0.00    -0.572 OA
ATOM     24  O57 NTO d 869      65.404  -5.278   2.598  0.00  0.00    -0.572 OA
ATOM     25  C40 NTO d 869      66.766  -0.663   8.149  0.00  0.00     0.103 C 
ATOM     26  O5I NTO d 869      58.567  -1.990   8.363  0.00  0.00    -0.296 OA
ATOM     27  C20 NTO d 869      67.637  -1.557  17.266  0.00  0.00     0.103 C 
ATOM     28  C53 NTO d 869      63.717  -3.340   3.378  0.00  0.00     0.067 C 
ATOM     29  O3M NTO d 869      67.214  -1.735   8.987  0.00  0.00    -0.348 OA
ATOM     30  C43 NTO d 869      64.730  -0.772   9.535  0.00  0.00     0.206 C 
ATOM     31  S17 NTO d 869      66.210  -6.191  21.372  0.00  0.00     0.251 S 
ATOM     32  O45 NTO d 869      65.146  -1.732  10.222  0.00  0.00    -0.646 OA
ATOM     33  O47 NTO d 869      68.442  -0.029   6.532  0.00  0.00    -0.390 OA
ATOM     34  O5K NTO d 869      56.751  -1.676   6.743  0.00  0.00    -0.296 OA
ATOM     35  C2C NTO d 869      67.659  -0.984  14.432  0.00  0.00     0.160 C 
ATOM     36  O38 NTO d 869      71.254   2.678  12.841  0.00  0.00    -0.572 OA
ATOM     37  O1J NTO d 869      68.180   3.648  19.835  0.00  0.00    -0.296 OA
ATOM     38  C12 NTO d 869      68.850  -2.009  21.751  0.00  0.00     0.089 C 
ATOM     39  S4B NTO d 869      66.865   0.529   3.751  0.00  0.00     0.252 S 
ATOM     40  O4D NTO d 869      68.045   1.278   4.298  0.00  0.00    -0.572 OA
ATOM     41  C1E NTO d 869      67.823  -0.101  20.497  0.00  0.00     0.081 C 
ATOM     42  C13 NTO d 869      68.087  -2.948  20.814  0.00  0.00     0.090 C 
ATOM     43  C29 NTO d 869      66.559  -0.416  15.335  0.00  0.00     0.110 C 
ATOM     44  O42 NTO d 869      64.748  -1.720   7.307  0.00  0.00    -0.340 OA
ATOM     45  C31 NTO d 869      67.902  -0.239  11.115  0.00  0.00     0.091 C 
ATOM     46  C3F NTO d 869      68.985  -2.740  10.216  0.00  0.00     0.083 C 
ATOM     47  S5H NTO d 869      58.166  -2.142   6.926  0.00  0.00     0.156 S 
ATOM     48  S1G NTO d 869      67.838   2.420  20.626  0.00  0.00     0.156 S 
ATOM     49  O5J NTO d 869      58.254  -3.586   6.532  0.00  0.00    -0.296 OA
ATOM     50  C5F NTO d 869      60.360  -2.030   5.647  0.00  0.00     0.081 C 
ATOM     51  S3H NTO d 869      69.855  -4.065   8.167  0.00  0.00     0.156 S 
ATOM     52  O25 NTO d 869      70.271  -3.116  17.734  0.00  0.00    -0.646 OA
ATOM     53  O1C NTO d 869      69.664   0.253  22.025  0.00  0.00    -0.391 OA
ATOM     54  O3A NTO d 869      68.350  -3.777  12.319  0.00  0.00    -0.247 OA
ATOM     55  C5L NTO d 869      60.180  -2.659   4.264  0.00  0.00     0.149 C 
ATOM     56  C30 NTO d 869      68.103  -1.368  12.118  0.00  0.00     0.096 C 
ATOM     57  C23 NTO d 869      69.380  -3.246  16.861  0.00  0.00     0.206 C 
ATOM     58  O3E NTO d 869      66.017  -4.197  12.713  0.00  0.00    -0.572 OA
ATOM     59  O14 NTO d 869      66.892  -2.320  20.323  0.00  0.00    -0.349 OA
ATOM     60  O2A NTO d 869      66.119   0.841  14.820  0.00  0.00    -0.388 OA
ATOM     61  C3L NTO d 869      68.605  -1.580   9.297  0.00  0.00     0.150 C 
ATOM     62  C4F NTO d 869      65.053  -1.546   5.915  0.00  0.00     0.161 C 
ATOM     63  C15 NTO d 869      67.668  -4.192  21.603  0.00  0.00     0.067 C 
ATOM     64  S55 NTO d 869      64.866  -5.461   3.985  0.00  0.00     0.251 S 
ATOM     65  O58 NTO d 869      64.256  -6.824   4.112  0.00  0.00    -0.572 OA
ATOM     66  C51 NTO d 869      62.529  -2.483   3.820  0.00  0.00     0.091 C 
ATOM     67  O56 NTO d 869      65.984  -5.316   4.973  0.00  0.00    -0.572 OA
ATOM     68  O3J NTO d 869      70.607  -5.362   8.148  0.00  0.00    -0.296 OA
ATOM     69  O44 NTO d 869      63.918   0.091   9.959  0.00  0.00    -0.646 OA
ATOM     70  O10 NTO d 869      70.100  -2.613  22.090  0.00  0.00    -0.390 OA
ATOM     71  C59 NTO d 869      61.597  -1.129   5.674  0.00  0.00     0.083 C 
ATOM     72  O52 NTO d 869      61.372  -3.335   3.833  0.00  0.00    -0.349 OA
ATOM     73  O27 NTO d 869      65.999   0.198  17.600  0.00  0.00    -0.390 OA
ATOM     74  O1A NTO d 869      66.009  -7.240  20.321  0.00  0.00    -0.572 OA
ATOM     75  O5A NTO d 869      61.836  -0.683   7.012  0.00  0.00    -0.391 OA
ATOM     76  O37 NTO d 869      68.937   3.485  12.849  0.00  0.00    -0.572 OA
ATOM     77  O24 NTO d 869      68.974  -4.352  16.430  0.00  0.00    -0.646 OA
ATOM     78  O1H NTO d 869      68.683   2.356  21.863  0.00  0.00    -0.296 OA
ATOM     79  O22 NTO d 869      68.212  -2.189  14.986  0.00  0.00    -0.340 OA
ATOM     80  O3D NTO d 869      67.712  -5.872  13.280  0.00  0.00    -0.572 OA
ATOM     81  C33 NTO d 869      68.124   1.100  11.825  0.00  0.00     0.067 C 
ATOM     82  S35 NTO d 869      69.833   2.324  13.162  0.00  0.00     0.251 S 
ATOM     83  S3B NTO d 869      67.337  -4.788  12.314  0.00  0.00     0.252 S 
ATOM     84  O4C NTO d 869      65.610   1.314   3.993  0.00  0.00    -0.572 OA
ATOM     85  C39 NTO d 869      68.025  -2.722  11.406  0.00  0.00     0.108 C 
ATOM     86  O16 NTO d 869      66.887  -5.071  20.791  0.00  0.00    -0.254 OA
ATOM     87  O5M NTO d 869      59.720  -1.694   3.309  0.00  0.00    -0.364 OA
ATOM     88  O3C NTO d 869      67.217  -5.379  10.941  0.00  0.00    -0.572 OA
ATOM     89  C1K NTO d 869      67.204  -1.142  19.563  0.00  0.00     0.150 C 
ATOM     90  O32 NTO d 869      68.808  -0.347  10.006  0.00  0.00    -0.349 OA
ATOM     91  O34 NTO d 869      69.442   1.191  12.376  0.00  0.00    -0.254 OA
ATOM     92  H   NTO d 869      68.531  -3.115   6.939  0.00  0.00     0.231 HD
ATOM     93  H   NTO d 869      65.844   2.500  20.202  0.00  0.00     0.231 HD
ATOM     94  H   NTO d 869      64.908   0.284   7.679  0.00  0.00     0.104 H 
ATOM     95  H   NTO d 869      69.825  -0.807  20.276  0.00  0.00     0.089 H 
ATOM     96  H   NTO d 869      58.678  -0.976   5.143  0.00  0.00     0.140 HD
ATOM     97  H   NTO d 869      67.521   1.126  18.885  0.00  0.00     0.140 HD
ATOM     98  H   NTO d 869      70.369  -2.092   8.223  0.00  0.00     0.231 HD
ATOM     99  H   NTO d 869      58.600  -1.653   1.589  0.00  0.00     0.066 H 
ATOM    100  H   NTO d 869      58.111  -2.848   2.766  0.00  0.00     0.066 H 
ATOM    101  H   NTO d 869      59.558  -3.097   1.819  0.00  0.00     0.066 H 
ATOM    102  H   NTO d 869      69.480  -1.214  16.227  0.00  0.00     0.104 H 
ATOM    103  H   NTO d 869      67.850   0.513  16.779  0.00  0.00     0.091 H 
ATOM    104  H   NTO d 869      63.026  -2.739   5.867  0.00  0.00     0.091 H 
ATOM    105  H   NTO d 869      65.909   0.408   5.847  0.00  0.00     0.097 H 
ATOM    106  H   NTO d 869      67.645  -1.917   6.655  0.00  0.00     0.091 H 
ATOM    107  H   NTO d 869      67.919  -4.141   9.178  0.00  0.00     0.140 HD
ATOM    108  H   NTO d 869      67.106   0.278   8.529  0.00  0.00     0.092 H 
ATOM    109  H   NTO d 869      58.509  -1.056   8.617  0.00  0.00     0.231 HD
ATOM    110  H   NTO d 869      66.840  -2.269  17.313  0.00  0.00     0.092 H 
ATOM    111  H   NTO d 869      63.557  -3.675   2.375  0.00  0.00     0.080 H 
ATOM    112  H   NTO d 869      64.609  -2.751   3.431  0.00  0.00     0.080 H 
ATOM    113  H   NTO d 869      68.153   0.893   6.618  0.00  0.00     0.210 HD
ATOM    114  H   NTO d 869      56.684  -0.741   6.996  0.00  0.00     0.231 HD
ATOM    115  H   NTO d 869      68.448  -0.266  14.352  0.00  0.00     0.133 H 
ATOM    116  H   NTO d 869      67.629   3.683  19.037  0.00  0.00     0.231 HD
ATOM    117  H   NTO d 869      68.258  -1.840  22.625  0.00  0.00     0.091 H 
ATOM    118  H   NTO d 869      67.151   0.136  21.296  0.00  0.00     0.076 H 
ATOM    119  H   NTO d 869      68.723  -3.198  19.991  0.00  0.00     0.090 H 
ATOM    120  H   NTO d 869      65.743  -1.107  15.353  0.00  0.00     0.094 H 
ATOM    121  H   NTO d 869      66.906  -0.302  10.732  0.00  0.00     0.090 H 
ATOM    122  H   NTO d 869      69.994  -2.639  10.560  0.00  0.00     0.076 H 
ATOM    123  H   NTO d 869      59.165  -3.898   6.647  0.00  0.00     0.231 HD
ATOM    124  H   NTO d 869      60.497  -2.812   6.364  0.00  0.00     0.076 H 
ATOM    125  H   NTO d 869      69.028   0.382  22.745  0.00  0.00     0.210 HD
ATOM    126  H   NTO d 869      59.417  -3.405   4.342  0.00  0.00     0.131 H 
ATOM    127  H   NTO d 869      69.069  -1.295  12.571  0.00  0.00     0.091 H 
ATOM    128  H   NTO d 869      66.863   1.464  14.807  0.00  0.00     0.210 HD
ATOM    129  H   NTO d 869      69.195  -1.571   8.403  0.00  0.00     0.131 H 
ATOM    130  H   NTO d 869      65.297  -2.521   5.548  0.00  0.00     0.133 H 
ATOM    131  H   NTO d 869      67.089  -3.891  22.451  0.00  0.00     0.080 H 
ATOM    132  H   NTO d 869      68.549  -4.710  21.919  0.00  0.00     0.080 H 
ATOM    133  H   NTO d 869      62.361  -1.659   3.158  0.00  0.00     0.090 H 
ATOM    134  H   NTO d 869      71.182  -5.391   7.368  0.00  0.00     0.231 HD
ATOM    135  H   NTO d 869      70.619  -2.756  21.284  0.00  0.00     0.210 HD
ATOM    136  H   NTO d 869      61.432  -0.291   5.030  0.00  0.00     0.089 H 
ATOM    137  H   NTO d 869      65.296  -0.471  17.588  0.00  0.00     0.210 HD
ATOM    138  H   NTO d 869      61.984  -1.450   7.587  0.00  0.00     0.210 HD
ATOM    139  H   NTO d 869      68.456   1.559  22.369  0.00  0.00     0.231 HD
ATOM    140  H   NTO d 869      67.410   1.198  12.615  0.00  0.00     0.080 H 
ATOM    141  H   NTO d 869      68.007   1.884  11.105  0.00  0.00     0.080 H 
ATOM    142  H   NTO d 869      67.027  -2.872  11.050  0.00  0.00     0.092 H 
ATOM    143  H   NTO d 869      66.304  -0.791  19.102  0.00  0.00     0.131 H 
ENDROOT
TORSDOF 46
ENDMDL
MODEL 83
REMARK VINA RESULT:      -4.5      4.207     13.641
REMARK  0 active torsions:
REMARK  status: ('A' for Active; 'I' for Inactive)
REMARK       I    between atoms: O3I_1  and  S3H_51 
REMARK       I    between atoms: O1I_2  and  S1G_48 
REMARK       I    between atoms: O54_3  and  C53_28 
REMARK       I    between atoms: O54_3  and  S55_64 
REMARK       I    between atoms: C41_5  and  C43_30 
REMARK       I    between atoms: C1B_6  and  O1C_53 
REMARK       I    between atoms: O4G_7  and  C4F_62 
REMARK       I    between atoms: O4G_7  and  C50_15 
REMARK       I    between atoms: N5G_8  and  C5F_50 
REMARK       I    between atoms: N5G_8  and  S5H_47 
REMARK       I    between atoms: N1F_9  and  C1E_41 
REMARK       I    between atoms: N1F_9  and  S1G_48 
REMARK       I    between atoms: O3K_10  and  S3H_51 
REMARK       I    between atoms: C5N_11  and  O5M_87 
REMARK       I    between atoms: C21_12  and  C23_57 
REMARK       I    between atoms: C26_13  and  O27_73 
REMARK       I    between atoms: C49_16  and  O4A_21 
REMARK       I    between atoms: O2D_17  and  C2C_35 
REMARK       I    between atoms: O2D_17  and  C30_56 
REMARK       I    between atoms: O1L_18  and  C1K_89 
REMARK       I    between atoms: O1L_18  and  C20_27 
REMARK       I    between atoms: C46_20  and  O47_33 
REMARK       I    between atoms: O4A_21  and  S4B_39 
REMARK       I    between atoms: N3G_22  and  C3F_46 
REMARK       I    between atoms: N3G_22  and  S3H_51 
REMARK       I    between atoms: C40_25  and  O3M_29 
REMARK       I    between atoms: O5I_26  and  S5H_47 
REMARK       I    between atoms: C53_28  and  C51_66 
REMARK       I    between atoms: O3M_29  and  C3L_61 
REMARK       I    between atoms: S17_31  and  O16_86 
REMARK       I    between atoms: O5K_34  and  S5H_47 
REMARK       I    between atoms: O1J_37  and  S1G_48 
REMARK       I    between atoms: C12_38  and  O10_70 
REMARK       I    between atoms: C13_42  and  C15_63 
REMARK       I    between atoms: C29_43  and  O2A_60 
REMARK       I    between atoms: C31_45  and  C33_81 
REMARK       I    between atoms: S5H_47  and  O5J_49 
REMARK       I    between atoms: S1G_48  and  O1H_78 
REMARK       I    between atoms: S3H_51  and  O3J_68 
REMARK       I    between atoms: O3A_54  and  C39_85 
REMARK       I    between atoms: O3A_54  and  S3B_83 
REMARK       I    between atoms: C5L_55  and  O5M_87 
REMARK       I    between atoms: C15_63  and  O16_86 
REMARK       I    between atoms: C59_71  and  O5A_75 
REMARK       I    between atoms: C33_81  and  O34_91 
REMARK       I    between atoms: S35_82  and  O34_91 
ROOT
ATOM      1  O3I NTO d 869      65.538  -5.155   9.662  0.00  0.00    -0.296 OA
ATOM      2  O1I NTO d 869      69.622   9.625  12.993  0.00  0.00    -0.296 OA
ATOM      3  O54 NTO d 869      59.914  -5.117   8.086  0.00  0.00    -0.254 OA
ATOM      4  O18 NTO d 869      65.943   6.635  19.919  0.00  0.00    -0.572 OA
ATOM      5  C41 NTO d 869      63.585  -0.892   7.507  0.00  0.00     0.152 C 
ATOM      6  C1B NTO d 869      71.102   6.830  15.684  0.00  0.00     0.083 C 
ATOM      7  O4G NTO d 869      61.370  -2.667   5.942  0.00  0.00    -0.348 OA
ATOM      8  N5G NTO d 869      57.286  -0.075   6.294  0.00  0.00    -0.210 NA
ATOM      9  N1F NTO d 869      70.338   7.207  13.392  0.00  0.00    -0.210 NA
ATOM     10  O3K NTO d 869      67.898  -4.492   9.764  0.00  0.00    -0.296 OA
ATOM     11  C5N NTO d 869      55.584  -3.254   4.915  0.00  0.00     0.007 C 
ATOM     12  C21 NTO d 869      68.850   2.838  13.799  0.00  0.00     0.152 C 
ATOM     13  C26 NTO d 869      68.062   4.820  12.577  0.00  0.00     0.092 C 
ATOM     14  O4E NTO d 869      63.666  -5.434   3.326  0.00  0.00    -0.572 OA
ATOM     15  C50 NTO d 869      60.091  -2.614   6.593  0.00  0.00     0.095 C 
ATOM     16  C49 NTO d 869      63.739  -3.058   6.088  0.00  0.00     0.134 C 
ATOM     17  O2D NTO d 869      66.619   1.631  11.184  0.00  0.00    -0.348 OA
ATOM     18  O1L NTO d 869      69.254   5.013  14.715  0.00  0.00    -0.348 OA
ATOM     19  O19 NTO d 869      67.745   5.599  21.220  0.00  0.00    -0.572 OA
ATOM     20  C46 NTO d 869      64.940  -2.940   7.027  0.00  0.00     0.094 C 
ATOM     21  O4A NTO d 869      63.749  -4.328   5.432  0.00  0.00    -0.244 OA
ATOM     22  N3G NTO d 869      66.200  -3.267  11.256  0.00  0.00    -0.210 NA
ATOM     23  O36 NTO d 869      70.466   3.258   9.695  0.00  0.00    -0.572 OA
ATOM     24  O57 NTO d 869      60.530  -7.413   7.828  0.00  0.00    -0.572 OA
ATOM     25  C40 NTO d 869      64.951  -1.548   7.654  0.00  0.00     0.103 C 
ATOM     26  O5I NTO d 869      57.255   1.524   8.281  0.00  0.00    -0.296 OA
ATOM     27  C20 NTO d 869      68.298   4.244  13.972  0.00  0.00     0.103 C 
ATOM     28  C53 NTO d 869      59.879  -5.085   6.659  0.00  0.00     0.067 C 
ATOM     29  O3M NTO d 869      65.273  -1.696   9.042  0.00  0.00    -0.348 OA
ATOM     30  C43 NTO d 869      63.527   0.302   8.447  0.00  0.00     0.206 C 
ATOM     31  S17 NTO d 869      66.834   5.436  20.039  0.00  0.00     0.251 S 
ATOM     32  O45 NTO d 869      63.809   0.116   9.653  0.00  0.00    -0.646 OA
ATOM     33  O47 NTO d 869      66.146  -3.133   6.281  0.00  0.00    -0.390 OA
ATOM     34  O5K NTO d 869      55.224   1.308   6.924  0.00  0.00    -0.296 OA
ATOM     35  C2C NTO d 869      67.613   2.470  11.795  0.00  0.00     0.160 C 
ATOM     36  O38 NTO d 869      71.496   1.646   8.174  0.00  0.00    -0.572 OA
ATOM     37  O1J NTO d 869      71.240   8.606  11.460  0.00  0.00    -0.296 OA
ATOM     38  C12 NTO d 869      70.644   6.742  17.143  0.00  0.00     0.089 C 
ATOM     39  S4B NTO d 869      64.042  -4.172   4.041  0.00  0.00     0.252 S 
ATOM     40  O4D NTO d 869      65.506  -3.901   3.861  0.00  0.00    -0.572 OA
ATOM     41  C1E NTO d 869      69.937   7.280  14.802  0.00  0.00     0.081 C 
ATOM     42  C13 NTO d 869      69.370   5.902  17.263  0.00  0.00     0.090 C 
ATOM     43  C29 NTO d 869      67.091   3.909  11.822  0.00  0.00     0.110 C 
ATOM     44  O42 NTO d 869      62.544  -1.827   7.841  0.00  0.00    -0.340 OA
ATOM     45  C31 NTO d 869      67.030   0.336   9.202  0.00  0.00     0.091 C 
ATOM     46  C3F NTO d 869      66.925  -2.108  10.704  0.00  0.00     0.083 C 
ATOM     47  S5H NTO d 869      56.399   0.574   7.499  0.00  0.00     0.156 S 
ATOM     48  S1G NTO d 869      70.791   8.689  12.889  0.00  0.00     0.156 S 
ATOM     49  O5J NTO d 869      55.896  -0.509   8.407  0.00  0.00    -0.296 OA
ATOM     50  C5F NTO d 869      57.999  -1.266   6.779  0.00  0.00     0.081 C 
ATOM     51  S3H NTO d 869      66.641  -4.678  10.562  0.00  0.00     0.156 S 
ATOM     52  O25 NTO d 869      70.307   2.608  15.666  0.00  0.00    -0.646 OA
ATOM     53  O1C NTO d 869      72.176   7.768  15.577  0.00  0.00    -0.391 OA
ATOM     54  O3A NTO d 869      66.685  -0.839  12.762  0.00  0.00    -0.247 OA
ATOM     55  C5L NTO d 869      57.205  -2.524   6.422  0.00  0.00     0.149 C 
ATOM     56  C30 NTO d 869      67.165   0.387  10.718  0.00  0.00     0.096 C 
ATOM     57  C23 NTO d 869      69.196   2.296  15.178  0.00  0.00     0.206 C 
ATOM     58  O3E NTO d 869      64.586   0.256  13.177  0.00  0.00    -0.572 OA
ATOM     59  O14 NTO d 869      68.345   6.400  16.387  0.00  0.00    -0.349 OA
ATOM     60  O2A NTO d 869      66.935   4.388  10.485  0.00  0.00    -0.388 OA
ATOM     61  C3L NTO d 869      66.665  -2.003   9.202  0.00  0.00     0.150 C 
ATOM     62  C4F NTO d 869      62.438  -2.884   6.876  0.00  0.00     0.161 C 
ATOM     63  C15 NTO d 869      68.846   6.010  18.698  0.00  0.00     0.067 C 
ATOM     64  S55 NTO d 869      60.424  -6.261   8.782  0.00  0.00     0.251 S 
ATOM     65  O58 NTO d 869      59.485  -6.614   9.895  0.00  0.00    -0.572 OA
ATOM     66  C51 NTO d 869      59.225  -3.791   6.171  0.00  0.00     0.091 C 
ATOM     67  O56 NTO d 869      61.780  -5.957   9.345  0.00  0.00    -0.572 OA
ATOM     68  O3J NTO d 869      66.897  -5.704  11.626  0.00  0.00    -0.296 OA
ATOM     69  O44 NTO d 869      63.206   1.421   7.969  0.00  0.00    -0.646 OA
ATOM     70  O10 NTO d 869      71.677   6.122  17.911  0.00  0.00    -0.390 OA
ATOM     71  C59 NTO d 869      59.400  -1.319   6.167  0.00  0.00     0.083 C 
ATOM     72  O52 NTO d 869      57.923  -3.718   6.774  0.00  0.00    -0.349 OA
ATOM     73  O27 NTO d 869      67.494   6.129  12.679  0.00  0.00    -0.390 OA
ATOM     74  O1A NTO d 869      65.993   4.209  20.214  0.00  0.00    -0.572 OA
ATOM     75  O5A NTO d 869      60.175  -0.215   6.646  0.00  0.00    -0.391 OA
ATOM     76  O37 NTO d 869      69.680   3.095   7.385  0.00  0.00    -0.572 OA
ATOM     77  O24 NTO d 869      68.347   1.581  15.762  0.00  0.00    -0.646 OA
ATOM     78  O1H NTO d 869      71.914   9.185  13.750  0.00  0.00    -0.296 OA
ATOM     79  O22 NTO d 869      67.899   1.998  13.121  0.00  0.00    -0.340 OA
ATOM     80  O3D NTO d 869      65.749  -0.956  14.960  0.00  0.00    -0.572 OA
ATOM     81  C33 NTO d 869      67.876   1.457   8.591  0.00  0.00     0.067 C 
ATOM     82  S35 NTO d 869      70.212   2.320   8.554  0.00  0.00     0.251 S 
ATOM     83  S3B NTO d 869      65.455  -0.927  13.489  0.00  0.00     0.252 S 
ATOM     84  O4C NTO d 869      63.243  -3.031   3.483  0.00  0.00    -0.572 OA
ATOM     85  C39 NTO d 869      66.442  -0.808  11.350  0.00  0.00     0.108 C 
ATOM     86  O16 NTO d 869      67.614   5.302  18.845  0.00  0.00    -0.254 OA
ATOM     87  O5M NTO d 869      56.801  -2.512   5.047  0.00  0.00    -0.364 OA
ATOM     88  O3C NTO d 869      64.730  -2.184  13.112  0.00  0.00    -0.572 OA
ATOM     89  C1K NTO d 869      68.761   6.326  15.014  0.00  0.00     0.150 C 
ATOM     90  O32 NTO d 869      67.459  -0.929   8.673  0.00  0.00    -0.349 OA
ATOM     91  O34 NTO d 869      69.256   1.325   8.944  0.00  0.00    -0.254 OA
ATOM     92  H   NTO d 869      65.373  -4.493   8.974  0.00  0.00     0.231 HD
ATOM     93  H   NTO d 869      68.899   9.301  12.434  0.00  0.00     0.231 HD
ATOM     94  H   NTO d 869      63.441  -0.576   6.495  0.00  0.00     0.104 H 
ATOM     95  H   NTO d 869      71.437   5.867  15.360  0.00  0.00     0.089 H 
ATOM     96  H   NTO d 869      56.670  -0.340   5.526  0.00  0.00     0.140 HD
ATOM     97  H   NTO d 869      69.552   6.882  12.830  0.00  0.00     0.140 HD
ATOM     98  H   NTO d 869      67.746  -3.831   9.071  0.00  0.00     0.231 HD
ATOM     99  H   NTO d 869      55.273  -3.251   3.892  0.00  0.00     0.066 H 
ATOM    100  H   NTO d 869      54.824  -2.805   5.520  0.00  0.00     0.066 H 
ATOM    101  H   NTO d 869      55.745  -4.263   5.237  0.00  0.00     0.066 H 
ATOM    102  H   NTO d 869      69.732   2.855  13.192  0.00  0.00     0.104 H 
ATOM    103  H   NTO d 869      68.994   4.881  12.054  0.00  0.00     0.091 H 
ATOM    104  H   NTO d 869      60.229  -2.652   7.653  0.00  0.00     0.091 H 
ATOM    105  H   NTO d 869      63.802  -2.287   5.348  0.00  0.00     0.097 H 
ATOM    106  H   NTO d 869      64.872  -3.682   7.795  0.00  0.00     0.091 H 
ATOM    107  H   NTO d 869      65.200  -3.129  11.107  0.00  0.00     0.140 HD
ATOM    108  H   NTO d 869      65.671  -0.928   7.165  0.00  0.00     0.092 H 
ATOM    109  H   NTO d 869      57.580   2.224   7.694  0.00  0.00     0.231 HD
ATOM    110  H   NTO d 869      67.373   4.257  14.510  0.00  0.00     0.092 H 
ATOM    111  H   NTO d 869      59.315  -5.921   6.301  0.00  0.00     0.080 H 
ATOM    112  H   NTO d 869      60.880  -5.131   6.285  0.00  0.00     0.080 H 
ATOM    113  H   NTO d 869      66.207  -2.459   5.585  0.00  0.00     0.210 HD
ATOM    114  H   NTO d 869      55.539   2.012   6.335  0.00  0.00     0.231 HD
ATOM    115  H   NTO d 869      68.522   2.440  11.232  0.00  0.00     0.133 H 
ATOM    116  H   NTO d 869      70.508   8.285  10.910  0.00  0.00     0.231 HD
ATOM    117  H   NTO d 869      70.441   7.729  17.502  0.00  0.00     0.091 H 
ATOM    118  H   NTO d 869      69.661   8.282  15.056  0.00  0.00     0.076 H 
ATOM    119  H   NTO d 869      69.602   4.891  17.002  0.00  0.00     0.090 H 
ATOM    120  H   NTO d 869      66.147   3.920  12.324  0.00  0.00     0.094 H 
ATOM    121  H   NTO d 869      65.998   0.462   8.951  0.00  0.00     0.090 H 
ATOM    122  H   NTO d 869      67.967  -2.249  10.902  0.00  0.00     0.076 H 
ATOM    123  H   NTO d 869      56.649  -0.990   8.784  0.00  0.00     0.231 HD
ATOM    124  H   NTO d 869      58.097  -1.214   7.844  0.00  0.00     0.076 H 
ATOM    125  H   NTO d 869      71.873   8.642  15.871  0.00  0.00     0.210 HD
ATOM    126  H   NTO d 869      56.310  -2.523   7.007  0.00  0.00     0.131 H 
ATOM    127  H   NTO d 869      68.195   0.329  11.002  0.00  0.00     0.091 H 
ATOM    128  H   NTO d 869      67.795   4.376  10.035  0.00  0.00     0.210 HD
ATOM    129  H   NTO d 869      66.916  -2.909   8.690  0.00  0.00     0.131 H 
ATOM    130  H   NTO d 869      62.232  -3.770   7.440  0.00  0.00     0.133 H 
ATOM    131  H   NTO d 869      68.689   7.041  18.937  0.00  0.00     0.080 H 
ATOM    132  H   NTO d 869      69.570   5.580  19.359  0.00  0.00     0.080 H 
ATOM    133  H   NTO d 869      59.129  -3.768   5.105  0.00  0.00     0.090 H 
ATOM    134  H   NTO d 869      67.159  -6.541  11.212  0.00  0.00     0.231 HD
ATOM    135  H   NTO d 869      71.844   5.230  17.568  0.00  0.00     0.210 HD
ATOM    136  H   NTO d 869      59.318  -1.276   5.101  0.00  0.00     0.089 H 
ATOM    137  H   NTO d 869      66.648   6.079  13.152  0.00  0.00     0.210 HD
ATOM    138  H   NTO d 869      60.244  -0.264   7.612  0.00  0.00     0.210 HD
ATOM    139  H   NTO d 869      71.616   9.236  14.673  0.00  0.00     0.231 HD
ATOM    140  H   NTO d 869      67.514   2.398   8.947  0.00  0.00     0.080 H 
ATOM    141  H   NTO d 869      67.795   1.395   7.525  0.00  0.00     0.080 H 
ATOM    142  H   NTO d 869      65.390  -0.707  11.185  0.00  0.00     0.092 H 
ATOM    143  H   NTO d 869      67.922   6.571  14.396  0.00  0.00     0.131 H 
ENDROOT
TORSDOF 46
ENDMDL
MODEL 84
REMARK VINA RESULT:      -4.5      4.851     14.509
REMARK  0 active torsions:
REMARK  status: ('A' for Active; 'I' for Inactive)
REMARK       I    between atoms: O3I_1  and  S3H_51 
REMARK       I    between atoms: O1I_2  and  S1G_48 
REMARK       I    between atoms: O54_3  and  C53_28 
REMARK       I    between atoms: O54_3  and  S55_64 
REMARK       I    between atoms: C41_5  and  C43_30 
REMARK       I    between atoms: C1B_6  and  O1C_53 
REMARK       I    between atoms: O4G_7  and  C4F_62 
REMARK       I    between atoms: O4G_7  and  C50_15 
REMARK       I    between atoms: N5G_8  and  C5F_50 
REMARK       I    between atoms: N5G_8  and  S5H_47 
REMARK       I    between atoms: N1F_9  and  C1E_41 
REMARK       I    between atoms: N1F_9  and  S1G_48 
REMARK       I    between atoms: O3K_10  and  S3H_51 
REMARK       I    between atoms: C5N_11  and  O5M_87 
REMARK       I    between atoms: C21_12  and  C23_57 
REMARK       I    between atoms: C26_13  and  O27_73 
REMARK       I    between atoms: C49_16  and  O4A_21 
REMARK       I    between atoms: O2D_17  and  C2C_35 
REMARK       I    between atoms: O2D_17  and  C30_56 
REMARK       I    between atoms: O1L_18  and  C1K_89 
REMARK       I    between atoms: O1L_18  and  C20_27 
REMARK       I    between atoms: C46_20  and  O47_33 
REMARK       I    between atoms: O4A_21  and  S4B_39 
REMARK       I    between atoms: N3G_22  and  C3F_46 
REMARK       I    between atoms: N3G_22  and  S3H_51 
REMARK       I    between atoms: C40_25  and  O3M_29 
REMARK       I    between atoms: O5I_26  and  S5H_47 
REMARK       I    between atoms: C53_28  and  C51_66 
REMARK       I    between atoms: O3M_29  and  C3L_61 
REMARK       I    between atoms: S17_31  and  O16_86 
REMARK       I    between atoms: O5K_34  and  S5H_47 
REMARK       I    between atoms: O1J_37  and  S1G_48 
REMARK       I    between atoms: C12_38  and  O10_70 
REMARK       I    between atoms: C13_42  and  C15_63 
REMARK       I    between atoms: C29_43  and  O2A_60 
REMARK       I    between atoms: C31_45  and  C33_81 
REMARK       I    between atoms: S5H_47  and  O5J_49 
REMARK       I    between atoms: S1G_48  and  O1H_78 
REMARK       I    between atoms: S3H_51  and  O3J_68 
REMARK       I    between atoms: O3A_54  and  C39_85 
REMARK       I    between atoms: O3A_54  and  S3B_83 
REMARK       I    between atoms: C5L_55  and  O5M_87 
REMARK       I    between atoms: C15_63  and  O16_86 
REMARK       I    between atoms: C59_71  and  O5A_75 
REMARK       I    between atoms: C33_81  and  O34_91 
REMARK       I    between atoms: S35_82  and  O34_91 
ROOT
ATOM      1  O3I NTO d 869      57.874   0.004   9.945  0.00  0.00    -0.296 OA
ATOM      2  O1I NTO d 869      72.787  -2.680   5.868  0.00  0.00    -0.296 OA
ATOM      3  O54 NTO d 869      56.294   5.109   7.587  0.00  0.00    -0.254 OA
ATOM      4  O18 NTO d 869      73.102   2.395  12.546  0.00  0.00    -0.572 OA
ATOM      5  C41 NTO d 869      60.172   1.554   5.591  0.00  0.00     0.152 C 
ATOM      6  C1B NTO d 869      71.943  -3.594   9.830  0.00  0.00     0.083 C 
ATOM      7  O4G NTO d 869      57.550   3.283   4.793  0.00  0.00    -0.348 OA
ATOM      8  N5G NTO d 869      59.338   7.426   3.015  0.00  0.00    -0.210 NA
ATOM      9  N1F NTO d 869      71.019  -3.369   7.576  0.00  0.00    -0.210 NA
ATOM     10  O3K NTO d 869      58.842  -2.243  10.116  0.00  0.00    -0.296 OA
ATOM     11  C5N NTO d 869      55.681   8.651   3.188  0.00  0.00     0.007 C 
ATOM     12  C21 NTO d 869      67.257  -1.980   9.897  0.00  0.00     0.152 C 
ATOM     13  C26 NTO d 869      68.234  -1.427   7.710  0.00  0.00     0.092 C 
ATOM     14  O4E NTO d 869      54.227   0.350   4.439  0.00  0.00    -0.572 OA
ATOM     15  C50 NTO d 869      57.727   4.679   5.079  0.00  0.00     0.095 C 
ATOM     16  C49 NTO d 869      57.638   1.000   5.544  0.00  0.00     0.134 C 
ATOM     17  O2D NTO d 869      64.600  -0.458   7.923  0.00  0.00    -0.348 OA
ATOM     18  O1L NTO d 869      69.633  -2.085   9.618  0.00  0.00    -0.348 OA
ATOM     19  O19 NTO d 869      73.125   0.907  14.495  0.00  0.00    -0.572 OA
ATOM     20  C46 NTO d 869      58.381   0.053   6.488  0.00  0.00     0.094 C 
ATOM     21  O4A NTO d 869      56.228   0.794   5.650  0.00  0.00    -0.244 OA
ATOM     22  N3G NTO d 869      60.378  -0.205  10.429  0.00  0.00    -0.210 NA
ATOM     23  O36 NTO d 869      65.829  -4.486   6.534  0.00  0.00    -0.572 OA
ATOM     24  O57 NTO d 869      54.291   4.370   8.664  0.00  0.00    -0.572 OA
ATOM     25  C40 NTO d 869      59.885   0.237   6.299  0.00  0.00     0.103 C 
ATOM     26  O5I NTO d 869      61.686   7.971   3.852  0.00  0.00    -0.296 OA
ATOM     27  C20 NTO d 869      68.465  -1.354   9.218  0.00  0.00     0.103 C 
ATOM     28  C53 NTO d 869      55.611   4.814   6.368  0.00  0.00     0.067 C 
ATOM     29  O3M NTO d 869      60.492   0.240   7.597  0.00  0.00    -0.348 OA
ATOM     30  C43 NTO d 869      61.651   1.869   5.754  0.00  0.00     0.206 C 
ATOM     31  S17 NTO d 869      72.267   1.514  13.425  0.00  0.00     0.251 S 
ATOM     32  O45 NTO d 869      62.128   1.867   6.911  0.00  0.00    -0.646 OA
ATOM     33  O47 NTO d 869      58.026  -1.298   6.180  0.00  0.00    -0.390 OA
ATOM     34  O5K NTO d 869      60.529   9.625   2.458  0.00  0.00    -0.296 OA
ATOM     35  C2C NTO d 869      65.768  -1.254   8.183  0.00  0.00     0.160 C 
ATOM     36  O38 NTO d 869      63.849  -5.895   6.275  0.00  0.00    -0.572 OA
ATOM     37  O1J NTO d 869      71.397  -4.643   5.400  0.00  0.00    -0.296 OA
ATOM     38  C12 NTO d 869      72.519  -2.814  11.015  0.00  0.00     0.089 C 
ATOM     39  S4B NTO d 869      55.717   0.193   4.457  0.00  0.00     0.252 S 
ATOM     40  O4D NTO d 869      56.078  -1.262   4.431  0.00  0.00    -0.572 OA
ATOM     41  C1E NTO d 869      71.719  -2.650   8.648  0.00  0.00     0.081 C 
ATOM     42  C13 NTO d 869      71.671  -1.577  11.317  0.00  0.00     0.090 C 
ATOM     43  C29 NTO d 869      66.937  -0.690   7.371  0.00  0.00     0.110 C 
ATOM     44  O42 NTO d 869      59.382   2.610   6.164  0.00  0.00    -0.340 OA
ATOM     45  C31 NTO d 869      62.572  -1.361   7.003  0.00  0.00     0.091 C 
ATOM     46  C3F NTO d 869      61.205  -0.997   9.500  0.00  0.00     0.083 C 
ATOM     47  S5H NTO d 869      60.358   8.590   3.531  0.00  0.00     0.156 S 
ATOM     48  S1G NTO d 869      72.108  -3.873   6.474  0.00  0.00     0.156 S 
ATOM     49  O5J NTO d 869      59.804   9.251   4.757  0.00  0.00    -0.296 OA
ATOM     50  C5F NTO d 869      58.664   6.803   4.164  0.00  0.00     0.081 C 
ATOM     51  S3H NTO d 869      58.891  -0.844  10.653  0.00  0.00     0.156 S 
ATOM     52  O25 NTO d 869      68.198  -2.973  11.844  0.00  0.00    -0.646 OA
ATOM     53  O1C NTO d 869      72.852  -4.630   9.451  0.00  0.00    -0.391 OA
ATOM     54  O3A NTO d 869      63.273  -0.243  10.528  0.00  0.00    -0.247 OA
ATOM     55  C5L NTO d 869      57.292   7.448   4.368  0.00  0.00     0.149 C 
ATOM     56  C30 NTO d 869      63.385  -1.139   8.272  0.00  0.00     0.096 C 
ATOM     57  C23 NTO d 869      67.525  -2.016  11.394  0.00  0.00     0.206 C 
ATOM     58  O3E NTO d 869      64.105   1.932   9.933  0.00  0.00    -0.572 OA
ATOM     59  O14 NTO d 869      71.512  -0.766  10.141  0.00  0.00    -0.349 OA
ATOM     60  O2A NTO d 869      66.663  -0.831   5.976  0.00  0.00    -0.388 OA
ATOM     61  C3L NTO d 869      60.514  -1.088   8.140  0.00  0.00     0.150 C 
ATOM     62  C4F NTO d 869      57.983   2.454   5.880  0.00  0.00     0.161 C 
ATOM     63  C15 NTO d 869      72.394  -0.733  12.370  0.00  0.00     0.067 C 
ATOM     64  S55 NTO d 869      55.734   4.735   8.851  0.00  0.00     0.251 S 
ATOM     65  O58 NTO d 869      55.842   5.893   9.796  0.00  0.00    -0.572 OA
ATOM     66  C51 NTO d 869      56.382   5.383   5.174  0.00  0.00     0.091 C 
ATOM     67  O56 NTO d 869      56.473   3.556   9.412  0.00  0.00    -0.572 OA
ATOM     68  O3J NTO d 869      58.576  -0.882  12.119  0.00  0.00    -0.296 OA
ATOM     69  O44 NTO d 869      62.325   2.110   4.719  0.00  0.00    -0.646 OA
ATOM     70  O10 NTO d 869      72.521  -3.663  12.164  0.00  0.00    -0.390 OA
ATOM     71  C59 NTO d 869      58.523   5.298   3.931  0.00  0.00     0.083 C 
ATOM     72  O52 NTO d 869      56.549   6.791   5.407  0.00  0.00    -0.349 OA
ATOM     73  O27 NTO d 869      69.322  -0.805   7.019  0.00  0.00    -0.390 OA
ATOM     74  O1A NTO d 869      71.177   2.329  14.051  0.00  0.00    -0.572 OA
ATOM     75  O5A NTO d 869      59.820   4.694   3.904  0.00  0.00    -0.391 OA
ATOM     76  O37 NTO d 869      64.431  -4.261   4.539  0.00  0.00    -0.572 OA
ATOM     77  O24 NTO d 869      67.075  -1.081  12.098  0.00  0.00    -0.646 OA
ATOM     78  O1H NTO d 869      73.125  -4.749   7.144  0.00  0.00    -0.296 OA
ATOM     79  O22 NTO d 869      66.061  -1.242   9.590  0.00  0.00    -0.340 OA
ATOM     80  O3D NTO d 869      64.120   1.171  12.262  0.00  0.00    -0.572 OA
ATOM     81  C33 NTO d 869      63.356  -2.285   6.067  0.00  0.00     0.067 C 
ATOM     82  S35 NTO d 869      64.424  -4.535   6.014  0.00  0.00     0.251 S 
ATOM     83  S3B NTO d 869      63.375   1.118  10.961  0.00  0.00     0.252 S 
ATOM     84  O4C NTO d 869      56.300   0.881   3.257  0.00  0.00    -0.572 OA
ATOM     85  C39 NTO d 869      62.566  -0.333   9.286  0.00  0.00     0.108 C 
ATOM     86  O16 NTO d 869      71.678   0.475  12.635  0.00  0.00    -0.254 OA
ATOM     87  O5M NTO d 869      56.562   7.524   3.136  0.00  0.00    -0.364 OA
ATOM     88  O3C NTO d 869      62.004   1.691  11.161  0.00  0.00    -0.572 OA
ATOM     89  C1K NTO d 869      70.832  -1.490   9.104  0.00  0.00     0.150 C 
ATOM     90  O32 NTO d 869      61.291  -1.945   7.288  0.00  0.00    -0.349 OA
ATOM     91  O34 NTO d 869      63.622  -3.550   6.680  0.00  0.00    -0.254 OA
ATOM     92  H   NTO d 869      58.077   0.029   8.997  0.00  0.00     0.231 HD
ATOM     93  H   NTO d 869      72.126  -2.117   5.436  0.00  0.00     0.231 HD
ATOM     94  H   NTO d 869      59.921   1.471   4.554  0.00  0.00     0.104 H 
ATOM     95  H   NTO d 869      71.007  -4.028  10.114  0.00  0.00     0.089 H 
ATOM     96  H   NTO d 869      58.640   7.838   2.396  0.00  0.00     0.140 HD
ATOM     97  H   NTO d 869      70.346  -2.745   7.131  0.00  0.00     0.140 HD
ATOM     98  H   NTO d 869      59.044  -2.233   9.166  0.00  0.00     0.231 HD
ATOM     99  H   NTO d 869      55.132   8.716   2.272  0.00  0.00     0.066 H 
ATOM    100  H   NTO d 869      56.252   9.545   3.325  0.00  0.00     0.066 H 
ATOM    101  H   NTO d 869      55.000   8.534   4.005  0.00  0.00     0.066 H 
ATOM    102  H   NTO d 869      67.102  -2.977   9.539  0.00  0.00     0.104 H 
ATOM    103  H   NTO d 869      68.166  -2.452   7.409  0.00  0.00     0.091 H 
ATOM    104  H   NTO d 869      58.238   4.788   6.013  0.00  0.00     0.091 H 
ATOM    105  H   NTO d 869      57.942   0.794   4.539  0.00  0.00     0.097 H 
ATOM    106  H   NTO d 869      58.115   0.271   7.500  0.00  0.00     0.091 H 
ATOM    107  H   NTO d 869      60.274   0.737  10.052  0.00  0.00     0.140 HD
ATOM    108  H   NTO d 869      60.282  -0.555   5.700  0.00  0.00     0.092 H 
ATOM    109  H   NTO d 869      62.044   7.544   3.058  0.00  0.00     0.231 HD
ATOM    110  H   NTO d 869      68.605  -0.330   9.495  0.00  0.00     0.092 H 
ATOM    111  H   NTO d 869      54.634   5.251   6.397  0.00  0.00     0.080 H 
ATOM    112  H   NTO d 869      55.536   3.753   6.259  0.00  0.00     0.080 H 
ATOM    113  H   NTO d 869      58.268  -1.495   5.261  0.00  0.00     0.210 HD
ATOM    114  H   NTO d 869      60.888   9.207   1.659  0.00  0.00     0.231 HD
ATOM    115  H   NTO d 869      65.599  -2.269   7.891  0.00  0.00     0.133 H 
ATOM    116  H   NTO d 869      70.742  -4.070   4.972  0.00  0.00     0.231 HD
ATOM    117  H   NTO d 869      73.512  -2.499  10.771  0.00  0.00     0.091 H 
ATOM    118  H   NTO d 869      72.662  -2.287   8.295  0.00  0.00     0.076 H 
ATOM    119  H   NTO d 869      70.710  -1.899  11.660  0.00  0.00     0.090 H 
ATOM    120  H   NTO d 869      67.054   0.345   7.615  0.00  0.00     0.094 H 
ATOM    121  H   NTO d 869      62.403  -0.411   6.541  0.00  0.00     0.090 H 
ATOM    122  H   NTO d 869      61.336  -1.969   9.927  0.00  0.00     0.076 H 
ATOM    123  H   NTO d 869      59.690   8.589   5.457  0.00  0.00     0.231 HD
ATOM    124  H   NTO d 869      59.248   6.956   5.046  0.00  0.00     0.076 H 
ATOM    125  H   NTO d 869      73.701  -4.237   9.193  0.00  0.00     0.210 HD
ATOM    126  H   NTO d 869      57.449   8.454   4.696  0.00  0.00     0.131 H 
ATOM    127  H   NTO d 869      63.628  -2.077   8.726  0.00  0.00     0.091 H 
ATOM    128  H   NTO d 869      66.558  -1.771   5.760  0.00  0.00     0.210 HD
ATOM    129  H   NTO d 869      59.523  -1.482   8.223  0.00  0.00     0.131 H 
ATOM    130  H   NTO d 869      57.472   2.753   6.771  0.00  0.00     0.133 H 
ATOM    131  H   NTO d 869      73.372  -0.488  12.011  0.00  0.00     0.080 H 
ATOM    132  H   NTO d 869      72.460  -1.298  13.276  0.00  0.00     0.080 H 
ATOM    133  H   NTO d 869      55.861   5.230   4.252  0.00  0.00     0.090 H 
ATOM    134  H   NTO d 869      57.693  -1.261  12.250  0.00  0.00     0.231 HD
ATOM    135  H   NTO d 869      71.612  -3.936  12.366  0.00  0.00     0.210 HD
ATOM    136  H   NTO d 869      58.021   5.133   3.001  0.00  0.00     0.089 H 
ATOM    137  H   NTO d 869      69.388   0.125   7.289  0.00  0.00     0.210 HD
ATOM    138  H   NTO d 869      60.267   4.848   4.751  0.00  0.00     0.210 HD
ATOM    139  H   NTO d 869      73.580  -4.244   7.837  0.00  0.00     0.231 HD
ATOM    140  H   NTO d 869      64.285  -1.819   5.815  0.00  0.00     0.080 H 
ATOM    141  H   NTO d 869      62.765  -2.455   5.191  0.00  0.00     0.080 H 
ATOM    142  H   NTO d 869      62.415   0.656   8.905  0.00  0.00     0.092 H 
ATOM    143  H   NTO d 869      70.612  -0.810   8.308  0.00  0.00     0.131 H 
ENDROOT
TORSDOF 46
ENDMDL
MODEL 85
REMARK VINA RESULT:      -4.3      3.854     14.223
REMARK  0 active torsions:
REMARK  status: ('A' for Active; 'I' for Inactive)
REMARK       I    between atoms: O3I_1  and  S3H_51 
REMARK       I    between atoms: O1I_2  and  S1G_48 
REMARK       I    between atoms: O54_3  and  C53_28 
REMARK       I    between atoms: O54_3  and  S55_64 
REMARK       I    between atoms: C41_5  and  C43_30 
REMARK       I    between atoms: C1B_6  and  O1C_53 
REMARK       I    between atoms: O4G_7  and  C4F_62 
REMARK       I    between atoms: O4G_7  and  C50_15 
REMARK       I    between atoms: N5G_8  and  C5F_50 
REMARK       I    between atoms: N5G_8  and  S5H_47 
REMARK       I    between atoms: N1F_9  and  C1E_41 
REMARK       I    between atoms: N1F_9  and  S1G_48 
REMARK       I    between atoms: O3K_10  and  S3H_51 
REMARK       I    between atoms: C5N_11  and  O5M_87 
REMARK       I    between atoms: C21_12  and  C23_57 
REMARK       I    between atoms: C26_13  and  O27_73 
REMARK       I    between atoms: C49_16  and  O4A_21 
REMARK       I    between atoms: O2D_17  and  C2C_35 
REMARK       I    between atoms: O2D_17  and  C30_56 
REMARK       I    between atoms: O1L_18  and  C1K_89 
REMARK       I    between atoms: O1L_18  and  C20_27 
REMARK       I    between atoms: C46_20  and  O47_33 
REMARK       I    between atoms: O4A_21  and  S4B_39 
REMARK       I    between atoms: N3G_22  and  C3F_46 
REMARK       I    between atoms: N3G_22  and  S3H_51 
REMARK       I    between atoms: C40_25  and  O3M_29 
REMARK       I    between atoms: O5I_26  and  S5H_47 
REMARK       I    between atoms: C53_28  and  C51_66 
REMARK       I    between atoms: O3M_29  and  C3L_61 
REMARK       I    between atoms: S17_31  and  O16_86 
REMARK       I    between atoms: O5K_34  and  S5H_47 
REMARK       I    between atoms: O1J_37  and  S1G_48 
REMARK       I    between atoms: C12_38  and  O10_70 
REMARK       I    between atoms: C13_42  and  C15_63 
REMARK       I    between atoms: C29_43  and  O2A_60 
REMARK       I    between atoms: C31_45  and  C33_81 
REMARK       I    between atoms: S5H_47  and  O5J_49 
REMARK       I    between atoms: S1G_48  and  O1H_78 
REMARK       I    between atoms: S3H_51  and  O3J_68 
REMARK       I    between atoms: O3A_54  and  C39_85 
REMARK       I    between atoms: O3A_54  and  S3B_83 
REMARK       I    between atoms: C5L_55  and  O5M_87 
REMARK       I    between atoms: C15_63  and  O16_86 
REMARK       I    between atoms: C59_71  and  O5A_75 
REMARK       I    between atoms: C33_81  and  O34_91 
REMARK       I    between atoms: S35_82  and  O34_91 
ROOT
ATOM      1  O3I NTO d 869      68.188  -1.018   5.869  0.00  0.00    -0.296 OA
ATOM      2  O1I NTO d 869      67.074   3.803  20.760  0.00  0.00    -0.296 OA
ATOM      3  O54 NTO d 869      62.787  -2.219   3.996  0.00  0.00    -0.254 OA
ATOM      4  O18 NTO d 869      67.050  -4.585  21.046  0.00  0.00    -0.572 OA
ATOM      5  C41 NTO d 869      64.206   1.507   7.967  0.00  0.00     0.152 C 
ATOM      6  C1B NTO d 869      70.236   1.202  20.073  0.00  0.00     0.083 C 
ATOM      7  O4G NTO d 869      62.487   1.107   5.249  0.00  0.00    -0.348 OA
ATOM      8  N5G NTO d 869      58.024   0.014   6.800  0.00  0.00    -0.210 NA
ATOM      9  N1F NTO d 869      68.746   2.864  19.075  0.00  0.00    -0.210 NA
ATOM     10  O3K NTO d 869      70.028   0.201   6.940  0.00  0.00    -0.296 OA
ATOM     11  C5N NTO d 869      57.347  -0.852   3.099  0.00  0.00     0.007 C 
ATOM     12  C21 NTO d 869      69.241   0.188  15.324  0.00  0.00     0.152 C 
ATOM     13  C26 NTO d 869      67.429   1.594  16.212  0.00  0.00     0.092 C 
ATOM     14  O4E NTO d 869      64.783   3.172   2.050  0.00  0.00    -0.572 OA
ATOM     15  C50 NTO d 869      61.540   0.035   5.373  0.00  0.00     0.095 C 
ATOM     16  C49 NTO d 869      64.752   1.888   5.460  0.00  0.00     0.134 C 
ATOM     17  O2D NTO d 869      66.979   0.850  12.546  0.00  0.00    -0.348 OA
ATOM     18  O1L NTO d 869      69.031   0.466  17.693  0.00  0.00    -0.348 OA
ATOM     19  O19 NTO d 869      69.409  -5.239  21.192  0.00  0.00    -0.572 OA
ATOM     20  C46 NTO d 869      66.035   1.705   6.271  0.00  0.00     0.094 C 
ATOM     21  O4A NTO d 869      65.055   1.932   4.063  0.00  0.00    -0.244 OA
ATOM     22  N3G NTO d 869      68.514  -1.286   8.392  0.00  0.00    -0.210 NA
ATOM     23  O36 NTO d 869      69.280   4.387  13.911  0.00  0.00    -0.572 OA
ATOM     24  O57 NTO d 869      64.131  -2.624   2.060  0.00  0.00    -0.572 OA
ATOM     25  C40 NTO d 869      65.696   1.739   7.760  0.00  0.00     0.103 C 
ATOM     26  O5I NTO d 869      57.971  -0.990   9.144  0.00  0.00    -0.296 OA
ATOM     27  C20 NTO d 869      68.270   0.347  16.483  0.00  0.00     0.103 C 
ATOM     28  C53 NTO d 869      62.322  -1.067   3.291  0.00  0.00     0.067 C 
ATOM     29  O3M NTO d 869      66.445   0.702   8.403  0.00  0.00    -0.348 OA
ATOM     30  C43 NTO d 869      63.975   1.182   9.435  0.00  0.00     0.206 C 
ATOM     31  S17 NTO d 869      68.326  -4.751  20.277  0.00  0.00     0.251 S 
ATOM     32  O45 NTO d 869      64.650   0.259   9.946  0.00  0.00    -0.646 OA
ATOM     33  O47 NTO d 869      66.944   2.768   5.968  0.00  0.00    -0.390 OA
ATOM     34  O5K NTO d 869      55.875  -0.875   7.875  0.00  0.00    -0.296 OA
ATOM     35  C2C NTO d 869      67.708   1.120  13.755  0.00  0.00     0.160 C 
ATOM     36  O38 NTO d 869      70.350   5.451  11.988  0.00  0.00    -0.572 OA
ATOM     37  O1J NTO d 869      68.426   5.367  19.444  0.00  0.00    -0.296 OA
ATOM     38  C12 NTO d 869      70.301  -0.215  20.649  0.00  0.00     0.089 C 
ATOM     39  S4B NTO d 869      64.839   3.248   3.545  0.00  0.00     0.252 S 
ATOM     40  O4D NTO d 869      65.963   4.146   3.969  0.00  0.00    -0.572 OA
ATOM     41  C1E NTO d 869      68.784   1.573  19.773  0.00  0.00     0.081 C 
ATOM     42  C13 NTO d 869      69.544  -1.201  19.756  0.00  0.00     0.090 C 
ATOM     43  C29 NTO d 869      66.707   1.423  14.874  0.00  0.00     0.110 C 
ATOM     44  O42 NTO d 869      63.753   0.415   7.148  0.00  0.00    -0.340 OA
ATOM     45  C31 NTO d 869      67.250   2.135  10.534  0.00  0.00     0.091 C 
ATOM     46  C3F NTO d 869      68.539  -0.070   9.226  0.00  0.00     0.083 C 
ATOM     47  S5H NTO d 869      57.355  -1.104   7.782  0.00  0.00     0.156 S 
ATOM     48  S1G NTO d 869      68.425   4.044  20.152  0.00  0.00     0.156 S 
ATOM     49  O5J NTO d 869      57.599  -2.479   7.235  0.00  0.00    -0.296 OA
ATOM     50  C5F NTO d 869      59.248  -0.523   6.187  0.00  0.00     0.081 C 
ATOM     51  S3H NTO d 869      69.236  -1.073   6.942  0.00  0.00     0.156 S 
ATOM     52  O25 NTO d 869      71.156  -0.766  16.366  0.00  0.00    -0.646 OA
ATOM     53  O1C NTO d 869      70.784   2.126  21.016  0.00  0.00    -0.391 OA
ATOM     54  O3A NTO d 869      68.451  -1.351  11.288  0.00  0.00    -0.247 OA
ATOM     55  C5L NTO d 869      58.931  -1.071   4.794  0.00  0.00     0.149 C 
ATOM     56  C30 NTO d 869      67.796   0.988  11.373  0.00  0.00     0.096 C 
ATOM     57  C23 NTO d 869      70.160  -0.984  15.638  0.00  0.00     0.206 C 
ATOM     58  O3E NTO d 869      66.318  -2.194  12.005  0.00  0.00    -0.572 OA
ATOM     59  O14 NTO d 869      68.198  -0.754  19.528  0.00  0.00    -0.349 OA
ATOM     60  O2A NTO d 869      65.992   2.620  14.566  0.00  0.00    -0.388 OA
ATOM     61  C3L NTO d 869      67.828   1.071   8.501  0.00  0.00     0.150 C 
ATOM     62  C4F NTO d 869      63.780   0.740   5.750  0.00  0.00     0.161 C 
ATOM     63  C15 NTO d 869      69.469  -2.552  20.472  0.00  0.00     0.067 C 
ATOM     64  S55 NTO d 869      63.878  -2.998   3.490  0.00  0.00     0.251 S 
ATOM     65  O58 NTO d 869      63.521  -4.451   3.575  0.00  0.00    -0.572 OA
ATOM     66  C51 NTO d 869      61.109  -0.462   4.001  0.00  0.00     0.091 C 
ATOM     67  O56 NTO d 869      65.115  -2.735   4.297  0.00  0.00    -0.572 OA
ATOM     68  O3J NTO d 869      70.168  -2.217   6.672  0.00  0.00    -0.296 OA
ATOM     69  O44 NTO d 869      63.123   1.859  10.067  0.00  0.00    -0.646 OA
ATOM     70  O10 NTO d 869      71.670  -0.619  20.722  0.00  0.00    -0.390 OA
ATOM     71  C59 NTO d 869      60.313   0.572   6.107  0.00  0.00     0.083 C 
ATOM     72  O52 NTO d 869      60.120  -1.499   4.112  0.00  0.00    -0.349 OA
ATOM     73  O27 NTO d 869      66.460   1.765  17.250  0.00  0.00    -0.390 OA
ATOM     74  O1A NTO d 869      68.113  -5.739  19.171  0.00  0.00    -0.572 OA
ATOM     75  O5A NTO d 869      60.709   0.955   7.428  0.00  0.00    -0.391 OA
ATOM     76  O37 NTO d 869      67.971   5.845  12.446  0.00  0.00    -0.572 OA
ATOM     77  O24 NTO d 869      69.864  -2.109  15.168  0.00  0.00    -0.646 OA
ATOM     78  O1H NTO d 869      69.471   4.036  21.226  0.00  0.00    -0.296 OA
ATOM     79  O22 NTO d 869      68.531  -0.009  14.089  0.00  0.00    -0.340 OA
ATOM     80  O3D NTO d 869      68.328  -3.590  12.122  0.00  0.00    -0.572 OA
ATOM     81  C33 NTO d 869      67.379   3.437  11.330  0.00  0.00     0.067 C 
ATOM     82  S35 NTO d 869      69.080   4.836  12.494  0.00  0.00     0.251 S 
ATOM     83  S3B NTO d 869      67.624  -2.519  11.343  0.00  0.00     0.252 S 
ATOM     84  O4C NTO d 869      63.538   3.785   4.062  0.00  0.00    -0.572 OA
ATOM     85  C39 NTO d 869      67.810  -0.305  10.550  0.00  0.00     0.108 C 
ATOM     86  O16 NTO d 869      68.706  -3.491  19.711  0.00  0.00    -0.254 OA
ATOM     87  O5M NTO d 869      58.166  -0.133   4.027  0.00  0.00    -0.364 OA
ATOM     88  O3C NTO d 869      67.361  -3.020   9.954  0.00  0.00    -0.572 OA
ATOM     89  C1K NTO d 869      68.184   0.512  18.850  0.00  0.00     0.150 C 
ATOM     90  O32 NTO d 869      67.954   2.265   9.289  0.00  0.00    -0.349 OA
ATOM     91  O34 NTO d 869      68.741   3.713  11.670  0.00  0.00    -0.254 OA
ATOM     92  H   NTO d 869      67.586  -0.278   6.042  0.00  0.00     0.231 HD
ATOM     93  H   NTO d 869      66.400   3.810  20.062  0.00  0.00     0.231 HD
ATOM     94  H   NTO d 869      63.659   2.384   7.690  0.00  0.00     0.104 H 
ATOM     95  H   NTO d 869      70.803   1.241  19.166  0.00  0.00     0.089 H 
ATOM     96  H   NTO d 869      57.359   0.260   6.066  0.00  0.00     0.140 HD
ATOM     97  H   NTO d 869      68.017   2.845  18.362  0.00  0.00     0.140 HD
ATOM     98  H   NTO d 869      69.436   0.950   7.113  0.00  0.00     0.231 HD
ATOM     99  H   NTO d 869      56.771  -0.160   2.520  0.00  0.00     0.066 H 
ATOM    100  H   NTO d 869      56.689  -1.504   3.633  0.00  0.00     0.066 H 
ATOM    101  H   NTO d 869      57.970  -1.430   2.448  0.00  0.00     0.066 H 
ATOM    102  H   NTO d 869      69.826   1.076  15.204  0.00  0.00     0.104 H 
ATOM    103  H   NTO d 869      68.067   2.453  16.180  0.00  0.00     0.091 H 
ATOM    104  H   NTO d 869      61.989  -0.777   5.906  0.00  0.00     0.091 H 
ATOM    105  H   NTO d 869      64.293   2.812   5.743  0.00  0.00     0.097 H 
ATOM    106  H   NTO d 869      66.487   0.767   6.026  0.00  0.00     0.091 H 
ATOM    107  H   NTO d 869      67.542  -1.554   8.236  0.00  0.00     0.140 HD
ATOM    108  H   NTO d 869      65.944   2.694   8.173  0.00  0.00     0.092 H 
ATOM    109  H   NTO d 869      57.812  -0.101   9.497  0.00  0.00     0.231 HD
ATOM    110  H   NTO d 869      67.615  -0.493  16.586  0.00  0.00     0.092 H 
ATOM    111  H   NTO d 869      62.044  -1.351   2.298  0.00  0.00     0.080 H 
ATOM    112  H   NTO d 869      63.105  -0.339   3.260  0.00  0.00     0.080 H 
ATOM    113  H   NTO d 869      66.533   3.618   6.191  0.00  0.00     0.210 HD
ATOM    114  H   NTO d 869      55.706   0.013   8.228  0.00  0.00     0.231 HD
ATOM    115  H   NTO d 869      68.348   1.967  13.623  0.00  0.00     0.133 H 
ATOM    116  H   NTO d 869      67.747   5.364  18.752  0.00  0.00     0.231 HD
ATOM    117  H   NTO d 869      69.850  -0.215  21.619  0.00  0.00     0.091 H 
ATOM    118  H   NTO d 869      68.233   1.632  20.689  0.00  0.00     0.076 H 
ATOM    119  H   NTO d 869      70.058  -1.277  18.821  0.00  0.00     0.090 H 
ATOM    120  H   NTO d 869      66.025   0.602  14.952  0.00  0.00     0.094 H 
ATOM    121  H   NTO d 869      66.224   1.930  10.310  0.00  0.00     0.090 H 
ATOM    122  H   NTO d 869      69.564   0.177   9.413  0.00  0.00     0.076 H 
ATOM    123  H   NTO d 869      58.553  -2.636   7.171  0.00  0.00     0.231 HD
ATOM    124  H   NTO d 869      59.628  -1.321   6.790  0.00  0.00     0.076 H 
ATOM    125  H   NTO d 869      70.270   2.092  21.838  0.00  0.00     0.210 HD
ATOM    126  H   NTO d 869      58.320  -1.941   4.917  0.00  0.00     0.131 H 
ATOM    127  H   NTO d 869      68.804   1.192  11.671  0.00  0.00     0.091 H 
ATOM    128  H   NTO d 869      66.614   3.360  14.496  0.00  0.00     0.210 HD
ATOM    129  H   NTO d 869      68.244   1.247   7.530  0.00  0.00     0.131 H 
ATOM    130  H   NTO d 869      64.107  -0.149   5.253  0.00  0.00     0.133 H 
ATOM    131  H   NTO d 869      69.006  -2.418  21.427  0.00  0.00     0.080 H 
ATOM    132  H   NTO d 869      70.462  -2.933  20.589  0.00  0.00     0.080 H 
ATOM    133  H   NTO d 869      60.701   0.366   3.460  0.00  0.00     0.090 H 
ATOM    134  H   NTO d 869      70.596  -2.090   5.811  0.00  0.00     0.231 HD
ATOM    135  H   NTO d 869      72.057  -0.611  19.832  0.00  0.00     0.210 HD
ATOM    136  H   NTO d 869      59.909   1.415   5.585  0.00  0.00     0.089 H 
ATOM    137  H   NTO d 869      65.880   0.988  17.283  0.00  0.00     0.210 HD
ATOM    138  H   NTO d 869      61.073   0.185   7.891  0.00  0.00     0.210 HD
ATOM    139  H   NTO d 869      69.464   3.177  21.678  0.00  0.00     0.231 HD
ATOM    140  H   NTO d 869      66.806   3.353  12.230  0.00  0.00     0.080 H 
ATOM    141  H   NTO d 869      67.016   4.240  10.721  0.00  0.00     0.080 H 
ATOM    142  H   NTO d 869      66.802  -0.598  10.344  0.00  0.00     0.092 H 
ATOM    143  H   NTO d 869      67.173   0.736  18.576  0.00  0.00     0.131 H 
ENDROOT
TORSDOF 46
ENDMDL
MODEL 86
REMARK VINA RESULT:      -2.1      4.506     13.859
REMARK  0 active torsions:
REMARK  status: ('A' for Active; 'I' for Inactive)
REMARK       I    between atoms: O3I_1  and  S3H_51 
REMARK       I    between atoms: O1I_2  and  S1G_48 
REMARK       I    between atoms: O54_3  and  C53_28 
REMARK       I    between atoms: O54_3  and  S55_64 
REMARK       I    between atoms: C41_5  and  C43_30 
REMARK       I    between atoms: C1B_6  and  O1C_53 
REMARK       I    between atoms: O4G_7  and  C4F_62 
REMARK       I    between atoms: O4G_7  and  C50_15 
REMARK       I    between atoms: N5G_8  and  C5F_50 
REMARK       I    between atoms: N5G_8  and  S5H_47 
REMARK       I    between atoms: N1F_9  and  C1E_41 
REMARK       I    between atoms: N1F_9  and  S1G_48 
REMARK       I    between atoms: O3K_10  and  S3H_51 
REMARK       I    between atoms: C5N_11  and  O5M_87 
REMARK       I    between atoms: C21_12  and  C23_57 
REMARK       I    between atoms: C26_13  and  O27_73 
REMARK       I    between atoms: C49_16  and  O4A_21 
REMARK       I    between atoms: O2D_17  and  C2C_35 
REMARK       I    between atoms: O2D_17  and  C30_56 
REMARK       I    between atoms: O1L_18  and  C1K_89 
REMARK       I    between atoms: O1L_18  and  C20_27 
REMARK       I    between atoms: C46_20  and  O47_33 
REMARK       I    between atoms: O4A_21  and  S4B_39 
REMARK       I    between atoms: N3G_22  and  C3F_46 
REMARK       I    between atoms: N3G_22  and  S3H_51 
REMARK       I    between atoms: C40_25  and  O3M_29 
REMARK       I    between atoms: O5I_26  and  S5H_47 
REMARK       I    between atoms: C53_28  and  C51_66 
REMARK       I    between atoms: O3M_29  and  C3L_61 
REMARK       I    between atoms: S17_31  and  O16_86 
REMARK       I    between atoms: O5K_34  and  S5H_47 
REMARK       I    between atoms: O1J_37  and  S1G_48 
REMARK       I    between atoms: C12_38  and  O10_70 
REMARK       I    between atoms: C13_42  and  C15_63 
REMARK       I    between atoms: C29_43  and  O2A_60 
REMARK       I    between atoms: C31_45  and  C33_81 
REMARK       I    between atoms: S5H_47  and  O5J_49 
REMARK       I    between atoms: S1G_48  and  O1H_78 
REMARK       I    between atoms: S3H_51  and  O3J_68 
REMARK       I    between atoms: O3A_54  and  C39_85 
REMARK       I    between atoms: O3A_54  and  S3B_83 
REMARK       I    between atoms: C5L_55  and  O5M_87 
REMARK       I    between atoms: C15_63  and  O16_86 
REMARK       I    between atoms: C59_71  and  O5A_75 
REMARK       I    between atoms: C33_81  and  O34_91 
REMARK       I    between atoms: S35_82  and  O34_91 
ROOT
ATOM      1  O3I NTO d 869      61.559  -5.969   9.482  0.00  0.00    -0.296 OA
ATOM      2  O1I NTO d 869      70.003   7.245  10.041  0.00  0.00    -0.296 OA
ATOM      3  O54 NTO d 869      56.606  -4.776   6.626  0.00  0.00    -0.254 OA
ATOM      4  O18 NTO d 869      64.520   7.746  16.375  0.00  0.00    -0.572 OA
ATOM      5  C41 NTO d 869      61.565  -2.201   5.954  0.00  0.00     0.152 C 
ATOM      6  C1B NTO d 869      69.993   5.111  13.603  0.00  0.00     0.083 C 
ATOM      7  O4G NTO d 869      59.129  -3.643   4.374  0.00  0.00    -0.348 OA
ATOM      8  N5G NTO d 869      56.205   0.005   3.088  0.00  0.00    -0.210 NA
ATOM      9  N1F NTO d 869      69.761   4.970  11.173  0.00  0.00    -0.210 NA
ATOM     10  O3K NTO d 869      63.958  -6.027   9.991  0.00  0.00    -0.296 OA
ATOM     11  C5N NTO d 869      53.726  -2.800   2.145  0.00  0.00     0.007 C 
ATOM     12  C21 NTO d 869      66.797   1.574  12.247  0.00  0.00     0.152 C 
ATOM     13  C26 NTO d 869      66.943   3.223  10.429  0.00  0.00     0.092 C 
ATOM     14  O4E NTO d 869      60.677  -7.625   3.140  0.00  0.00    -0.572 OA
ATOM     15  C50 NTO d 869      57.868  -3.021   4.662  0.00  0.00     0.095 C 
ATOM     16  C49 NTO d 869      61.163  -4.644   5.181  0.00  0.00     0.134 C 
ATOM     17  O2D NTO d 869      64.702   0.328   9.539  0.00  0.00    -0.348 OA
ATOM     18  O1L NTO d 869      67.794   3.707  12.681  0.00  0.00    -0.348 OA
ATOM     19  O19 NTO d 869      65.630   6.682  18.285  0.00  0.00    -0.572 OA
ATOM     20  C46 NTO d 869      62.174  -4.600   6.327  0.00  0.00     0.094 C 
ATOM     21  O4A NTO d 869      60.826  -5.999   4.874  0.00  0.00    -0.244 OA
ATOM     22  N3G NTO d 869      62.593  -3.962  10.686  0.00  0.00    -0.210 NA
ATOM     23  O36 NTO d 869      69.052   0.219   8.683  0.00  0.00    -0.572 OA
ATOM     24  O57 NTO d 869      56.412  -7.114   7.087  0.00  0.00    -0.572 OA
ATOM     25  C40 NTO d 869      62.576  -3.149   6.583  0.00  0.00     0.103 C 
ATOM     26  O5I NTO d 869      56.438   2.074   4.562  0.00  0.00    -0.296 OA
ATOM     27  C20 NTO d 869      66.752   3.062  11.936  0.00  0.00     0.103 C 
ATOM     28  C53 NTO d 869      56.798  -5.176   5.268  0.00  0.00     0.067 C 
ATOM     29  O3M NTO d 869      62.615  -2.951   8.002  0.00  0.00    -0.348 OA
ATOM     30  C43 NTO d 869      61.787  -0.814   6.536  0.00  0.00     0.206 C 
ATOM     31  S17 NTO d 869      64.907   6.437  16.994  0.00  0.00     0.251 S 
ATOM     32  O45 NTO d 869      61.803  -0.694   7.783  0.00  0.00    -0.646 OA
ATOM     33  O47 NTO d 869      63.334  -5.356   5.965  0.00  0.00    -0.390 OA
ATOM     34  O5K NTO d 869      54.687   2.055   2.845  0.00  0.00    -0.296 OA
ATOM     35  C2C NTO d 869      65.824   0.985  10.152  0.00  0.00     0.160 C 
ATOM     36  O38 NTO d 869      69.669  -2.010   7.892  0.00  0.00    -0.572 OA
ATOM     37  O1J NTO d 869      71.372   5.378   9.239  0.00  0.00    -0.296 OA
ATOM     38  C12 NTO d 869      69.320   5.614  14.883  0.00  0.00     0.089 C 
ATOM     39  S4B NTO d 869      61.359  -6.372   3.599  0.00  0.00     0.252 S 
ATOM     40  O4D NTO d 869      62.835  -6.609   3.721  0.00  0.00    -0.572 OA
ATOM     41  C1E NTO d 869      69.204   5.587  12.383  0.00  0.00     0.081 C 
ATOM     42  C13 NTO d 869      67.830   5.263  14.889  0.00  0.00     0.090 C 
ATOM     43  C29 NTO d 869      65.840   2.449   9.704  0.00  0.00     0.110 C 
ATOM     44  O42 NTO d 869      60.225  -2.641   6.241  0.00  0.00    -0.340 OA
ATOM     45  C31 NTO d 869      64.926  -1.575   8.089  0.00  0.00     0.091 C 
ATOM     46  C3F NTO d 869      63.751  -3.294  10.063  0.00  0.00     0.083 C 
ATOM     47  S5H NTO d 869      55.431   1.223   3.848  0.00  0.00     0.156 S 
ATOM     48  S1G NTO d 869      70.773   6.025  10.453  0.00  0.00     0.156 S 
ATOM     49  O5J NTO d 869      54.452   0.669   4.840  0.00  0.00    -0.296 OA
ATOM     50  C5F NTO d 869      56.376  -1.132   4.004  0.00  0.00     0.081 C 
ATOM     51  S3H NTO d 869      62.612  -5.583  10.480  0.00  0.00     0.156 S 
ATOM     52  O25 NTO d 869      67.785   1.515  14.411  0.00  0.00    -0.646 OA
ATOM     53  O1C NTO d 869      71.330   5.613  13.537  0.00  0.00    -0.391 OA
ATOM     54  O3A NTO d 869      63.664  -1.442  11.632  0.00  0.00    -0.247 OA
ATOM     55  C5L NTO d 869      55.255  -2.149   3.779  0.00  0.00     0.149 C 
ATOM     56  C30 NTO d 869      64.842  -1.101   9.534  0.00  0.00     0.096 C 
ATOM     57  C23 NTO d 869      66.721   1.406  13.757  0.00  0.00     0.206 C 
ATOM     58  O3E NTO d 869      62.043   0.291  11.249  0.00  0.00    -0.572 OA
ATOM     59  O14 NTO d 869      67.188   5.744  13.697  0.00  0.00    -0.349 OA
ATOM     60  O2A NTO d 869      66.063   2.516   8.294  0.00  0.00    -0.388 OA
ATOM     61  C3L NTO d 869      63.772  -3.586   8.563  0.00  0.00     0.150 C 
ATOM     62  C4F NTO d 869      59.902  -3.864   5.563  0.00  0.00     0.161 C 
ATOM     63  C15 NTO d 869      67.169   5.956  16.084  0.00  0.00     0.067 C 
ATOM     64  S55 NTO d 869      56.574  -5.746   7.679  0.00  0.00     0.251 S 
ATOM     65  O58 NTO d 869      55.415  -5.449   8.582  0.00  0.00    -0.572 OA
ATOM     66  C51 NTO d 869      56.719  -3.963   4.339  0.00  0.00     0.091 C 
ATOM     67  O56 NTO d 869      57.850  -5.695   8.464  0.00  0.00    -0.572 OA
ATOM     68  O3J NTO d 869      62.331  -6.259  11.790  0.00  0.00    -0.296 OA
ATOM     69  O44 NTO d 869      61.953   0.145   5.739  0.00  0.00    -0.646 OA
ATOM     70  O10 NTO d 869      69.945   4.987  16.006  0.00  0.00    -0.390 OA
ATOM     71  C59 NTO d 869      57.745  -1.778   3.782  0.00  0.00     0.083 C 
ATOM     72  O52 NTO d 869      55.449  -3.332   4.572  0.00  0.00    -0.349 OA
ATOM     73  O27 NTO d 869      66.860   4.606  10.071  0.00  0.00    -0.390 OA
ATOM     74  O1A NTO d 869      63.674   5.625  17.250  0.00  0.00    -0.572 OA
ATOM     75  O5A NTO d 869      58.775  -0.857   4.154  0.00  0.00    -0.391 OA
ATOM     76  O37 NTO d 869      68.613  -0.410   6.360  0.00  0.00    -0.572 OA
ATOM     77  O24 NTO d 869      65.599   1.187  14.272  0.00  0.00    -0.646 OA
ATOM     78  O1H NTO d 869      71.856   6.411  11.415  0.00  0.00    -0.296 OA
ATOM     79  O22 NTO d 869      65.725   0.882  11.582  0.00  0.00    -0.340 OA
ATOM     80  O3D NTO d 869      62.429  -0.598  13.499  0.00  0.00    -0.572 OA
ATOM     81  C33 NTO d 869      66.192  -0.995   7.450  0.00  0.00     0.067 C 
ATOM     82  S35 NTO d 869      68.660  -0.908   7.774  0.00  0.00     0.251 S 
ATOM     83  S3B NTO d 869      62.388  -0.938  12.039  0.00  0.00     0.252 S 
ATOM     84  O4C NTO d 869      61.102  -5.277   2.606  0.00  0.00    -0.572 OA
ATOM     85  C39 NTO d 869      63.662  -1.778  10.240  0.00  0.00     0.108 C 
ATOM     86  O16 NTO d 869      65.760   5.720  16.094  0.00  0.00    -0.254 OA
ATOM     87  O5M NTO d 869      55.091  -2.443   2.386  0.00  0.00    -0.364 OA
ATOM     88  O3C NTO d 869      61.334  -1.981  11.811  0.00  0.00    -0.572 OA
ATOM     89  C1K NTO d 869      67.751   5.133  12.526  0.00  0.00     0.150 C 
ATOM     90  O32 NTO d 869      64.961  -3.008   8.001  0.00  0.00    -0.349 OA
ATOM     91  O34 NTO d 869      67.370  -1.409   8.148  0.00  0.00    -0.254 OA
ATOM     92  H   NTO d 869      61.741  -5.533   8.635  0.00  0.00     0.231 HD
ATOM     93  H   NTO d 869      69.304   6.991   9.418  0.00  0.00     0.231 HD
ATOM     94  H   NTO d 869      61.693  -2.185   4.892  0.00  0.00     0.104 H 
ATOM     95  H   NTO d 869      70.015   4.041  13.612  0.00  0.00     0.089 H 
ATOM     96  H   NTO d 869      55.657  -0.291   2.281  0.00  0.00     0.140 HD
ATOM     97  H   NTO d 869      69.004   4.732  10.532  0.00  0.00     0.140 HD
ATOM     98  H   NTO d 869      64.152  -5.597   9.143  0.00  0.00     0.231 HD
ATOM     99  H   NTO d 869      53.593  -3.022   1.107  0.00  0.00     0.066 H 
ATOM    100  H   NTO d 869      53.090  -1.985   2.420  0.00  0.00     0.066 H 
ATOM    101  H   NTO d 869      53.474  -3.661   2.729  0.00  0.00     0.066 H 
ATOM    102  H   NTO d 869      67.709   1.145  11.887  0.00  0.00     0.104 H 
ATOM    103  H   NTO d 869      67.904   2.844  10.149  0.00  0.00     0.091 H 
ATOM    104  H   NTO d 869      57.824  -2.770   5.701  0.00  0.00     0.091 H 
ATOM    105  H   NTO d 869      61.601  -4.193   4.315  0.00  0.00     0.097 H 
ATOM    106  H   NTO d 869      61.737  -5.015   7.210  0.00  0.00     0.091 H 
ATOM    107  H   NTO d 869      61.739  -3.590  10.269  0.00  0.00     0.140 HD
ATOM    108  H   NTO d 869      63.533  -2.949   6.149  0.00  0.00     0.092 H 
ATOM    109  H   NTO d 869      57.071   2.433   3.921  0.00  0.00     0.231 HD
ATOM    110  H   NTO d 869      65.820   3.509  12.214  0.00  0.00     0.092 H 
ATOM    111  H   NTO d 869      56.038  -5.879   4.997  0.00  0.00     0.080 H 
ATOM    112  H   NTO d 869      57.764  -5.625   5.171  0.00  0.00     0.080 H 
ATOM    113  H   NTO d 869      63.729  -4.979   5.164  0.00  0.00     0.210 HD
ATOM    114  H   NTO d 869      55.312   2.419   2.199  0.00  0.00     0.231 HD
ATOM    115  H   NTO d 869      66.739   0.519   9.851  0.00  0.00     0.133 H 
ATOM    116  H   NTO d 869      70.666   5.132   8.622  0.00  0.00     0.231 HD
ATOM    117  H   NTO d 869      69.423   6.677  14.933  0.00  0.00     0.091 H 
ATOM    118  H   NTO d 869      69.261   6.654  12.313  0.00  0.00     0.076 H 
ATOM    119  H   NTO d 869      67.731   4.199  14.944  0.00  0.00     0.090 H 
ATOM    120  H   NTO d 869      64.895   2.890   9.944  0.00  0.00     0.094 H 
ATOM    121  H   NTO d 869      64.053  -1.236   7.572  0.00  0.00     0.090 H 
ATOM    122  H   NTO d 869      64.636  -3.666  10.536  0.00  0.00     0.076 H 
ATOM    123  H   NTO d 869      54.923   0.130   5.493  0.00  0.00     0.231 HD
ATOM    124  H   NTO d 869      56.325  -0.786   5.015  0.00  0.00     0.076 H 
ATOM    125  H   NTO d 869      71.311   6.583  13.529  0.00  0.00     0.210 HD
ATOM    126  H   NTO d 869      54.340  -1.706   4.111  0.00  0.00     0.131 H 
ATOM    127  H   NTO d 869      65.732  -1.368  10.065  0.00  0.00     0.091 H 
ATOM    128  H   NTO d 869      66.921   2.116   8.083  0.00  0.00     0.210 HD
ATOM    129  H   NTO d 869      63.764  -4.637   8.362  0.00  0.00     0.131 H 
ATOM    130  H   NTO d 869      59.317  -4.433   6.257  0.00  0.00     0.133 H 
ATOM    131  H   NTO d 869      67.348   7.009  16.022  0.00  0.00     0.080 H 
ATOM    132  H   NTO d 869      67.589   5.559  16.985  0.00  0.00     0.080 H 
ATOM    133  H   NTO d 869      56.797  -4.243   3.309  0.00  0.00     0.090 H 
ATOM    134  H   NTO d 869      62.342  -7.220  11.667  0.00  0.00     0.231 HD
ATOM    135  H   NTO d 869      69.839   4.025  15.939  0.00  0.00     0.210 HD
ATOM    136  H   NTO d 869      57.843  -2.043   2.750  0.00  0.00     0.089 H 
ATOM    137  H   NTO d 869      65.989   4.953  10.323  0.00  0.00     0.210 HD
ATOM    138  H   NTO d 869      58.678  -0.624   5.090  0.00  0.00     0.210 HD
ATOM    139  H   NTO d 869      71.461   6.828  12.197  0.00  0.00     0.231 HD
ATOM    140  H   NTO d 869      66.133   0.073   7.469  0.00  0.00     0.080 H 
ATOM    141  H   NTO d 869      66.255  -1.356   6.444  0.00  0.00     0.080 H 
ATOM    142  H   NTO d 869      62.749  -1.429   9.804  0.00  0.00     0.092 H 
ATOM    143  H   NTO d 869      67.154   5.409  11.682  0.00  0.00     0.131 H 
ENDROOT
TORSDOF 46
ENDMDL
