MODEL 1
REMARK VINA RESULT:      -8.9      0.000      0.000
REMARK  0 active torsions:
REMARK  status: ('A' for Active; 'I' for Inactive)
REMARK       I    between atoms: C4_1  and  O4_32 
REMARK       I    between atoms: C2_2  and  N_17 
REMARK       I    between atoms: C4_3  and  O4_45 
REMARK       I    between atoms: C5_5  and  C6_20 
REMARK       I    between atoms: C5_7  and  C6_42 
REMARK       I    between atoms: C2_8  and  N_48 
REMARK       I    between atoms: O1_9  and  C1_58 
REMARK       I    between atoms: O1_9  and  C4_62 
REMARK       I    between atoms: C3_11  and  O3_46 
REMARK       I    between atoms: O1S_13  and  S1_14 
REMARK       I    between atoms: S1_14  and  N_48 
REMARK       I    between atoms: S1_14  and  O2S_39 
REMARK       I    between atoms: S1_14  and  O3S_16 
REMARK       I    between atoms: N_17  and  S1_64 
REMARK       I    between atoms: C1_18  and  O4_45 
REMARK       I    between atoms: C6_20  and  O6_41 
REMARK       I    between atoms: O1S_22  and  S1_64 
REMARK       I    between atoms: O3S_25  and  S1_64 
REMARK       I    between atoms: O1_26  and  C1_61 
REMARK       I    between atoms: S_27  and  O2_57 
REMARK       I    between atoms: O6_29  and  C6_42 
REMARK       I    between atoms: O6_29  and  S2_68 
REMARK       I    between atoms: C6_30  and  C5_54 
REMARK       I    between atoms: C1_31  and  O4_32 
REMARK       I    between atoms: C5_35  and  C6_36 
REMARK       I    between atoms: O3_37  and  C3_38 
REMARK       I    between atoms: C3_40  and  O3_44 
REMARK       I    between atoms: O6_41  and  S2_52 
REMARK       I    between atoms: S_43  and  O2_53 
REMARK       I    between atoms: O3_47  and  C3_69 
REMARK       I    between atoms: O2S_49  and  S1_64 
REMARK       I    between atoms: O2_53  and  C2_59 
REMARK       I    between atoms: O2_57  and  C2_65 
ROOT
ATOM      1  C4  SGN d 304      -3.495  -1.240  52.727  0.00  0.00     0.095 C 
ATOM      2  C2  SGN d 304      -5.606  -0.173  51.826  0.00  0.00     0.081 C 
ATOM      3  O5S SGN d 304      -2.116   2.252  55.631  0.00  0.00    -0.572 OA
ATOM      4  C5  SGN d 304      -4.231  -1.332  54.072  0.00  0.00     0.091 C 
ATOM      5  N   SGN d 304      -6.687  -0.424  50.876  0.00  0.00    -0.210 NA
ATOM      6  O4S SGN d 304      -0.804   0.449  56.418  0.00  0.00    -0.572 OA
ATOM      7  O1S SGN d 304      -8.125   1.727  50.465  0.00  0.00    -0.296 OA
ATOM      8  O3S SGN d 304      -6.126   1.625  49.275  0.00  0.00    -0.296 OA
ATOM      9  O1  SGN d 304      -7.205  -1.132  53.492  0.00  0.00    -0.369 OA
ATOM     10  O6  SGN d 304      -3.234  -0.137  55.852  0.00  0.00    -0.254 OA
ATOM     11  O4  SGN d 304      -2.608  -2.372  52.522  0.00  0.00    -0.348 OA
ATOM     12  O5  SGN d 304      -5.117  -0.201  54.224  0.00  0.00    -0.350 OA
ATOM     13  C3  SGN d 304      -4.592  -1.295  51.655  0.00  0.00     0.083 C 
ATOM     14  C6  SGN d 304      -3.324  -1.435  55.276  0.00  0.00     0.067 C 
ATOM     15  O3  SGN d 304      -4.005  -1.159  50.396  0.00  0.00    -0.391 OA
ATOM     16  O2S SGN d 304      -7.920   0.266  48.646  0.00  0.00    -0.296 OA
ATOM     17  C1  SGN d 304      -6.176  -0.161  53.255  0.00  0.00     0.147 C 
ATOM     18  S1  SGN d 304      -7.239   0.857  49.760  0.00  0.00     0.156 S 
ATOM     19  O6S SGN d 304      -1.397   0.612  54.115  0.00  0.00    -0.572 OA
ATOM     20  S2  SGN d 304      -1.816   0.850  55.476  0.00  0.00     0.251 S 
ATOM     21  H   SGN d 304      -2.902  -0.350  52.690  0.00  0.00     0.091 H 
ATOM     22  H   SGN d 304      -5.138   0.773  51.650  0.00  0.00     0.076 H 
ATOM     23  H   SGN d 304      -4.783  -2.248  54.042  0.00  0.00     0.090 H 
ATOM     24  H   SGN d 304      -7.500  -0.699  51.427  0.00  0.00     0.140 HD
ATOM     25  H   SGN d 304      -7.658   2.124  51.217  0.00  0.00     0.231 HD
ATOM     26  H   SGN d 304      -5.661   2.028  50.025  0.00  0.00     0.231 HD
ATOM     27  H   SGN d 304      -7.887  -1.054  52.807  0.00  0.00     0.212 HD
ATOM     28  H   SGN d 304      -5.097  -2.233  51.754  0.00  0.00     0.089 H 
ATOM     29  H   SGN d 304      -2.353  -1.770  54.975  0.00  0.00     0.080 H 
ATOM     30  H   SGN d 304      -3.712  -2.138  55.984  0.00  0.00     0.080 H 
ATOM     31  H   SGN d 304      -3.557  -0.301  50.338  0.00  0.00     0.210 HD
ATOM     32  H   SGN d 304      -8.673  -0.255  48.966  0.00  0.00     0.231 HD
ATOM     33  H   SGN d 304      -6.687   0.772  53.370  0.00  0.00     0.131 H 
ATOM     34  C4  SGN d 302       5.047  -0.876  51.684  0.00  0.00     0.095 C 
ATOM     35  C5  SGN d 302       3.845  -0.397  50.883  0.00  0.00     0.091 C 
ATOM     36  C2  SGN d 302       4.143  -3.122  51.696  0.00  0.00     0.081 C 
ATOM     37  O1  SGN d 302       1.845  -2.376  51.448  0.00  0.00    -0.348 OA
ATOM     38  C3  SGN d 302       4.646  -2.021  52.574  0.00  0.00     0.083 C 
ATOM     39  O1S SGN d 302       3.434  -6.639  53.102  0.00  0.00    -0.296 OA
ATOM     40  S1  SGN d 302       3.773  -5.747  52.007  0.00  0.00     0.156 S 
ATOM     41  O4S SGN d 302       6.457  -0.004  46.791  0.00  0.00    -0.572 OA
ATOM     42  O3S SGN d 302       2.938  -5.898  50.836  0.00  0.00    -0.296 OA
ATOM     43  C6  SGN d 302       4.246   0.687  49.918  0.00  0.00     0.067 C 
ATOM     44  O6S SGN d 302       4.598   1.393  47.020  0.00  0.00    -0.572 OA
ATOM     45  O5S SGN d 302       6.701   1.952  48.030  0.00  0.00    -0.572 OA
ATOM     46  O2S SGN d 302       5.157  -5.924  51.724  0.00  0.00    -0.296 OA
ATOM     47  O6  SGN d 302       5.261   0.088  49.121  0.00  0.00    -0.254 OA
ATOM     48  O4  SGN d 302       5.451   0.146  52.567  0.00  0.00    -0.348 OA
ATOM     49  O3  SGN d 302       5.794  -2.431  53.281  0.00  0.00    -0.391 OA
ATOM     50  N   SGN d 302       3.517  -4.092  52.541  0.00  0.00    -0.210 NA
ATOM     51  S2  SGN d 302       5.789   0.902  47.663  0.00  0.00     0.251 S 
ATOM     52  C1  SGN d 302       3.056  -2.617  50.779  0.00  0.00     0.150 C 
ATOM     53  O5  SGN d 302       3.473  -1.469  50.076  0.00  0.00    -0.349 OA
ATOM     54  H   SGN d 302       5.816  -1.155  50.994  0.00  0.00     0.091 H 
ATOM     55  H   SGN d 302       3.085  -0.046  51.550  0.00  0.00     0.090 H 
ATOM     56  H   SGN d 302       4.962  -3.512  51.129  0.00  0.00     0.076 H 
ATOM     57  H   SGN d 302       3.880  -1.748  53.269  0.00  0.00     0.089 H 
ATOM     58  H   SGN d 302       4.033  -6.479  53.847  0.00  0.00     0.231 HD
ATOM     59  H   SGN d 302       2.009  -5.769  51.082  0.00  0.00     0.231 HD
ATOM     60  H   SGN d 302       4.627   1.539  50.442  0.00  0.00     0.080 H 
ATOM     61  H   SGN d 302       3.422   1.041  49.334  0.00  0.00     0.080 H 
ATOM     62  H   SGN d 302       5.670  -5.813  52.540  0.00  0.00     0.231 HD
ATOM     63  H   SGN d 302       6.490  -2.679  52.652  0.00  0.00     0.210 HD
ATOM     64  H   SGN d 302       2.513  -3.909  52.556  0.00  0.00     0.140 HD
ATOM     65  H   SGN d 302       2.869  -3.400  50.075  0.00  0.00     0.131 H 
ATOM     66  O61 IDS d 303       0.825  -0.693  48.817  0.00  0.00    -0.646 OA
ATOM     67  O5  IDS d 303      -0.523  -1.226  52.046  0.00  0.00    -0.340 OA
ATOM     68  S   IDS d 303       0.616  -4.156  55.092  0.00  0.00     0.252 S 
ATOM     69  C1  IDS d 303      -1.210  -2.215  52.825  0.00  0.00     0.161 C 
ATOM     70  C5  IDS d 303      -0.266  -1.612  50.684  0.00  0.00     0.152 C 
ATOM     71  C6  IDS d 303       0.402  -0.470  49.965  0.00  0.00     0.206 C 
ATOM     72  O3  IDS d 303      -1.063  -4.422  50.617  0.00  0.00    -0.390 OA
ATOM     73  O2S IDS d 303       0.434  -5.580  54.926  0.00  0.00    -0.572 OA
ATOM     74  O62 IDS d 303       0.677   0.548  50.619  0.00  0.00    -0.646 OA
ATOM     75  O1S IDS d 303       1.829  -3.876  55.804  0.00  0.00    -0.572 OA
ATOM     76  O2  IDS d 303       0.734  -3.394  53.558  0.00  0.00    -0.244 OA
ATOM     77  C4  IDS d 303       0.696  -2.784  50.692  0.00  0.00     0.103 C 
ATOM     78  C2  IDS d 303      -0.401  -3.519  52.775  0.00  0.00     0.134 C 
ATOM     79  C3  IDS d 303       0.023  -3.964  51.374  0.00  0.00     0.094 C 
ATOM     80  O3S IDS d 303      -0.539  -3.706  55.756  0.00  0.00    -0.572 OA
ATOM     81  H   IDS d 303      -1.254  -1.869  53.837  0.00  0.00     0.133 H 
ATOM     82  H   IDS d 303      -1.185  -1.869  50.199  0.00  0.00     0.104 H 
ATOM     83  H   IDS d 303      -0.753  -4.694  49.739  0.00  0.00     0.210 HD
ATOM     84  H   IDS d 303       0.978  -3.070  49.700  0.00  0.00     0.092 H 
ATOM     85  H   IDS d 303      -1.064  -4.273  53.144  0.00  0.00     0.097 H 
ATOM     86  H   IDS d 303       0.701  -4.788  51.455  0.00  0.00     0.091 H 
ATOM     87  O1S UAP d 301       6.847   4.782  51.606  0.00  0.00    -0.572 OA
ATOM     88  O61 UAP d 301       9.289  -0.925  55.529  0.00  0.00    -0.642 OA
ATOM     89  C1  UAP d 301       6.643   0.835  52.257  0.00  0.00     0.167 C 
ATOM     90  O62 UAP d 301       9.696  -1.493  53.478  0.00  0.00    -0.642 OA
ATOM     91  O3S UAP d 301       7.084   4.989  53.892  0.00  0.00    -0.572 OA
ATOM     92  C6  UAP d 301       9.047  -0.868  54.321  0.00  0.00     0.233 C 
ATOM     93  O3  UAP d 301       5.332   1.325  55.079  0.00  0.00    -0.389 OA
ATOM     94  C3  UAP d 301       6.591   1.717  54.599  0.00  0.00     0.086 C 
ATOM     95  S   UAP d 301       7.696   4.465  52.702  0.00  0.00     0.252 S 
ATOM     96  O2  UAP d 301       7.784   2.735  52.823  0.00  0.00    -0.244 OA
ATOM     97  C5  UAP d 301       8.094  -0.045  53.931  0.00  0.00     0.147 C 
ATOM     98  O2S UAP d 301       9.037   4.957  52.491  0.00  0.00    -0.572 OA
ATOM     99  C2  UAP d 301       6.587   2.068  53.109  0.00  0.00     0.135 C 
ATOM    100  C4  UAP d 301       7.526   0.676  54.889  0.00  0.00    -0.034 C 
ATOM    101  O5  UAP d 301       7.820   0.101  52.613  0.00  0.00    -0.311 OA
ATOM    102  H   UAP d 301       6.705   1.017  51.204  0.00  0.00     0.134 H 
ATOM    103  H   UAP d 301       4.682   2.020  54.891  0.00  0.00     0.210 HD
ATOM    104  H   UAP d 301       6.876   2.620  55.097  0.00  0.00     0.093 H 
ATOM    105  H   UAP d 301       5.703   2.637  52.909  0.00  0.00     0.097 H 
ATOM    106  H   UAP d 301       7.767   0.479  55.873  0.00  0.00     0.085 H 
ENDROOT
TORSDOF 33
ENDMDL
MODEL 2
REMARK VINA RESULT:      -8.4      3.582      6.519
REMARK  0 active torsions:
REMARK  status: ('A' for Active; 'I' for Inactive)
REMARK       I    between atoms: C4_1  and  O4_32 
REMARK       I    between atoms: C2_2  and  N_17 
REMARK       I    between atoms: C4_3  and  O4_45 
REMARK       I    between atoms: C5_5  and  C6_20 
REMARK       I    between atoms: C5_7  and  C6_42 
REMARK       I    between atoms: C2_8  and  N_48 
REMARK       I    between atoms: O1_9  and  C1_58 
REMARK       I    between atoms: O1_9  and  C4_62 
REMARK       I    between atoms: C3_11  and  O3_46 
REMARK       I    between atoms: O1S_13  and  S1_14 
REMARK       I    between atoms: S1_14  and  N_48 
REMARK       I    between atoms: S1_14  and  O2S_39 
REMARK       I    between atoms: S1_14  and  O3S_16 
REMARK       I    between atoms: N_17  and  S1_64 
REMARK       I    between atoms: C1_18  and  O4_45 
REMARK       I    between atoms: C6_20  and  O6_41 
REMARK       I    between atoms: O1S_22  and  S1_64 
REMARK       I    between atoms: O3S_25  and  S1_64 
REMARK       I    between atoms: O1_26  and  C1_61 
REMARK       I    between atoms: S_27  and  O2_57 
REMARK       I    between atoms: O6_29  and  C6_42 
REMARK       I    between atoms: O6_29  and  S2_68 
REMARK       I    between atoms: C6_30  and  C5_54 
REMARK       I    between atoms: C1_31  and  O4_32 
REMARK       I    between atoms: C5_35  and  C6_36 
REMARK       I    between atoms: O3_37  and  C3_38 
REMARK       I    between atoms: C3_40  and  O3_44 
REMARK       I    between atoms: O6_41  and  S2_52 
REMARK       I    between atoms: S_43  and  O2_53 
REMARK       I    between atoms: O3_47  and  C3_69 
REMARK       I    between atoms: O2S_49  and  S1_64 
REMARK       I    between atoms: O2_53  and  C2_59 
REMARK       I    between atoms: O2_57  and  C2_65 
ROOT
ATOM      1  C4  SGN d 304       0.498  -4.289  51.999  0.00  0.00     0.095 C 
ATOM      2  C2  SGN d 304      -1.666  -5.522  52.445  0.00  0.00     0.081 C 
ATOM      3  O5S SGN d 304       2.293  -4.388  56.391  0.00  0.00    -0.572 OA
ATOM      4  C5  SGN d 304       1.204  -5.628  52.265  0.00  0.00     0.091 C 
ATOM      5  N   SGN d 304      -2.885  -5.956  51.767  0.00  0.00    -0.210 NA
ATOM      6  O4S SGN d 304       4.208  -3.826  55.120  0.00  0.00    -0.572 OA
ATOM      7  O1S SGN d 304      -4.688  -6.796  53.472  0.00  0.00    -0.296 OA
ATOM      8  O3S SGN d 304      -4.551  -4.485  53.227  0.00  0.00    -0.296 OA
ATOM      9  O1  SGN d 304      -0.860  -7.825  51.901  0.00  0.00    -0.369 OA
ATOM     10  O6  SGN d 304       2.706  -5.630  54.091  0.00  0.00    -0.254 OA
ATOM     11  O4  SGN d 304       1.185  -3.515  50.978  0.00  0.00    -0.348 OA
ATOM     12  O5  SGN d 304       0.476  -6.373  53.267  0.00  0.00    -0.350 OA
ATOM     13  C3  SGN d 304      -0.891  -4.658  51.461  0.00  0.00     0.083 C 
ATOM     14  C6  SGN d 304       2.653  -5.500  52.674  0.00  0.00     0.067 C 
ATOM     15  O3  SGN d 304      -1.621  -3.487  51.246  0.00  0.00    -0.391 OA
ATOM     16  O2S SGN d 304      -5.508  -5.774  51.530  0.00  0.00    -0.296 OA
ATOM     17  C1  SGN d 304      -0.846  -6.756  52.857  0.00  0.00     0.147 C 
ATOM     18  S1  SGN d 304      -4.484  -5.740  52.532  0.00  0.00     0.156 S 
ATOM     19  O6S SGN d 304       2.039  -3.104  54.444  0.00  0.00    -0.572 OA
ATOM     20  S2  SGN d 304       2.807  -4.158  55.063  0.00  0.00     0.251 S 
ATOM     21  H   SGN d 304       0.472  -3.700  52.891  0.00  0.00     0.091 H 
ATOM     22  H   SGN d 304      -1.886  -4.963  53.330  0.00  0.00     0.076 H 
ATOM     23  H   SGN d 304       1.208  -6.148  51.330  0.00  0.00     0.090 H 
ATOM     24  H   SGN d 304      -2.780  -6.956  51.591  0.00  0.00     0.140 HD
ATOM     25  H   SGN d 304      -3.993  -6.766  54.147  0.00  0.00     0.231 HD
ATOM     26  H   SGN d 304      -3.861  -4.455  53.908  0.00  0.00     0.231 HD
ATOM     27  H   SGN d 304      -1.776  -8.036  51.666  0.00  0.00     0.212 HD
ATOM     28  H   SGN d 304      -0.754  -5.208  50.554  0.00  0.00     0.089 H 
ATOM     29  H   SGN d 304       3.034  -4.545  52.380  0.00  0.00     0.080 H 
ATOM     30  H   SGN d 304       3.247  -6.255  52.202  0.00  0.00     0.080 H 
ATOM     31  H   SGN d 304      -1.728  -3.013  52.085  0.00  0.00     0.210 HD
ATOM     32  H   SGN d 304      -5.468  -6.620  51.056  0.00  0.00     0.231 HD
ATOM     33  H   SGN d 304      -1.339  -7.180  53.707  0.00  0.00     0.131 H 
ATOM     34  C4  SGN d 302       3.979   3.521  53.034  0.00  0.00     0.095 C 
ATOM     35  C5  SGN d 302       2.564   2.961  53.074  0.00  0.00     0.091 C 
ATOM     36  C2  SGN d 302       4.290   2.581  50.825  0.00  0.00     0.081 C 
ATOM     37  O1  SGN d 302       2.650   0.821  51.163  0.00  0.00    -0.348 OA
ATOM     38  C3  SGN d 302       4.861   2.627  52.205  0.00  0.00     0.083 C 
ATOM     39  O1S SGN d 302       6.229   0.976  47.907  0.00  0.00    -0.296 OA
ATOM     40  S1  SGN d 302       5.241   1.907  48.423  0.00  0.00     0.156 S 
ATOM     41  O4S SGN d 302       0.574   7.357  52.413  0.00  0.00    -0.572 OA
ATOM     42  O3S SGN d 302       3.942   1.806  47.795  0.00  0.00    -0.296 OA
ATOM     43  C6  SGN d 302       1.645   3.890  53.820  0.00  0.00     0.067 C 
ATOM     44  O6S SGN d 302      -0.687   5.767  53.571  0.00  0.00    -0.572 OA
ATOM     45  O5S SGN d 302       1.003   7.058  54.682  0.00  0.00    -0.572 OA
ATOM     46  O2S SGN d 302       5.796   3.214  48.333  0.00  0.00    -0.296 OA
ATOM     47  O6  SGN d 302       1.750   5.124  53.120  0.00  0.00    -0.254 OA
ATOM     48  O4  SGN d 302       4.531   3.476  54.331  0.00  0.00    -0.348 OA
ATOM     49  O3  SGN d 302       6.151   3.197  52.193  0.00  0.00    -0.391 OA
ATOM     50  N   SGN d 302       4.960   1.533  50.118  0.00  0.00    -0.210 NA
ATOM     51  S2  SGN d 302       0.602   6.400  53.467  0.00  0.00     0.251 S 
ATOM     52  C1  SGN d 302       2.835   2.181  50.864  0.00  0.00     0.150 C 
ATOM     53  O5  SGN d 302       2.107   2.991  51.758  0.00  0.00    -0.349 OA
ATOM     54  H   SGN d 302       3.932   4.515  52.639  0.00  0.00     0.091 H 
ATOM     55  H   SGN d 302       2.574   1.993  53.529  0.00  0.00     0.090 H 
ATOM     56  H   SGN d 302       4.403   3.544  50.372  0.00  0.00     0.076 H 
ATOM     57  H   SGN d 302       4.916   1.632  52.597  0.00  0.00     0.089 H 
ATOM     58  H   SGN d 302       7.069   1.104  48.375  0.00  0.00     0.231 HD
ATOM     59  H   SGN d 302       3.610   0.898  47.884  0.00  0.00     0.231 HD
ATOM     60  H   SGN d 302       1.961   4.001  54.836  0.00  0.00     0.080 H 
ATOM     61  H   SGN d 302       0.639   3.526  53.860  0.00  0.00     0.080 H 
ATOM     62  H   SGN d 302       6.663   3.228  48.768  0.00  0.00     0.231 HD
ATOM     63  H   SGN d 302       6.102   4.098  51.839  0.00  0.00     0.210 HD
ATOM     64  H   SGN d 302       4.389   0.689  50.172  0.00  0.00     0.140 HD
ATOM     65  H   SGN d 302       2.454   2.335  49.876  0.00  0.00     0.131 H 
ATOM     66  O61 IDS d 303      -0.517   1.469  51.750  0.00  0.00    -0.646 OA
ATOM     67  O5  IDS d 303       1.499  -1.412  52.148  0.00  0.00    -0.340 OA
ATOM     68  S   IDS d 303       5.479  -2.272  50.545  0.00  0.00     0.252 S 
ATOM     69  C1  IDS d 303       2.093  -2.478  51.395  0.00  0.00     0.161 C 
ATOM     70  C5  IDS d 303       0.696  -0.507  51.371  0.00  0.00     0.152 C 
ATOM     71  C6  IDS d 303       0.087   0.524  52.284  0.00  0.00     0.206 C 
ATOM     72  O3  IDS d 303       1.193  -1.357  48.620  0.00  0.00    -0.390 OA
ATOM     73  O2S IDS d 303       5.743  -2.445  49.135  0.00  0.00    -0.572 OA
ATOM     74  O62 IDS d 303       0.394   0.488  53.487  0.00  0.00    -0.646 OA
ATOM     75  O1S IDS d 303       6.570  -1.598  51.188  0.00  0.00    -0.572 OA
ATOM     76  O2  IDS d 303       4.078  -1.307  50.768  0.00  0.00    -0.244 OA
ATOM     77  C4  IDS d 303       1.602   0.216  50.393  0.00  0.00     0.103 C 
ATOM     78  C2  IDS d 303       2.918  -1.865  50.256  0.00  0.00     0.134 C 
ATOM     79  C3  IDS d 303       2.192  -0.802  49.429  0.00  0.00     0.094 C 
ATOM     80  O3S IDS d 303       5.248  -3.565  51.043  0.00  0.00    -0.572 OA
ATOM     81  H   IDS d 303       2.745  -3.022  52.046  0.00  0.00     0.133 H 
ATOM     82  H   IDS d 303      -0.072  -1.049  50.859  0.00  0.00     0.104 H 
ATOM     83  H   IDS d 303       0.758  -0.653  48.114  0.00  0.00     0.210 HD
ATOM     84  H   IDS d 303       1.069   0.955  49.833  0.00  0.00     0.092 H 
ATOM     85  H   IDS d 303       3.122  -2.678  49.591  0.00  0.00     0.097 H 
ATOM     86  H   IDS d 303       2.889  -0.332  48.767  0.00  0.00     0.091 H 
ATOM     87  O1S UAP d 301       2.913   5.512  58.526  0.00  0.00    -0.572 OA
ATOM     88  O61 UAP d 301       9.207   5.086  54.768  0.00  0.00    -0.642 OA
ATOM     89  C1  UAP d 301       4.669   4.700  55.019  0.00  0.00     0.167 C 
ATOM     90  O62 UAP d 301       8.004   6.468  53.610  0.00  0.00    -0.642 OA
ATOM     91  O3S UAP d 301       4.757   4.524  59.500  0.00  0.00    -0.572 OA
ATOM     92  C6  UAP d 301       8.115   5.521  54.394  0.00  0.00     0.233 C 
ATOM     93  O3  UAP d 301       6.035   2.140  56.246  0.00  0.00    -0.389 OA
ATOM     94  C3  UAP d 301       6.177   3.489  56.609  0.00  0.00     0.086 C 
ATOM     95  S   UAP d 301       4.320   5.629  58.693  0.00  0.00     0.252 S 
ATOM     96  O2  UAP d 301       5.053   5.510  57.123  0.00  0.00    -0.244 OA
ATOM     97  C5  UAP d 301       7.034   4.981  54.921  0.00  0.00     0.147 C 
ATOM     98  O2S UAP d 301       4.681   6.913  59.247  0.00  0.00    -0.572 OA
ATOM     99  C2  UAP d 301       4.886   4.297  56.447  0.00  0.00     0.135 C 
ATOM    100  C4  UAP d 301       7.245   4.050  55.843  0.00  0.00    -0.034 C 
ATOM    101  O5  UAP d 301       5.809   5.454  54.591  0.00  0.00    -0.311 OA
ATOM    102  H   UAP d 301       3.813   5.320  54.851  0.00  0.00     0.134 H 
ATOM    103  H   UAP d 301       5.313   1.741  56.757  0.00  0.00     0.210 HD
ATOM    104  H   UAP d 301       6.405   3.536  57.652  0.00  0.00     0.093 H 
ATOM    105  H   UAP d 301       4.077   3.695  56.807  0.00  0.00     0.097 H 
ATOM    106  H   UAP d 301       8.208   3.721  56.011  0.00  0.00     0.085 H 
ENDROOT
TORSDOF 33
ENDMDL
MODEL 3
REMARK VINA RESULT:      -8.4      3.390      7.005
REMARK  0 active torsions:
REMARK  status: ('A' for Active; 'I' for Inactive)
REMARK       I    between atoms: C4_1  and  O4_32 
REMARK       I    between atoms: C2_2  and  N_17 
REMARK       I    between atoms: C4_3  and  O4_45 
REMARK       I    between atoms: C5_5  and  C6_20 
REMARK       I    between atoms: C5_7  and  C6_42 
REMARK       I    between atoms: C2_8  and  N_48 
REMARK       I    between atoms: O1_9  and  C1_58 
REMARK       I    between atoms: O1_9  and  C4_62 
REMARK       I    between atoms: C3_11  and  O3_46 
REMARK       I    between atoms: O1S_13  and  S1_14 
REMARK       I    between atoms: S1_14  and  N_48 
REMARK       I    between atoms: S1_14  and  O2S_39 
REMARK       I    between atoms: S1_14  and  O3S_16 
REMARK       I    between atoms: N_17  and  S1_64 
REMARK       I    between atoms: C1_18  and  O4_45 
REMARK       I    between atoms: C6_20  and  O6_41 
REMARK       I    between atoms: O1S_22  and  S1_64 
REMARK       I    between atoms: O3S_25  and  S1_64 
REMARK       I    between atoms: O1_26  and  C1_61 
REMARK       I    between atoms: S_27  and  O2_57 
REMARK       I    between atoms: O6_29  and  C6_42 
REMARK       I    between atoms: O6_29  and  S2_68 
REMARK       I    between atoms: C6_30  and  C5_54 
REMARK       I    between atoms: C1_31  and  O4_32 
REMARK       I    between atoms: C5_35  and  C6_36 
REMARK       I    between atoms: O3_37  and  C3_38 
REMARK       I    between atoms: C3_40  and  O3_44 
REMARK       I    between atoms: O6_41  and  S2_52 
REMARK       I    between atoms: S_43  and  O2_53 
REMARK       I    between atoms: O3_47  and  C3_69 
REMARK       I    between atoms: O2S_49  and  S1_64 
REMARK       I    between atoms: O2_53  and  C2_59 
REMARK       I    between atoms: O2_57  and  C2_65 
ROOT
ATOM      1  C4  SGN d 304      -0.611   1.892  54.112  0.00  0.00     0.095 C 
ATOM      2  C2  SGN d 304      -1.619   3.038  56.132  0.00  0.00     0.081 C 
ATOM      3  O5S SGN d 304      -0.702  -2.576  55.709  0.00  0.00    -0.572 OA
ATOM      4  C5  SGN d 304      -1.999   1.268  53.895  0.00  0.00     0.091 C 
ATOM      5  N   SGN d 304      -1.965   4.368  56.627  0.00  0.00    -0.210 NA
ATOM      6  O4S SGN d 304      -0.372  -2.918  53.392  0.00  0.00    -0.572 OA
ATOM      7  O1S SGN d 304      -2.564   4.321  59.177  0.00  0.00    -0.296 OA
ATOM      8  O3S SGN d 304      -0.287   4.338  58.691  0.00  0.00    -0.296 OA
ATOM      9  O1  SGN d 304      -4.007   2.982  55.394  0.00  0.00    -0.369 OA
ATOM     10  O6  SGN d 304      -2.068  -1.094  53.994  0.00  0.00    -0.254 OA
ATOM     11  O4  SGN d 304       0.054   2.173  52.851  0.00  0.00    -0.348 OA
ATOM     12  O5  SGN d 304      -2.632   1.028  55.171  0.00  0.00    -0.350 OA
ATOM     13  C3  SGN d 304      -0.871   3.229  54.821  0.00  0.00     0.083 C 
ATOM     14  C6  SGN d 304      -1.990  -0.005  53.081  0.00  0.00     0.067 C 
ATOM     15  O3  SGN d 304       0.353   3.837  55.106  0.00  0.00    -0.391 OA
ATOM     16  O2S SGN d 304      -1.549   6.282  58.396  0.00  0.00    -0.296 OA
ATOM     17  C1  SGN d 304      -2.907   2.224  55.916  0.00  0.00     0.147 C 
ATOM     18  S1  SGN d 304      -1.570   4.853  58.300  0.00  0.00     0.156 S 
ATOM     19  O6S SGN d 304       0.522  -0.995  54.481  0.00  0.00    -0.572 OA
ATOM     20  S2  SGN d 304      -0.573  -1.934  54.424  0.00  0.00     0.251 S 
ATOM     21  H   SGN d 304       0.012   1.225  54.669  0.00  0.00     0.091 H 
ATOM     22  H   SGN d 304      -1.006   2.505  56.829  0.00  0.00     0.076 H 
ATOM     23  H   SGN d 304      -2.554   1.980  53.321  0.00  0.00     0.090 H 
ATOM     24  H   SGN d 304      -2.976   4.462  56.528  0.00  0.00     0.140 HD
ATOM     25  H   SGN d 304      -2.572   3.353  59.107  0.00  0.00     0.231 HD
ATOM     26  H   SGN d 304      -0.294   3.370  58.628  0.00  0.00     0.231 HD
ATOM     27  H   SGN d 304      -4.141   3.773  55.938  0.00  0.00     0.212 HD
ATOM     28  H   SGN d 304      -1.468   3.832  54.169  0.00  0.00     0.089 H 
ATOM     29  H   SGN d 304      -1.087  -0.069  52.511  0.00  0.00     0.080 H 
ATOM     30  H   SGN d 304      -2.815  -0.023  52.399  0.00  0.00     0.080 H 
ATOM     31  H   SGN d 304       0.868   3.267  55.698  0.00  0.00     0.210 HD
ATOM     32  H   SGN d 304      -2.413   6.637  58.133  0.00  0.00     0.231 HD
ATOM     33  H   SGN d 304      -3.248   1.932  56.887  0.00  0.00     0.131 H 
ATOM     34  C4  SGN d 302       6.876  -1.445  51.468  0.00  0.00     0.095 C 
ATOM     35  C5  SGN d 302       6.451  -0.516  52.598  0.00  0.00     0.091 C 
ATOM     36  C2  SGN d 302       5.823   0.028  49.862  0.00  0.00     0.081 C 
ATOM     37  O1  SGN d 302       4.238   0.922  51.470  0.00  0.00    -0.348 OA
ATOM     38  C3  SGN d 302       5.871  -1.383  50.350  0.00  0.00     0.083 C 
ATOM     39  O1S SGN d 302       3.928   0.969  46.640  0.00  0.00    -0.296 OA
ATOM     40  S1  SGN d 302       4.967   1.210  47.626  0.00  0.00     0.156 S 
ATOM     41  O4S SGN d 302      10.984   1.159  53.211  0.00  0.00    -0.572 OA
ATOM     42  O3S SGN d 302       4.962   2.546  48.182  0.00  0.00    -0.296 OA
ATOM     43  C6  SGN d 302       7.491  -0.492  53.686  0.00  0.00     0.067 C 
ATOM     44  O6S SGN d 302       9.566   1.183  55.068  0.00  0.00    -0.572 OA
ATOM     45  O5S SGN d 302      10.738  -0.810  54.429  0.00  0.00    -0.572 OA
ATOM     46  O2S SGN d 302       6.212   0.867  47.029  0.00  0.00    -0.296 OA
ATOM     47  O6  SGN d 302       8.681  -0.079  53.024  0.00  0.00    -0.254 OA
ATOM     48  O4  SGN d 302       6.831  -2.777  51.925  0.00  0.00    -0.348 OA
ATOM     49  O3  SGN d 302       6.317  -2.250  49.332  0.00  0.00    -0.391 OA
ATOM     50  N   SGN d 302       4.689   0.144  48.996  0.00  0.00    -0.210 NA
ATOM     51  S2  SGN d 302      10.072   0.384  53.983  0.00  0.00     0.251 S 
ATOM     52  C1  SGN d 302       5.561   0.979  51.005  0.00  0.00     0.150 C 
ATOM     53  O5  SGN d 302       6.471   0.769  52.060  0.00  0.00    -0.349 OA
ATOM     54  H   SGN d 302       7.853  -1.150  51.146  0.00  0.00     0.091 H 
ATOM     55  H   SGN d 302       5.506  -0.831  52.986  0.00  0.00     0.090 H 
ATOM     56  H   SGN d 302       6.752   0.260  49.384  0.00  0.00     0.076 H 
ATOM     57  H   SGN d 302       4.892  -1.680  50.665  0.00  0.00     0.089 H 
ATOM     58  H   SGN d 302       3.996   0.057  46.316  0.00  0.00     0.231 HD
ATOM     59  H   SGN d 302       4.094   2.729  48.574  0.00  0.00     0.231 HD
ATOM     60  H   SGN d 302       7.613  -1.464  54.115  0.00  0.00     0.080 H 
ATOM     61  H   SGN d 302       7.225   0.159  54.493  0.00  0.00     0.080 H 
ATOM     62  H   SGN d 302       6.163  -0.034  46.673  0.00  0.00     0.231 HD
ATOM     63  H   SGN d 302       7.204  -1.982  49.045  0.00  0.00     0.210 HD
ATOM     64  H   SGN d 302       3.905   0.510  49.536  0.00  0.00     0.140 HD
ATOM     65  H   SGN d 302       5.711   1.964  50.616  0.00  0.00     0.131 H 
ATOM     66  O61 IDS d 303       5.201   2.568  54.146  0.00  0.00    -0.646 OA
ATOM     67  O5  IDS d 303       2.163   1.023  53.193  0.00  0.00    -0.340 OA
ATOM     68  S   IDS d 303       0.873  -0.398  49.260  0.00  0.00     0.252 S 
ATOM     69  C1  IDS d 303       1.017   1.226  52.355  0.00  0.00     0.161 C 
ATOM     70  C5  IDS d 303       3.107   2.109  53.185  0.00  0.00     0.152 C 
ATOM     71  C6  IDS d 303       4.226   1.798  54.144  0.00  0.00     0.206 C 
ATOM     72  O3  IDS d 303       2.104   3.858  51.071  0.00  0.00    -0.390 OA
ATOM     73  O2S IDS d 303       0.619   0.485  48.144  0.00  0.00    -0.572 OA
ATOM     74  O62 IDS d 303       4.210   0.697  54.719  0.00  0.00    -0.646 OA
ATOM     75  O1S IDS d 303       1.467  -1.625  48.814  0.00  0.00    -0.572 OA
ATOM     76  O2  IDS d 303       1.972   0.336  50.355  0.00  0.00    -0.244 OA
ATOM     77  C4  IDS d 303       3.703   2.213  51.794  0.00  0.00     0.103 C 
ATOM     78  C2  IDS d 303       1.504   1.507  50.928  0.00  0.00     0.134 C 
ATOM     79  C3  IDS d 303       2.597   2.573  50.815  0.00  0.00     0.094 C 
ATOM     80  O3S IDS d 303      -0.373  -0.575  49.887  0.00  0.00    -0.572 OA
ATOM     81  H   IDS d 303       0.441   0.323  52.357  0.00  0.00     0.133 H 
ATOM     82  H   IDS d 303       2.619   3.018  53.466  0.00  0.00     0.104 H 
ATOM     83  H   IDS d 303       2.825   4.502  50.990  0.00  0.00     0.210 HD
ATOM     84  H   IDS d 303       4.466   2.962  51.747  0.00  0.00     0.092 H 
ATOM     85  H   IDS d 303       0.650   1.894  50.413  0.00  0.00     0.097 H 
ATOM     86  H   IDS d 303       2.972   2.589  49.813  0.00  0.00     0.091 H 
ATOM     87  O1S UAP d 301       9.175  -4.899  55.716  0.00  0.00    -0.572 OA
ATOM     88  O61 UAP d 301       8.015  -6.264  48.595  0.00  0.00    -0.642 OA
ATOM     89  C1  UAP d 301       8.064  -3.423  52.162  0.00  0.00     0.167 C 
ATOM     90  O62 UAP d 301       9.455  -4.645  48.584  0.00  0.00    -0.642 OA
ATOM     91  O3S UAP d 301       8.060  -6.820  55.090  0.00  0.00    -0.572 OA
ATOM     92  C6  UAP d 301       8.535  -5.273  49.114  0.00  0.00     0.233 C 
ATOM     93  O3  UAP d 301       5.439  -5.164  52.211  0.00  0.00    -0.389 OA
ATOM     94  C3  UAP d 301       6.782  -5.572  52.217  0.00  0.00     0.086 C 
ATOM     95  S   UAP d 301       9.168  -5.963  54.772  0.00  0.00     0.252 S 
ATOM     96  O2  UAP d 301       8.919  -5.275  53.197  0.00  0.00    -0.244 OA
ATOM     97  C5  UAP d 301       8.119  -4.931  50.317  0.00  0.00     0.147 C 
ATOM     98  O2S UAP d 301      10.434  -6.658  54.749  0.00  0.00    -0.572 OA
ATOM     99  C2  UAP d 301       7.699  -4.620  52.989  0.00  0.00     0.135 C 
ATOM    100  C4  UAP d 301       7.210  -5.728  50.863  0.00  0.00    -0.034 C 
ATOM    101  O5  UAP d 301       8.690  -3.885  50.961  0.00  0.00    -0.311 OA
ATOM    102  H   UAP d 301       8.753  -2.749  52.625  0.00  0.00     0.134 H 
ATOM    103  H   UAP d 301       5.130  -5.053  53.124  0.00  0.00     0.210 HD
ATOM    104  H   UAP d 301       6.850  -6.505  52.736  0.00  0.00     0.093 H 
ATOM    105  H   UAP d 301       7.191  -4.331  53.886  0.00  0.00     0.097 H 
ATOM    106  H   UAP d 301       6.800  -6.484  50.292  0.00  0.00     0.085 H 
ENDROOT
TORSDOF 33
ENDMDL
MODEL 4
REMARK VINA RESULT:      -8.4      3.228      6.340
REMARK  0 active torsions:
REMARK  status: ('A' for Active; 'I' for Inactive)
REMARK       I    between atoms: C4_1  and  O4_32 
REMARK       I    between atoms: C2_2  and  N_17 
REMARK       I    between atoms: C4_3  and  O4_45 
REMARK       I    between atoms: C5_5  and  C6_20 
REMARK       I    between atoms: C5_7  and  C6_42 
REMARK       I    between atoms: C2_8  and  N_48 
REMARK       I    between atoms: O1_9  and  C1_58 
REMARK       I    between atoms: O1_9  and  C4_62 
REMARK       I    between atoms: C3_11  and  O3_46 
REMARK       I    between atoms: O1S_13  and  S1_14 
REMARK       I    between atoms: S1_14  and  N_48 
REMARK       I    between atoms: S1_14  and  O2S_39 
REMARK       I    between atoms: S1_14  and  O3S_16 
REMARK       I    between atoms: N_17  and  S1_64 
REMARK       I    between atoms: C1_18  and  O4_45 
REMARK       I    between atoms: C6_20  and  O6_41 
REMARK       I    between atoms: O1S_22  and  S1_64 
REMARK       I    between atoms: O3S_25  and  S1_64 
REMARK       I    between atoms: O1_26  and  C1_61 
REMARK       I    between atoms: S_27  and  O2_57 
REMARK       I    between atoms: O6_29  and  C6_42 
REMARK       I    between atoms: O6_29  and  S2_68 
REMARK       I    between atoms: C6_30  and  C5_54 
REMARK       I    between atoms: C1_31  and  O4_32 
REMARK       I    between atoms: C5_35  and  C6_36 
REMARK       I    between atoms: O3_37  and  C3_38 
REMARK       I    between atoms: C3_40  and  O3_44 
REMARK       I    between atoms: O6_41  and  S2_52 
REMARK       I    between atoms: S_43  and  O2_53 
REMARK       I    between atoms: O3_47  and  C3_69 
REMARK       I    between atoms: O2S_49  and  S1_64 
REMARK       I    between atoms: O2_53  and  C2_59 
REMARK       I    between atoms: O2_57  and  C2_65 
ROOT
ATOM      1  C4  SGN d 304      -1.423   2.353  53.531  0.00  0.00     0.095 C 
ATOM      2  C2  SGN d 304      -2.814   3.681  55.177  0.00  0.00     0.081 C 
ATOM      3  O5S SGN d 304      -0.897  -1.616  56.079  0.00  0.00    -0.572 OA
ATOM      4  C5  SGN d 304      -2.651   1.443  53.375  0.00  0.00     0.091 C 
ATOM      5  N   SGN d 304      -3.435   4.993  55.339  0.00  0.00    -0.210 NA
ATOM      6  O4S SGN d 304      -0.279  -2.364  53.923  0.00  0.00    -0.572 OA
ATOM      7  O1S SGN d 304      -4.272   5.366  57.793  0.00  0.00    -0.296 OA
ATOM      8  O3S SGN d 304      -1.995   5.717  57.456  0.00  0.00    -0.296 OA
ATOM      9  O1  SGN d 304      -5.069   3.015  54.326  0.00  0.00    -0.369 OA
ATOM     10  O6  SGN d 304      -2.319  -0.814  53.996  0.00  0.00    -0.254 OA
ATOM     11  O4  SGN d 304      -0.692   2.487  52.282  0.00  0.00    -0.348 OA
ATOM     12  O5  SGN d 304      -3.360   1.358  54.631  0.00  0.00    -0.350 OA
ATOM     13  C3  SGN d 304      -1.981   3.733  53.905  0.00  0.00     0.083 C 
ATOM     14  C6  SGN d 304      -2.340   0.054  52.868  0.00  0.00     0.067 C 
ATOM     15  O3  SGN d 304      -0.917   4.611  54.121  0.00  0.00    -0.391 OA
ATOM     16  O2S SGN d 304      -3.539   7.278  56.657  0.00  0.00    -0.296 OA
ATOM     17  C1  SGN d 304      -3.912   2.608  55.071  0.00  0.00     0.147 C 
ATOM     18  S1  SGN d 304      -3.302   5.883  56.883  0.00  0.00     0.156 S 
ATOM     19  O6S SGN d 304       0.151  -0.121  54.606  0.00  0.00    -0.572 OA
ATOM     20  S2  SGN d 304      -0.753  -1.244  54.693  0.00  0.00     0.251 S 
ATOM     21  H   SGN d 304      -0.753   1.949  54.260  0.00  0.00     0.091 H 
ATOM     22  H   SGN d 304      -2.193   3.433  56.012  0.00  0.00     0.076 H 
ATOM     23  H   SGN d 304      -3.261   1.899  52.623  0.00  0.00     0.090 H 
ATOM     24  H   SGN d 304      -4.431   4.869  55.161  0.00  0.00     0.140 HD
ATOM     25  H   SGN d 304      -4.105   4.422  57.942  0.00  0.00     0.231 HD
ATOM     26  H   SGN d 304      -1.828   4.774  57.611  0.00  0.00     0.231 HD
ATOM     27  H   SGN d 304      -5.393   3.862  54.669  0.00  0.00     0.212 HD
ATOM     28  H   SGN d 304      -2.605   4.062  53.099  0.00  0.00     0.089 H 
ATOM     29  H   SGN d 304      -1.386   0.047  52.384  0.00  0.00     0.080 H 
ATOM     30  H   SGN d 304      -3.075  -0.264  52.159  0.00  0.00     0.080 H 
ATOM     31  H   SGN d 304      -0.373   4.286  54.855  0.00  0.00     0.210 HD
ATOM     32  H   SGN d 304      -4.420   7.398  56.269  0.00  0.00     0.231 HD
ATOM     33  H   SGN d 304      -4.295   2.465  56.060  0.00  0.00     0.131 H 
ATOM     34  C4  SGN d 302       6.759   0.036  52.165  0.00  0.00     0.095 C 
ATOM     35  C5  SGN d 302       6.067   1.082  53.029  0.00  0.00     0.091 C 
ATOM     36  C2  SGN d 302       5.635   0.911  50.207  0.00  0.00     0.081 C 
ATOM     37  O1  SGN d 302       3.764   1.801  51.475  0.00  0.00    -0.348 OA
ATOM     38  C3  SGN d 302       5.877  -0.331  51.002  0.00  0.00     0.083 C 
ATOM     39  O1S SGN d 302       3.943   0.777  46.747  0.00  0.00    -0.296 OA
ATOM     40  S1  SGN d 302       4.818   1.414  47.716  0.00  0.00     0.156 S 
ATOM     41  O4S SGN d 302      10.154   3.685  53.528  0.00  0.00    -0.572 OA
ATOM     42  O3S SGN d 302       4.525   2.810  47.957  0.00  0.00    -0.296 OA
ATOM     43  C6  SGN d 302       6.971   1.531  54.146  0.00  0.00     0.067 C 
ATOM     44  O6S SGN d 302       8.572   3.824  55.242  0.00  0.00    -0.572 OA
ATOM     45  O5S SGN d 302      10.131   2.004  55.139  0.00  0.00    -0.572 OA
ATOM     46  O2S SGN d 302       6.159   1.199  47.288  0.00  0.00    -0.296 OA
ATOM     47  O6  SGN d 302       8.132   2.017  53.482  0.00  0.00    -0.254 OA
ATOM     48  O4  SGN d 302       6.900  -1.155  52.905  0.00  0.00    -0.348 OA
ATOM     49  O3  SGN d 302       6.569  -1.289  50.233  0.00  0.00    -0.391 OA
ATOM     50  N   SGN d 302       4.592   0.625  49.270  0.00  0.00    -0.210 NA
ATOM     51  S2  SGN d 302       9.317   2.928  54.396  0.00  0.00     0.251 S 
ATOM     52  C1  SGN d 302       5.098   2.011  51.090  0.00  0.00     0.150 C 
ATOM     53  O5  SGN d 302       5.918   2.206  52.220  0.00  0.00    -0.349 OA
ATOM     54  H   SGN d 302       7.698   0.439  51.845  0.00  0.00     0.091 H 
ATOM     55  H   SGN d 302       5.157   0.679  53.420  0.00  0.00     0.090 H 
ATOM     56  H   SGN d 302       6.553   1.212  49.748  0.00  0.00     0.076 H 
ATOM     57  H   SGN d 302       4.938  -0.738  51.315  0.00  0.00     0.089 H 
ATOM     58  H   SGN d 302       4.200  -0.151  46.640  0.00  0.00     0.231 HD
ATOM     59  H   SGN d 302       3.603   2.901  48.244  0.00  0.00     0.231 HD
ATOM     60  H   SGN d 302       7.216   0.712  54.789  0.00  0.00     0.080 H 
ATOM     61  H   SGN d 302       6.515   2.273  54.768  0.00  0.00     0.080 H 
ATOM     62  H   SGN d 302       6.303   0.251  47.141  0.00  0.00     0.231 HD
ATOM     63  H   SGN d 302       7.420  -0.922  49.948  0.00  0.00     0.210 HD
ATOM     64  H   SGN d 302       3.706   0.938  49.666  0.00  0.00     0.140 HD
ATOM     65  H   SGN d 302       5.112   2.904  50.500  0.00  0.00     0.131 H 
ATOM     66  O61 IDS d 303       4.150   4.123  53.768  0.00  0.00    -0.646 OA
ATOM     67  O5  IDS d 303       1.539   1.860  53.001  0.00  0.00    -0.340 OA
ATOM     68  S   IDS d 303       0.921  -0.572  49.415  0.00  0.00     0.252 S 
ATOM     69  C1  IDS d 303       0.466   1.659  52.071  0.00  0.00     0.161 C 
ATOM     70  C5  IDS d 303       2.276   3.080  52.808  0.00  0.00     0.152 C 
ATOM     71  C6  IDS d 303       3.328   3.197  53.879  0.00  0.00     0.206 C 
ATOM     72  O3  IDS d 303       1.205   4.124  50.299  0.00  0.00    -0.390 OA
ATOM     73  O2S IDS d 303       0.633  -0.007  48.117  0.00  0.00    -0.572 OA
ATOM     74  O62 IDS d 303       3.446   2.259  54.683  0.00  0.00    -0.646 OA
ATOM     75  O1S IDS d 303       1.762  -1.727  49.293  0.00  0.00    -0.572 OA
ATOM     76  O2  IDS d 303       1.760   0.572  50.383  0.00  0.00    -0.244 OA
ATOM     77  C4  IDS d 303       2.983   3.004  51.468  0.00  0.00     0.103 C 
ATOM     78  C2  IDS d 303       1.040   1.725  50.649  0.00  0.00     0.134 C 
ATOM     79  C3  IDS d 303       1.936   2.932  50.367  0.00  0.00     0.094 C 
ATOM     80  O3S IDS d 303      -0.331  -0.849  49.989  0.00  0.00    -0.572 OA
ATOM     81  H   IDS d 303       0.059   0.684  52.240  0.00  0.00     0.133 H 
ATOM     82  H   IDS d 303       1.611   3.917  52.847  0.00  0.00     0.104 H 
ATOM     83  H   IDS d 303       1.807   4.863  50.119  0.00  0.00     0.210 HD
ATOM     84  H   IDS d 303       3.604   3.858  51.301  0.00  0.00     0.092 H 
ATOM     85  H   IDS d 303       0.188   1.824  50.009  0.00  0.00     0.097 H 
ATOM     86  H   IDS d 303       2.403   2.810  49.412  0.00  0.00     0.091 H 
ATOM     87  O1S UAP d 301       9.180  -1.949  57.210  0.00  0.00    -0.572 OA
ATOM     88  O61 UAP d 301       9.004  -4.967  50.519  0.00  0.00    -0.642 OA
ATOM     89  C1  UAP d 301       8.196  -1.488  53.356  0.00  0.00     0.167 C 
ATOM     90  O62 UAP d 301      10.135  -3.140  50.234  0.00  0.00    -0.642 OA
ATOM     91  O3S UAP d 301       8.485  -4.135  56.964  0.00  0.00    -0.572 OA
ATOM     92  C6  UAP d 301       9.288  -3.809  50.834  0.00  0.00     0.233 C 
ATOM     93  O3  UAP d 301       5.922  -3.651  53.632  0.00  0.00    -0.389 OA
ATOM     94  C3  UAP d 301       7.308  -3.784  53.812  0.00  0.00     0.086 C 
ATOM     95  S   UAP d 301       9.454  -3.167  56.530  0.00  0.00     0.252 S 
ATOM     96  O2  UAP d 301       9.250  -2.884  54.829  0.00  0.00    -0.244 OA
ATOM     97  C5  UAP d 301       8.699  -3.309  51.902  0.00  0.00     0.147 C 
ATOM     98  O2S UAP d 301      10.817  -3.595  56.741  0.00  0.00    -0.572 OA
ATOM     99  C2  UAP d 301       7.963  -2.533  54.406  0.00  0.00     0.135 C 
ATOM    100  C4  UAP d 301       7.892  -4.134  52.556  0.00  0.00    -0.034 C 
ATOM    101  O5  UAP d 301       9.012  -2.062  52.329  0.00  0.00    -0.311 OA
ATOM    102  H   UAP d 301       8.707  -0.612  53.697  0.00  0.00     0.134 H 
ATOM    103  H   UAP d 301       5.508  -3.412  54.477  0.00  0.00     0.210 HD
ATOM    104  H   UAP d 301       7.484  -4.556  54.530  0.00  0.00     0.093 H 
ATOM    105  H   UAP d 301       7.324  -2.166  55.182  0.00  0.00     0.097 H 
ATOM    106  H   UAP d 301       7.680  -5.056  52.145  0.00  0.00     0.085 H 
ENDROOT
TORSDOF 33
ENDMDL
MODEL 5
REMARK VINA RESULT:      -7.5      3.155      6.466
REMARK  0 active torsions:
REMARK  status: ('A' for Active; 'I' for Inactive)
REMARK       I    between atoms: C4_1  and  O4_32 
REMARK       I    between atoms: C2_2  and  N_17 
REMARK       I    between atoms: C4_3  and  O4_45 
REMARK       I    between atoms: C5_5  and  C6_20 
REMARK       I    between atoms: C5_7  and  C6_42 
REMARK       I    between atoms: C2_8  and  N_48 
REMARK       I    between atoms: O1_9  and  C1_58 
REMARK       I    between atoms: O1_9  and  C4_62 
REMARK       I    between atoms: C3_11  and  O3_46 
REMARK       I    between atoms: O1S_13  and  S1_14 
REMARK       I    between atoms: S1_14  and  N_48 
REMARK       I    between atoms: S1_14  and  O2S_39 
REMARK       I    between atoms: S1_14  and  O3S_16 
REMARK       I    between atoms: N_17  and  S1_64 
REMARK       I    between atoms: C1_18  and  O4_45 
REMARK       I    between atoms: C6_20  and  O6_41 
REMARK       I    between atoms: O1S_22  and  S1_64 
REMARK       I    between atoms: O3S_25  and  S1_64 
REMARK       I    between atoms: O1_26  and  C1_61 
REMARK       I    between atoms: S_27  and  O2_57 
REMARK       I    between atoms: O6_29  and  C6_42 
REMARK       I    between atoms: O6_29  and  S2_68 
REMARK       I    between atoms: C6_30  and  C5_54 
REMARK       I    between atoms: C1_31  and  O4_32 
REMARK       I    between atoms: C5_35  and  C6_36 
REMARK       I    between atoms: O3_37  and  C3_38 
REMARK       I    between atoms: C3_40  and  O3_44 
REMARK       I    between atoms: O6_41  and  S2_52 
REMARK       I    between atoms: S_43  and  O2_53 
REMARK       I    between atoms: O3_47  and  C3_69 
REMARK       I    between atoms: O2S_49  and  S1_64 
REMARK       I    between atoms: O2_53  and  C2_59 
REMARK       I    between atoms: O2_57  and  C2_65 
ROOT
ATOM      1  C4  SGN d 304      -1.178   1.116  54.134  0.00  0.00     0.095 C 
ATOM      2  C2  SGN d 304      -2.489   2.102  56.062  0.00  0.00     0.081 C 
ATOM      3  O5S SGN d 304      -0.324  -3.175  55.973  0.00  0.00    -0.572 OA
ATOM      4  C5  SGN d 304      -2.382   0.185  53.918  0.00  0.00     0.091 C 
ATOM      5  N   SGN d 304      -3.141   3.342  56.474  0.00  0.00    -0.210 NA
ATOM      6  O4S SGN d 304       0.157  -3.546  53.687  0.00  0.00    -0.572 OA
ATOM      7  O1S SGN d 304      -3.806   3.285  59.007  0.00  0.00    -0.296 OA
ATOM      8  O3S SGN d 304      -1.575   3.791  58.577  0.00  0.00    -0.296 OA
ATOM      9  O1  SGN d 304      -4.776   1.474  55.271  0.00  0.00    -0.369 OA
ATOM     10  O6  SGN d 304      -1.925  -2.123  54.146  0.00  0.00    -0.254 OA
ATOM     11  O4  SGN d 304      -0.547   1.478  52.876  0.00  0.00    -0.348 OA
ATOM     12  O5  SGN d 304      -2.991  -0.129  55.190  0.00  0.00    -0.350 OA
ATOM     13  C3  SGN d 304      -1.755   2.392  54.761  0.00  0.00     0.083 C 
ATOM     14  C6  SGN d 304      -2.060  -1.091  53.176  0.00  0.00     0.067 C 
ATOM     15  O3  SGN d 304      -0.710   3.274  55.042  0.00  0.00    -0.391 OA
ATOM     16  O2S SGN d 304      -3.228   5.384  58.144  0.00  0.00    -0.296 OA
ATOM     17  C1  SGN d 304      -3.553   1.010  55.861  0.00  0.00     0.147 C 
ATOM     18  S1  SGN d 304      -2.925   3.984  58.127  0.00  0.00     0.156 S 
ATOM     19  O6S SGN d 304       0.558  -1.420  54.690  0.00  0.00    -0.572 OA
ATOM     20  S2  SGN d 304      -0.297  -2.584  54.658  0.00  0.00     0.251 S 
ATOM     21  H   SGN d 304      -0.442   0.634  54.742  0.00  0.00     0.091 H 
ATOM     22  H   SGN d 304      -1.798   1.755  56.802  0.00  0.00     0.076 H 
ATOM     23  H   SGN d 304      -3.061   0.725  53.292  0.00  0.00     0.090 H 
ATOM     24  H   SGN d 304      -4.143   3.201  56.346  0.00  0.00     0.140 HD
ATOM     25  H   SGN d 304      -3.595   2.338  58.991  0.00  0.00     0.231 HD
ATOM     26  H   SGN d 304      -1.363   2.844  58.567  0.00  0.00     0.231 HD
ATOM     27  H   SGN d 304      -5.103   2.240  55.766  0.00  0.00     0.212 HD
ATOM     28  H   SGN d 304      -2.448   2.814  54.063  0.00  0.00     0.089 H 
ATOM     29  H   SGN d 304      -1.145  -0.978  52.633  0.00  0.00     0.080 H 
ATOM     30  H   SGN d 304      -2.834  -1.328  52.477  0.00  0.00     0.080 H 
ATOM     31  H   SGN d 304      -0.101   2.864  55.676  0.00  0.00     0.210 HD
ATOM     32  H   SGN d 304      -4.139   5.522  57.841  0.00  0.00     0.231 HD
ATOM     33  H   SGN d 304      -3.855   0.695  56.838  0.00  0.00     0.131 H 
ATOM     34  C4  SGN d 302       6.956  -0.573  51.862  0.00  0.00     0.095 C 
ATOM     35  C5  SGN d 302       6.294   0.290  52.928  0.00  0.00     0.091 C 
ATOM     36  C2  SGN d 302       5.659   0.545  50.151  0.00  0.00     0.081 C 
ATOM     37  O1  SGN d 302       3.858   1.136  51.669  0.00  0.00    -0.348 OA
ATOM     38  C3  SGN d 302       6.004  -0.794  50.718  0.00  0.00     0.083 C 
ATOM     39  O1S SGN d 302       3.720   0.877  46.837  0.00  0.00    -0.296 OA
ATOM     40  S1  SGN d 302       4.642   1.394  47.834  0.00  0.00     0.156 S 
ATOM     41  O4S SGN d 302      10.312   2.970  53.558  0.00  0.00    -0.572 OA
ATOM     42  O3S SGN d 302       4.319   2.719  48.314  0.00  0.00    -0.296 OA
ATOM     43  C6  SGN d 302       7.262   0.600  54.038  0.00  0.00     0.067 C 
ATOM     44  O6S SGN d 302       8.859   2.765  55.375  0.00  0.00    -0.572 OA
ATOM     45  O5S SGN d 302      10.469   1.058  54.877  0.00  0.00    -0.572 OA
ATOM     46  O2S SGN d 302       5.954   1.311  47.287  0.00  0.00    -0.296 OA
ATOM     47  O6  SGN d 302       8.353   1.238  53.383  0.00  0.00    -0.254 OA
ATOM     48  O4  SGN d 302       7.194  -1.858  52.391  0.00  0.00    -0.348 OA
ATOM     49  O3  SGN d 302       6.669  -1.586  49.760  0.00  0.00    -0.391 OA
ATOM     50  N   SGN d 302       4.560   0.361  49.253  0.00  0.00    -0.210 NA
ATOM     51  S2  SGN d 302       9.569   2.048  54.348  0.00  0.00     0.251 S 
ATOM     52  C1  SGN d 302       5.151   1.466  51.233  0.00  0.00     0.150 C 
ATOM     53  O5  SGN d 302       6.046   1.519  52.321  0.00  0.00    -0.349 OA
ATOM     54  H   SGN d 302       7.854  -0.082  51.548  0.00  0.00     0.091 H 
ATOM     55  H   SGN d 302       5.430  -0.211  53.310  0.00  0.00     0.090 H 
ATOM     56  H   SGN d 302       6.529   0.957  49.685  0.00  0.00     0.076 H 
ATOM     57  H   SGN d 302       5.106  -1.288  51.025  0.00  0.00     0.089 H 
ATOM     58  H   SGN d 302       4.002  -0.010  46.566  0.00  0.00     0.231 HD
ATOM     59  H   SGN d 302       3.418   2.721  48.674  0.00  0.00     0.231 HD
ATOM     60  H   SGN d 302       7.583  -0.297  54.523  0.00  0.00     0.080 H 
ATOM     61  H   SGN d 302       6.828   1.213  54.801  0.00  0.00     0.080 H 
ATOM     62  H   SGN d 302       6.120   0.406  46.981  0.00  0.00     0.231 HD
ATOM     63  H   SGN d 302       7.484  -1.140  49.482  0.00  0.00     0.210 HD
ATOM     64  H   SGN d 302       3.695   0.566  49.753  0.00  0.00     0.140 HD
ATOM     65  H   SGN d 302       5.090   2.440  50.794  0.00  0.00     0.131 H 
ATOM     66  O61 IDS d 303       4.331   3.085  54.272  0.00  0.00    -0.646 OA
ATOM     67  O5  IDS d 303       1.752   0.850  53.333  0.00  0.00    -0.340 OA
ATOM     68  S   IDS d 303       0.955  -1.014  49.454  0.00  0.00     0.252 S 
ATOM     69  C1  IDS d 303       0.621   0.749  52.457  0.00  0.00     0.161 C 
ATOM     70  C5  IDS d 303       2.429   2.119  53.287  0.00  0.00     0.152 C 
ATOM     71  C6  IDS d 303       3.553   2.115  54.289  0.00  0.00     0.206 C 
ATOM     72  O3  IDS d 303       1.137   3.493  51.056  0.00  0.00    -0.390 OA
ATOM     73  O2S IDS d 303       0.551  -0.266  48.285  0.00  0.00    -0.572 OA
ATOM     74  O62 IDS d 303       3.764   1.069  54.923  0.00  0.00    -0.646 OA
ATOM     75  O1S IDS d 303       1.824  -2.095  49.092  0.00  0.00    -0.572 OA
ATOM     76  O2  IDS d 303       1.822   0.001  50.533  0.00  0.00    -0.244 OA
ATOM     77  C4  IDS d 303       3.036   2.288  51.908  0.00  0.00     0.103 C 
ATOM     78  C2  IDS d 303       1.084   1.063  51.028  0.00  0.00     0.134 C 
ATOM     79  C3  IDS d 303       1.914   2.341  50.883  0.00  0.00     0.094 C 
ATOM     80  O3S IDS d 303      -0.241  -1.436  50.060  0.00  0.00    -0.572 OA
ATOM     81  H   IDS d 303       0.261  -0.259  52.495  0.00  0.00     0.133 H 
ATOM     82  H   IDS d 303       1.740   2.908  53.505  0.00  0.00     0.104 H 
ATOM     83  H   IDS d 303       1.698   4.278  50.957  0.00  0.00     0.210 HD
ATOM     84  H   IDS d 303       3.613   3.186  51.837  0.00  0.00     0.092 H 
ATOM     85  H   IDS d 303       0.184   1.222  50.472  0.00  0.00     0.097 H 
ATOM     86  H   IDS d 303       2.312   2.392  49.891  0.00  0.00     0.091 H 
ATOM     87  O1S UAP d 301       9.815  -3.211  56.349  0.00  0.00    -0.572 OA
ATOM     88  O61 UAP d 301       9.247  -5.145  49.288  0.00  0.00    -0.642 OA
ATOM     89  C1  UAP d 301       8.531  -2.197  52.694  0.00  0.00     0.167 C 
ATOM     90  O62 UAP d 301      10.289  -3.246  49.224  0.00  0.00    -0.642 OA
ATOM     91  O3S UAP d 301       9.181  -5.361  55.804  0.00  0.00    -0.572 OA
ATOM     92  C6  UAP d 301       9.513  -4.039  49.765  0.00  0.00     0.233 C 
ATOM     93  O3  UAP d 301       6.362  -4.480  52.775  0.00  0.00    -0.389 OA
ATOM     94  C3  UAP d 301       7.761  -4.575  52.836  0.00  0.00     0.086 C 
ATOM     95  S   UAP d 301      10.080  -4.293  55.466  0.00  0.00     0.252 S 
ATOM     96  O2  UAP d 301       9.740  -3.756  53.850  0.00  0.00    -0.244 OA
ATOM     97  C5  UAP d 301       8.988  -3.741  50.937  0.00  0.00     0.147 C 
ATOM     98  O2S UAP d 301      11.469  -4.685  55.512  0.00  0.00    -0.572 OA
ATOM     99  C2  UAP d 301       8.414  -3.403  53.576  0.00  0.00     0.135 C 
ATOM    100  C4  UAP d 301       8.262  -4.696  51.503  0.00  0.00    -0.034 C 
ATOM    101  O5  UAP d 301       9.288  -2.564  51.535  0.00  0.00    -0.311 OA
ATOM    102  H   UAP d 301       9.035  -1.363  53.135  0.00  0.00     0.134 H 
ATOM    103  H   UAP d 301       6.003  -4.397  53.672  0.00  0.00     0.210 HD
ATOM    104  H   UAP d 301       8.017  -5.441  53.408  0.00  0.00     0.093 H 
ATOM    105  H   UAP d 301       7.821  -3.194  54.443  0.00  0.00     0.097 H 
ATOM    106  H   UAP d 301       8.052  -5.551  50.965  0.00  0.00     0.085 H 
ENDROOT
TORSDOF 33
ENDMDL
MODEL 6
REMARK VINA RESULT:      -7.5      1.894      2.322
REMARK  0 active torsions:
REMARK  status: ('A' for Active; 'I' for Inactive)
REMARK       I    between atoms: C4_1  and  O4_32 
REMARK       I    between atoms: C2_2  and  N_17 
REMARK       I    between atoms: C4_3  and  O4_45 
REMARK       I    between atoms: C5_5  and  C6_20 
REMARK       I    between atoms: C5_7  and  C6_42 
REMARK       I    between atoms: C2_8  and  N_48 
REMARK       I    between atoms: O1_9  and  C1_58 
REMARK       I    between atoms: O1_9  and  C4_62 
REMARK       I    between atoms: C3_11  and  O3_46 
REMARK       I    between atoms: O1S_13  and  S1_14 
REMARK       I    between atoms: S1_14  and  N_48 
REMARK       I    between atoms: S1_14  and  O2S_39 
REMARK       I    between atoms: S1_14  and  O3S_16 
REMARK       I    between atoms: N_17  and  S1_64 
REMARK       I    between atoms: C1_18  and  O4_45 
REMARK       I    between atoms: C6_20  and  O6_41 
REMARK       I    between atoms: O1S_22  and  S1_64 
REMARK       I    between atoms: O3S_25  and  S1_64 
REMARK       I    between atoms: O1_26  and  C1_61 
REMARK       I    between atoms: S_27  and  O2_57 
REMARK       I    between atoms: O6_29  and  C6_42 
REMARK       I    between atoms: O6_29  and  S2_68 
REMARK       I    between atoms: C6_30  and  C5_54 
REMARK       I    between atoms: C1_31  and  O4_32 
REMARK       I    between atoms: C5_35  and  C6_36 
REMARK       I    between atoms: O3_37  and  C3_38 
REMARK       I    between atoms: C3_40  and  O3_44 
REMARK       I    between atoms: O6_41  and  S2_52 
REMARK       I    between atoms: S_43  and  O2_53 
REMARK       I    between atoms: O3_47  and  C3_69 
REMARK       I    between atoms: O2S_49  and  S1_64 
REMARK       I    between atoms: O2_53  and  C2_59 
REMARK       I    between atoms: O2_57  and  C2_65 
ROOT
ATOM      1  C4  SGN d 304      -3.329   0.382  53.280  0.00  0.00     0.095 C 
ATOM      2  C2  SGN d 304      -5.498   0.840  52.057  0.00  0.00     0.081 C 
ATOM      3  O5S SGN d 304      -2.245   4.839  54.499  0.00  0.00    -0.572 OA
ATOM      4  C5  SGN d 304      -4.077   0.791  54.559  0.00  0.00     0.091 C 
ATOM      5  N   SGN d 304      -6.545   0.150  51.307  0.00  0.00    -0.210 NA
ATOM      6  O4S SGN d 304      -0.819   3.607  55.929  0.00  0.00    -0.572 OA
ATOM      7  O1S SGN d 304      -8.125   1.843  50.081  0.00  0.00    -0.296 OA
ATOM      8  O3S SGN d 304      -6.107   1.409  49.005  0.00  0.00    -0.296 OA
ATOM      9  O1  SGN d 304      -7.048   0.528  53.993  0.00  0.00    -0.369 OA
ATOM     10  O6  SGN d 304      -3.193   2.672  55.686  0.00  0.00    -0.254 OA
ATOM     11  O4  SGN d 304      -2.362  -0.670  53.538  0.00  0.00    -0.348 OA
ATOM     12  O5  SGN d 304      -5.043   1.821  54.253  0.00  0.00    -0.350 OA
ATOM     13  C3  SGN d 304      -4.404  -0.180  52.340  0.00  0.00     0.083 C 
ATOM     14  C6  SGN d 304      -3.182   1.249  55.687  0.00  0.00     0.067 C 
ATOM     15  O3  SGN d 304      -3.810  -0.525  51.124  0.00  0.00    -0.391 OA
ATOM     16  O2S SGN d 304      -7.790  -0.212  49.008  0.00  0.00    -0.296 OA
ATOM     17  C1  SGN d 304      -6.088   1.390  53.367  0.00  0.00     0.147 C 
ATOM     18  S1  SGN d 304      -7.169   0.827  49.776  0.00  0.00     0.156 S 
ATOM     19  O6S SGN d 304      -1.389   2.781  53.766  0.00  0.00    -0.572 OA
ATOM     20  S2  SGN d 304      -1.844   3.520  54.921  0.00  0.00     0.251 S 
ATOM     21  H   SGN d 304      -2.801   1.220  52.877  0.00  0.00     0.091 H 
ATOM     22  H   SGN d 304      -5.096   1.664  51.506  0.00  0.00     0.076 H 
ATOM     23  H   SGN d 304      -4.562  -0.095  54.911  0.00  0.00     0.090 H 
ATOM     24  H   SGN d 304      -7.344   0.065  51.934  0.00  0.00     0.140 HD
ATOM     25  H   SGN d 304      -7.698   2.542  50.601  0.00  0.00     0.231 HD
ATOM     26  H   SGN d 304      -5.682   2.113  49.519  0.00  0.00     0.231 HD
ATOM     27  H   SGN d 304      -7.724   0.273  53.346  0.00  0.00     0.212 HD
ATOM     28  H   SGN d 304      -4.843  -1.030  52.818  0.00  0.00     0.089 H 
ATOM     29  H   SGN d 304      -2.186   0.891  55.532  0.00  0.00     0.080 H 
ATOM     30  H   SGN d 304      -3.530   0.868  56.625  0.00  0.00     0.080 H 
ATOM     31  H   SGN d 304      -3.423   0.266  50.717  0.00  0.00     0.210 HD
ATOM     32  H   SGN d 304      -8.509  -0.610  49.523  0.00  0.00     0.231 HD
ATOM     33  H   SGN d 304      -6.666   2.251  53.102  0.00  0.00     0.131 H 
ATOM     34  C4  SGN d 302       5.179   0.896  52.048  0.00  0.00     0.095 C 
ATOM     35  C5  SGN d 302       3.958   0.923  51.140  0.00  0.00     0.091 C 
ATOM     36  C2  SGN d 302       4.437  -1.210  52.983  0.00  0.00     0.081 C 
ATOM     37  O1  SGN d 302       2.096  -0.793  52.490  0.00  0.00    -0.348 OA
ATOM     38  C3  SGN d 302       4.847   0.184  53.332  0.00  0.00     0.083 C 
ATOM     39  O1S SGN d 302       3.958  -3.897  55.704  0.00  0.00    -0.296 OA
ATOM     40  S1  SGN d 302       4.249  -3.503  54.337  0.00  0.00     0.156 S 
ATOM     41  O4S SGN d 302       6.595  -0.192  47.200  0.00  0.00    -0.572 OA
ATOM     42  O3S SGN d 302       3.445  -4.175  53.340  0.00  0.00    -0.296 OA
ATOM     43  C6  SGN d 302       4.295   1.549  49.813  0.00  0.00     0.067 C 
ATOM     44  O6S SGN d 302       4.639   1.043  46.872  0.00  0.00    -0.572 OA
ATOM     45  O5S SGN d 302       6.682   2.110  47.537  0.00  0.00    -0.572 OA
ATOM     46  O2S SGN d 302       5.646  -3.681  54.128  0.00  0.00    -0.296 OA
ATOM     47  O6  SGN d 302       5.362   0.752  49.311  0.00  0.00    -0.254 OA
ATOM     48  O4  SGN d 302       5.497   2.214  52.435  0.00  0.00    -0.348 OA
ATOM     49  O3  SGN d 302       6.012   0.178  54.126  0.00  0.00    -0.391 OA
ATOM     50  N   SGN d 302       3.869  -1.797  54.158  0.00  0.00    -0.210 NA
ATOM     51  S2  SGN d 302       5.852   0.940  47.641  0.00  0.00     0.251 S 
ATOM     52  C1  SGN d 302       3.330  -1.198  51.957  0.00  0.00     0.150 C 
ATOM     53  O5  SGN d 302       3.676  -0.408  50.842  0.00  0.00    -0.349 OA
ATOM     54  H   SGN d 302       5.976   0.416  51.518  0.00  0.00     0.091 H 
ATOM     55  H   SGN d 302       3.166   1.460  51.619  0.00  0.00     0.090 H 
ATOM     56  H   SGN d 302       5.290  -1.738  52.610  0.00  0.00     0.076 H 
ATOM     57  H   SGN d 302       4.054   0.661  53.869  0.00  0.00     0.089 H 
ATOM     58  H   SGN d 302       4.534  -3.406  56.311  0.00  0.00     0.231 HD
ATOM     59  H   SGN d 302       2.505  -4.023  53.527  0.00  0.00     0.231 HD
ATOM     60  H   SGN d 302       4.608   2.564  49.941  0.00  0.00     0.080 H 
ATOM     61  H   SGN d 302       3.457   1.577  49.148  0.00  0.00     0.080 H 
ATOM     62  H   SGN d 302       6.138  -3.213  54.821  0.00  0.00     0.231 HD
ATOM     63  H   SGN d 302       6.732  -0.253  53.641  0.00  0.00     0.210 HD
ATOM     64  H   SGN d 302       2.854  -1.695  54.113  0.00  0.00     0.140 HD
ATOM     65  H   SGN d 302       3.210  -2.211  51.633  0.00  0.00     0.131 H 
ATOM     66  O61 IDS d 303       0.998  -0.398  49.418  0.00  0.00    -0.646 OA
ATOM     67  O5  IDS d 303      -0.356   0.329  52.607  0.00  0.00    -0.340 OA
ATOM     68  S   IDS d 303       0.942  -1.026  56.560  0.00  0.00     0.252 S 
ATOM     69  C1  IDS d 303      -0.982  -0.305  53.730  0.00  0.00     0.161 C 
ATOM     70  C5  IDS d 303      -0.053  -0.556  51.513  0.00  0.00     0.152 C 
ATOM     71  C6  IDS d 303       0.543   0.240  50.383  0.00  0.00     0.206 C 
ATOM     72  O3  IDS d 303      -0.647  -3.201  52.604  0.00  0.00    -0.390 OA
ATOM     73  O2S IDS d 303       0.865  -2.404  56.989  0.00  0.00    -0.572 OA
ATOM     74  O62 IDS d 303       0.736   1.454  50.565  0.00  0.00    -0.646 OA
ATOM     75  O1S IDS d 303       2.122  -0.397  57.079  0.00  0.00    -0.572 OA
ATOM     76  O2  IDS d 303       1.029  -0.945  54.848  0.00  0.00    -0.244 OA
ATOM     77  C4  IDS d 303       0.990  -1.553  51.981  0.00  0.00     0.103 C 
ATOM     78  C2  IDS d 303      -0.083  -1.457  54.200  0.00  0.00     0.134 C 
ATOM     79  C3  IDS d 303       0.392  -2.400  53.093  0.00  0.00     0.094 C 
ATOM     80  O3S IDS d 303      -0.251  -0.429  57.003  0.00  0.00    -0.572 OA
ATOM     81  H   IDS d 303      -1.066   0.417  54.515  0.00  0.00     0.133 H 
ATOM     82  H   IDS d 303      -0.944  -1.052  51.189  0.00  0.00     0.104 H 
ATOM     83  H   IDS d 303      -0.306  -3.783  51.906  0.00  0.00     0.210 HD
ATOM     84  H   IDS d 303       1.306  -2.196  51.186  0.00  0.00     0.092 H 
ATOM     85  H   IDS d 303      -0.696  -2.041  54.853  0.00  0.00     0.097 H 
ATOM     86  H   IDS d 303       1.126  -3.070  53.491  0.00  0.00     0.091 H 
ATOM     87  O1S UAP d 301       6.575   6.149  49.657  0.00  0.00    -0.572 OA
ATOM     88  O61 UAP d 301       9.357   2.710  55.517  0.00  0.00    -0.642 OA
ATOM     89  C1  UAP d 301       6.642   2.801  51.854  0.00  0.00     0.167 C 
ATOM     90  O62 UAP d 301       9.834   1.389  53.866  0.00  0.00    -0.642 OA
ATOM     91  O3S UAP d 301       6.763   7.280  51.659  0.00  0.00    -0.572 OA
ATOM     92  C6  UAP d 301       9.130   2.255  54.393  0.00  0.00     0.233 C 
ATOM     93  O3  UAP d 301       5.257   4.298  54.256  0.00  0.00    -0.389 OA
ATOM     94  C3  UAP d 301       6.493   4.550  53.639  0.00  0.00     0.086 C 
ATOM     95  S   UAP d 301       7.428   6.364  50.774  0.00  0.00     0.252 S 
ATOM     96  O2  UAP d 301       7.637   4.843  51.584  0.00  0.00    -0.244 OA
ATOM     97  C5  UAP d 301       8.126   2.780  53.719  0.00  0.00     0.147 C 
ATOM     98  O2S UAP d 301       8.734   6.822  50.361  0.00  0.00    -0.572 OA
ATOM     99  C2  UAP d 301       6.486   4.266  52.134  0.00  0.00     0.135 C 
ATOM    100  C4  UAP d 301       7.495   3.785  54.311  0.00  0.00    -0.034 C 
ATOM    101  O5  UAP d 301       7.862   2.359  52.458  0.00  0.00    -0.311 OA
ATOM    102  H   UAP d 301       6.706   2.545  50.817  0.00  0.00     0.134 H 
ATOM    103  H   UAP d 301       4.563   4.810  53.812  0.00  0.00     0.210 HD
ATOM    104  H   UAP d 301       6.706   5.595  53.723  0.00  0.00     0.093 H 
ATOM    105  H   UAP d 301       5.566   4.641  51.735  0.00  0.00     0.097 H 
ATOM    106  H   UAP d 301       7.735   4.021  55.286  0.00  0.00     0.085 H 
ENDROOT
TORSDOF 33
ENDMDL
MODEL 7
REMARK VINA RESULT:      -7.4      3.270      7.075
REMARK  0 active torsions:
REMARK  status: ('A' for Active; 'I' for Inactive)
REMARK       I    between atoms: C4_1  and  O4_32 
REMARK       I    between atoms: C2_2  and  N_17 
REMARK       I    between atoms: C4_3  and  O4_45 
REMARK       I    between atoms: C5_5  and  C6_20 
REMARK       I    between atoms: C5_7  and  C6_42 
REMARK       I    between atoms: C2_8  and  N_48 
REMARK       I    between atoms: O1_9  and  C1_58 
REMARK       I    between atoms: O1_9  and  C4_62 
REMARK       I    between atoms: C3_11  and  O3_46 
REMARK       I    between atoms: O1S_13  and  S1_14 
REMARK       I    between atoms: S1_14  and  N_48 
REMARK       I    between atoms: S1_14  and  O2S_39 
REMARK       I    between atoms: S1_14  and  O3S_16 
REMARK       I    between atoms: N_17  and  S1_64 
REMARK       I    between atoms: C1_18  and  O4_45 
REMARK       I    between atoms: C6_20  and  O6_41 
REMARK       I    between atoms: O1S_22  and  S1_64 
REMARK       I    between atoms: O3S_25  and  S1_64 
REMARK       I    between atoms: O1_26  and  C1_61 
REMARK       I    between atoms: S_27  and  O2_57 
REMARK       I    between atoms: O6_29  and  C6_42 
REMARK       I    between atoms: O6_29  and  S2_68 
REMARK       I    between atoms: C6_30  and  C5_54 
REMARK       I    between atoms: C1_31  and  O4_32 
REMARK       I    between atoms: C5_35  and  C6_36 
REMARK       I    between atoms: O3_37  and  C3_38 
REMARK       I    between atoms: C3_40  and  O3_44 
REMARK       I    between atoms: O6_41  and  S2_52 
REMARK       I    between atoms: S_43  and  O2_53 
REMARK       I    between atoms: O3_47  and  C3_69 
REMARK       I    between atoms: O2S_49  and  S1_64 
REMARK       I    between atoms: O2_53  and  C2_59 
REMARK       I    between atoms: O2_57  and  C2_65 
ROOT
ATOM      1  C4  SGN d 304      -1.053   1.029  54.183  0.00  0.00     0.095 C 
ATOM      2  C2  SGN d 304      -2.223   1.907  56.249  0.00  0.00     0.081 C 
ATOM      3  O5S SGN d 304      -1.404  -3.617  55.085  0.00  0.00    -0.572 OA
ATOM      4  C5  SGN d 304      -2.427   0.496  53.749  0.00  0.00     0.091 C 
ATOM      5  N   SGN d 304      -2.583   3.163  56.901  0.00  0.00    -0.210 NA
ATOM      6  O4S SGN d 304      -0.860  -3.631  52.784  0.00  0.00    -0.572 OA
ATOM      7  O1S SGN d 304      -3.426   2.769  59.350  0.00  0.00    -0.296 OA
ATOM      8  O3S SGN d 304      -1.114   2.770  59.083  0.00  0.00    -0.296 OA
ATOM      9  O1  SGN d 304      -4.529   2.049  55.294  0.00  0.00    -0.369 OA
ATOM     10  O6  SGN d 304      -2.562  -1.851  53.491  0.00  0.00    -0.254 OA
ATOM     11  O4  SGN d 304      -0.263   1.464  53.044  0.00  0.00    -0.348 OA
ATOM     12  O5  SGN d 304      -3.186   0.097  54.912  0.00  0.00    -0.350 OA
ATOM     13  C3  SGN d 304      -1.347   2.257  55.055  0.00  0.00     0.083 C 
ATOM     14  C6  SGN d 304      -2.371  -0.645  52.760  0.00  0.00     0.067 C 
ATOM     15  O3  SGN d 304      -0.143   2.771  55.539  0.00  0.00    -0.391 OA
ATOM     16  O2S SGN d 304      -2.294   4.783  58.965  0.00  0.00    -0.296 OA
ATOM     17  C1  SGN d 304      -3.503   1.182  55.798  0.00  0.00     0.147 C 
ATOM     18  S1  SGN d 304      -2.340   3.384  58.657  0.00  0.00     0.156 S 
ATOM     19  O6S SGN d 304      -0.030  -1.922  54.223  0.00  0.00    -0.572 OA
ATOM     20  S2  SGN d 304      -1.137  -2.801  53.927  0.00  0.00     0.251 S 
ATOM     21  H   SGN d 304      -0.502   0.265  54.689  0.00  0.00     0.091 H 
ATOM     22  H   SGN d 304      -1.694   1.256  56.913  0.00  0.00     0.076 H 
ATOM     23  H   SGN d 304      -2.908   1.304  53.238  0.00  0.00     0.090 H 
ATOM     24  H   SGN d 304      -3.577   3.308  56.725  0.00  0.00     0.140 HD
ATOM     25  H   SGN d 304      -3.451   1.823  59.137  0.00  0.00     0.231 HD
ATOM     26  H   SGN d 304      -1.138   1.823  58.878  0.00  0.00     0.231 HD
ATOM     27  H   SGN d 304      -4.697   2.757  55.935  0.00  0.00     0.212 HD
ATOM     28  H   SGN d 304      -1.864   2.971  54.448  0.00  0.00     0.089 H 
ATOM     29  H   SGN d 304      -1.419  -0.660  52.272  0.00  0.00     0.080 H 
ATOM     30  H   SGN d 304      -3.126  -0.533  52.010  0.00  0.00     0.080 H 
ATOM     31  H   SGN d 304       0.300   2.102  56.084  0.00  0.00     0.210 HD
ATOM     32  H   SGN d 304      -3.120   5.205  58.679  0.00  0.00     0.231 HD
ATOM     33  H   SGN d 304      -3.943   0.765  56.679  0.00  0.00     0.131 H 
ATOM     34  C4  SGN d 302       6.572  -2.170  51.774  0.00  0.00     0.095 C 
ATOM     35  C5  SGN d 302       6.063  -1.400  52.985  0.00  0.00     0.091 C 
ATOM     36  C2  SGN d 302       5.715  -0.441  50.313  0.00  0.00     0.081 C 
ATOM     37  O1  SGN d 302       4.005   0.270  51.884  0.00  0.00    -0.348 OA
ATOM     38  C3  SGN d 302       5.682  -1.909  50.590  0.00  0.00     0.083 C 
ATOM     39  O1S SGN d 302       4.164   1.028  47.106  0.00  0.00    -0.296 OA
ATOM     40  S1  SGN d 302       5.108   1.085  48.208  0.00  0.00     0.156 S 
ATOM     41  O4S SGN d 302      10.554  -0.004  54.254  0.00  0.00    -0.572 OA
ATOM     42  O3S SGN d 302       5.081   2.325  48.953  0.00  0.00    -0.296 OA
ATOM     43  C6  SGN d 302       6.993  -1.573  54.155  0.00  0.00     0.067 C 
ATOM     44  O6S SGN d 302       8.965  -0.196  55.955  0.00  0.00    -0.572 OA
ATOM     45  O5S SGN d 302      10.144  -2.118  55.139  0.00  0.00    -0.572 OA
ATOM     46  O2S SGN d 302       6.396   0.785  47.684  0.00  0.00    -0.296 OA
ATOM     47  O6  SGN d 302       8.251  -1.114  53.674  0.00  0.00    -0.254 OA
ATOM     48  O4  SGN d 302       6.452  -3.552  52.023  0.00  0.00    -0.348 OA
ATOM     49  O3  SGN d 302       6.203  -2.635  49.500  0.00  0.00    -0.391 OA
ATOM     50  N   SGN d 302       4.673  -0.157  49.373  0.00  0.00    -0.210 NA
ATOM     51  S2  SGN d 302       9.554  -0.848  54.815  0.00  0.00     0.251 S 
ATOM     52  C1  SGN d 302       5.367   0.343  51.556  0.00  0.00     0.150 C 
ATOM     53  O5  SGN d 302       6.166  -0.052  52.648  0.00  0.00    -0.349 OA
ATOM     54  H   SGN d 302       7.583  -1.869  51.590  0.00  0.00     0.091 H 
ATOM     55  H   SGN d 302       5.078  -1.732  53.233  0.00  0.00     0.090 H 
ATOM     56  H   SGN d 302       6.691  -0.177  49.963  0.00  0.00     0.076 H 
ATOM     57  H   SGN d 302       4.670  -2.211  50.766  0.00  0.00     0.089 H 
ATOM     58  H   SGN d 302       4.240   0.172  46.658  0.00  0.00     0.231 HD
ATOM     59  H   SGN d 302       4.184   2.482  49.286  0.00  0.00     0.231 HD
ATOM     60  H   SGN d 302       7.050  -2.601  54.446  0.00  0.00     0.080 H 
ATOM     61  H   SGN d 302       6.666  -1.037  55.022  0.00  0.00     0.080 H 
ATOM     62  H   SGN d 302       6.360  -0.053  47.196  0.00  0.00     0.231 HD
ATOM     63  H   SGN d 302       7.120  -2.362  49.339  0.00  0.00     0.210 HD
ATOM     64  H   SGN d 302       3.849   0.155  49.888  0.00  0.00     0.140 HD
ATOM     65  H   SGN d 302       5.577   1.368  51.332  0.00  0.00     0.131 H 
ATOM     66  O61 IDS d 303       4.744   1.472  54.851  0.00  0.00    -0.646 OA
ATOM     67  O5  IDS d 303       1.775   0.198  53.405  0.00  0.00    -0.340 OA
ATOM     68  S   IDS d 303       0.838  -0.587  49.203  0.00  0.00     0.252 S 
ATOM     69  C1  IDS d 303       0.721   0.563  52.504  0.00  0.00     0.161 C 
ATOM     70  C5  IDS d 303       2.742   1.237  53.644  0.00  0.00     0.152 C 
ATOM     71  C6  IDS d 303       3.755   0.748  54.645  0.00  0.00     0.206 C 
ATOM     72  O3  IDS d 303       1.990   3.311  51.729  0.00  0.00    -0.390 OA
ATOM     73  O2S IDS d 303       0.714   0.457  48.212  0.00  0.00    -0.572 OA
ATOM     74  O62 IDS d 303       3.658  -0.423  55.047  0.00  0.00    -0.646 OA
ATOM     75  O1S IDS d 303       1.442  -1.758  48.637  0.00  0.00    -0.572 OA
ATOM     76  O2  IDS d 303       1.844  -0.062  50.490  0.00  0.00    -0.244 OA
ATOM     77  C4  IDS d 303       3.471   1.520  52.345  0.00  0.00     0.103 C 
ATOM     78  C2  IDS d 303       1.351   1.030  51.185  0.00  0.00     0.134 C 
ATOM     79  C3  IDS d 303       2.474   2.059  51.332  0.00  0.00     0.094 C 
ATOM     80  O3S IDS d 303      -0.466  -0.806  49.680  0.00  0.00    -0.572 OA
ATOM     81  H   IDS d 303       0.126  -0.307  52.319  0.00  0.00     0.133 H 
ATOM     82  H   IDS d 303       2.251   2.114  54.011  0.00  0.00     0.104 H 
ATOM     83  H   IDS d 303       2.731   3.933  51.811  0.00  0.00     0.210 HD
ATOM     84  H   IDS d 303       4.253   2.238  52.479  0.00  0.00     0.092 H 
ATOM     85  H   IDS d 303       0.560   1.520  50.657  0.00  0.00     0.097 H 
ATOM     86  H   IDS d 303       2.945   2.206  50.382  0.00  0.00     0.091 H 
ATOM     87  O1S UAP d 301       8.368  -6.289  55.656  0.00  0.00    -0.572 OA
ATOM     88  O61 UAP d 301       7.868  -6.561  48.336  0.00  0.00    -0.642 OA
ATOM     89  C1  UAP d 301       7.640  -4.271  52.274  0.00  0.00     0.167 C 
ATOM     90  O62 UAP d 301       9.341  -5.013  48.698  0.00  0.00    -0.642 OA
ATOM     91  O3S UAP d 301       7.273  -8.055  54.654  0.00  0.00    -0.572 OA
ATOM     92  C6  UAP d 301       8.359  -5.676  49.042  0.00  0.00     0.233 C 
ATOM     93  O3  UAP d 301       4.982  -5.901  51.823  0.00  0.00    -0.389 OA
ATOM     94  C3  UAP d 301       6.308  -6.356  51.892  0.00  0.00     0.086 C 
ATOM     95  S   UAP d 301       8.427  -7.203  54.569  0.00  0.00     0.252 S 
ATOM     96  O2  UAP d 301       8.347  -6.285  53.098  0.00  0.00    -0.244 OA
ATOM     97  C5  UAP d 301       7.837  -5.497  50.239  0.00  0.00     0.147 C 
ATOM     98  O2S UAP d 301       9.671  -7.935  54.560  0.00  0.00    -0.572 OA
ATOM     99  C2  UAP d 301       7.169  -5.561  52.877  0.00  0.00     0.135 C 
ATOM    100  C4  UAP d 301       6.861  -6.330  50.574  0.00  0.00    -0.034 C 
ATOM    101  O5  UAP d 301       8.369  -4.578  51.080  0.00  0.00    -0.311 OA
ATOM    102  H   UAP d 301       8.298  -3.698  52.893  0.00  0.00     0.134 H 
ATOM    103  H   UAP d 301       4.589  -5.911  52.710  0.00  0.00     0.210 HD
ATOM    104  H   UAP d 301       6.303  -7.356  52.271  0.00  0.00     0.093 H 
ATOM    105  H   UAP d 301       6.584  -5.387  53.756  0.00  0.00     0.097 H 
ATOM    106  H   UAP d 301       6.490  -6.979  49.863  0.00  0.00     0.085 H 
ENDROOT
TORSDOF 33
ENDMDL
MODEL 8
REMARK VINA RESULT:      -7.3      2.893      5.843
REMARK  0 active torsions:
REMARK  status: ('A' for Active; 'I' for Inactive)
REMARK       I    between atoms: C4_1  and  O4_32 
REMARK       I    between atoms: C2_2  and  N_17 
REMARK       I    between atoms: C4_3  and  O4_45 
REMARK       I    between atoms: C5_5  and  C6_20 
REMARK       I    between atoms: C5_7  and  C6_42 
REMARK       I    between atoms: C2_8  and  N_48 
REMARK       I    between atoms: O1_9  and  C1_58 
REMARK       I    between atoms: O1_9  and  C4_62 
REMARK       I    between atoms: C3_11  and  O3_46 
REMARK       I    between atoms: O1S_13  and  S1_14 
REMARK       I    between atoms: S1_14  and  N_48 
REMARK       I    between atoms: S1_14  and  O2S_39 
REMARK       I    between atoms: S1_14  and  O3S_16 
REMARK       I    between atoms: N_17  and  S1_64 
REMARK       I    between atoms: C1_18  and  O4_45 
REMARK       I    between atoms: C6_20  and  O6_41 
REMARK       I    between atoms: O1S_22  and  S1_64 
REMARK       I    between atoms: O3S_25  and  S1_64 
REMARK       I    between atoms: O1_26  and  C1_61 
REMARK       I    between atoms: S_27  and  O2_57 
REMARK       I    between atoms: O6_29  and  C6_42 
REMARK       I    between atoms: O6_29  and  S2_68 
REMARK       I    between atoms: C6_30  and  C5_54 
REMARK       I    between atoms: C1_31  and  O4_32 
REMARK       I    between atoms: C5_35  and  C6_36 
REMARK       I    between atoms: O3_37  and  C3_38 
REMARK       I    between atoms: C3_40  and  O3_44 
REMARK       I    between atoms: O6_41  and  S2_52 
REMARK       I    between atoms: S_43  and  O2_53 
REMARK       I    between atoms: O3_47  and  C3_69 
REMARK       I    between atoms: O2S_49  and  S1_64 
REMARK       I    between atoms: O2_53  and  C2_59 
REMARK       I    between atoms: O2_57  and  C2_65 
ROOT
ATOM      1  C4  SGN d 304      -1.555   0.538  53.650  0.00  0.00     0.095 C 
ATOM      2  C2  SGN d 304      -3.355   1.342  55.238  0.00  0.00     0.081 C 
ATOM      3  O5S SGN d 304       0.240  -2.954  56.317  0.00  0.00    -0.572 OA
ATOM      4  C5  SGN d 304      -2.393  -0.742  53.502  0.00  0.00     0.091 C 
ATOM      5  N   SGN d 304      -4.391   2.365  55.355  0.00  0.00    -0.210 NA
ATOM      6  O4S SGN d 304       1.127  -3.491  54.191  0.00  0.00    -0.572 OA
ATOM      7  O1S SGN d 304      -5.362   2.480  57.785  0.00  0.00    -0.296 OA
ATOM      8  O3S SGN d 304      -3.336   3.585  57.470  0.00  0.00    -0.296 OA
ATOM      9  O1  SGN d 304      -5.224  -0.075  54.374  0.00  0.00    -0.369 OA
ATOM     10  O6  SGN d 304      -1.322  -2.734  54.191  0.00  0.00    -0.254 OA
ATOM     11  O4  SGN d 304      -0.886   0.887  52.409  0.00  0.00    -0.348 OA
ATOM     12  O5  SGN d 304      -3.058  -1.038  54.750  0.00  0.00    -0.350 OA
ATOM     13  C3  SGN d 304      -2.561   1.650  53.977  0.00  0.00     0.083 C 
ATOM     14  C6  SGN d 304      -1.612  -1.950  53.039  0.00  0.00     0.067 C 
ATOM     15  O3  SGN d 304      -1.868   2.844  54.184  0.00  0.00    -0.391 OA
ATOM     16  O2S SGN d 304      -5.303   4.503  56.606  0.00  0.00    -0.296 OA
ATOM     17  C1  SGN d 304      -4.016  -0.044  55.146  0.00  0.00     0.147 C 
ATOM     18  S1  SGN d 304      -4.607   3.280  56.874  0.00  0.00     0.156 S 
ATOM     19  O6S SGN d 304       0.746  -1.222  54.816  0.00  0.00    -0.572 OA
ATOM     20  S2  SGN d 304       0.280  -2.584  54.923  0.00  0.00     0.251 S 
ATOM     21  H   SGN d 304      -0.804   0.404  54.399  0.00  0.00     0.091 H 
ATOM     22  H   SGN d 304      -2.705   1.341  56.088  0.00  0.00     0.076 H 
ATOM     23  H   SGN d 304      -3.105  -0.539  52.729  0.00  0.00     0.090 H 
ATOM     24  H   SGN d 304      -5.280   1.902  55.165  0.00  0.00     0.140 HD
ATOM     25  H   SGN d 304      -4.885   1.654  57.962  0.00  0.00     0.231 HD
ATOM     26  H   SGN d 304      -2.860   2.760  57.655  0.00  0.00     0.231 HD
ATOM     27  H   SGN d 304      -5.827   0.616  54.689  0.00  0.00     0.212 HD
ATOM     28  H   SGN d 304      -3.240   1.727  53.154  0.00  0.00     0.089 H 
ATOM     29  H   SGN d 304      -0.703  -1.640  52.569  0.00  0.00     0.080 H 
ATOM     30  H   SGN d 304      -2.178  -2.516  52.329  0.00  0.00     0.080 H 
ATOM     31  H   SGN d 304      -1.262   2.742  54.935  0.00  0.00     0.210 HD
ATOM     32  H   SGN d 304      -6.162   4.305  56.202  0.00  0.00     0.231 HD
ATOM     33  H   SGN d 304      -4.349  -0.288  56.134  0.00  0.00     0.131 H 
ATOM     34  C4  SGN d 302       6.955   1.142  52.467  0.00  0.00     0.095 C 
ATOM     35  C5  SGN d 302       5.927   1.904  53.292  0.00  0.00     0.091 C 
ATOM     36  C2  SGN d 302       5.644   1.535  50.470  0.00  0.00     0.081 C 
ATOM     37  O1  SGN d 302       3.553   1.756  51.685  0.00  0.00    -0.348 OA
ATOM     38  C3  SGN d 302       6.280   0.469  51.303  0.00  0.00     0.083 C 
ATOM     39  O1S SGN d 302       4.182   0.755  46.991  0.00  0.00    -0.296 OA
ATOM     40  S1  SGN d 302       4.763   1.674  47.954  0.00  0.00     0.156 S 
ATOM     41  O4S SGN d 302       8.860   5.762  53.775  0.00  0.00    -0.572 OA
ATOM     42  O3S SGN d 302       4.003   2.889  48.151  0.00  0.00    -0.296 OA
ATOM     43  C6  SGN d 302       6.595   2.661  54.408  0.00  0.00     0.067 C 
ATOM     44  O6S SGN d 302       7.288   5.387  55.462  0.00  0.00    -0.572 OA
ATOM     45  O5S SGN d 302       9.378   4.211  55.432  0.00  0.00    -0.572 OA
ATOM     46  O2S SGN d 302       6.105   1.923  47.552  0.00  0.00    -0.296 OA
ATOM     47  O6  SGN d 302       7.535   3.501  53.748  0.00  0.00    -0.254 OA
ATOM     48  O4  SGN d 302       7.479   0.088  53.243  0.00  0.00    -0.348 OA
ATOM     49  O3  SGN d 302       7.275  -0.210  50.570  0.00  0.00    -0.391 OA
ATOM     50  N   SGN d 302       4.785   0.888  49.526  0.00  0.00    -0.210 NA
ATOM     51  S2  SGN d 302       8.314   4.783  54.652  0.00  0.00     0.251 S 
ATOM     52  C1  SGN d 302       4.742   2.403  51.314  0.00  0.00     0.150 C 
ATOM     53  O5  SGN d 302       5.420   2.891  52.449  0.00  0.00    -0.349 OA
ATOM     54  H   SGN d 302       7.706   1.835  52.149  0.00  0.00     0.091 H 
ATOM     55  H   SGN d 302       5.201   1.222  53.680  0.00  0.00     0.090 H 
ATOM     56  H   SGN d 302       6.414   2.123  50.016  0.00  0.00     0.076 H 
ATOM     57  H   SGN d 302       5.530  -0.228  51.613  0.00  0.00     0.089 H 
ATOM     58  H   SGN d 302       4.744  -0.031  46.914  0.00  0.00     0.231 HD
ATOM     59  H   SGN d 302       3.099   2.664  48.423  0.00  0.00     0.231 HD
ATOM     60  H   SGN d 302       7.091   1.990  55.077  0.00  0.00     0.080 H 
ATOM     61  H   SGN d 302       5.899   3.214  55.003  0.00  0.00     0.080 H 
ATOM     62  H   SGN d 302       6.569   1.079  47.433  0.00  0.00     0.231 HD
ATOM     63  H   SGN d 302       7.955   0.421  50.288  0.00  0.00     0.210 HD
ATOM     64  H   SGN d 302       3.836   0.886  49.900  0.00  0.00     0.140 HD
ATOM     65  H   SGN d 302       4.464   3.233  50.699  0.00  0.00     0.131 H 
ATOM     66  O61 IDS d 303       3.066   4.118  53.917  0.00  0.00    -0.646 OA
ATOM     67  O5  IDS d 303       1.408   1.080  53.177  0.00  0.00    -0.340 OA
ATOM     68  S   IDS d 303       1.744  -1.492  49.652  0.00  0.00     0.252 S 
ATOM     69  C1  IDS d 303       0.491   0.504  52.237  0.00  0.00     0.161 C 
ATOM     70  C5  IDS d 303       1.686   2.475  52.960  0.00  0.00     0.152 C 
ATOM     71  C6  IDS d 303       2.610   2.969  54.042  0.00  0.00     0.206 C 
ATOM     72  O3  IDS d 303       0.380   3.034  50.407  0.00  0.00    -0.390 OA
ATOM     73  O2S IDS d 303       1.310  -1.088  48.335  0.00  0.00    -0.572 OA
ATOM     74  O62 IDS d 303       3.023   2.145  54.875  0.00  0.00    -0.646 OA
ATOM     75  O1S IDS d 303       2.933  -2.291  49.575  0.00  0.00    -0.572 OA
ATOM     76  O2  IDS d 303       2.117  -0.110  50.599  0.00  0.00    -0.244 OA
ATOM     77  C4  IDS d 303       2.407   2.617  51.633  0.00  0.00     0.103 C 
ATOM     78  C2  IDS d 303       1.040   0.731  50.823  0.00  0.00     0.134 C 
ATOM     79  C3  IDS d 303       1.474   2.167  50.520  0.00  0.00     0.094 C 
ATOM     80  O3S IDS d 303       0.650  -2.170  50.216  0.00  0.00    -0.572 OA
ATOM     81  H   IDS d 303       0.438  -0.549  52.428  0.00  0.00     0.133 H 
ATOM     82  H   IDS d 303       0.774   3.034  52.967  0.00  0.00     0.104 H 
ATOM     83  H   IDS d 303       0.697   3.930  50.216  0.00  0.00     0.210 HD
ATOM     84  H   IDS d 303       2.702   3.629  51.451  0.00  0.00     0.092 H 
ATOM     85  H   IDS d 303       0.221   0.519  50.168  0.00  0.00     0.097 H 
ATOM     86  H   IDS d 303       1.976   2.192  49.575  0.00  0.00     0.091 H 
ATOM     87  O1S UAP d 301       9.792   0.218  57.601  0.00  0.00    -0.572 OA
ATOM     88  O61 UAP d 301      10.816  -2.821  50.995  0.00  0.00    -0.642 OA
ATOM     89  C1  UAP d 301       8.799   0.230  53.721  0.00  0.00     0.167 C 
ATOM     90  O62 UAP d 301      11.258  -0.723  50.675  0.00  0.00    -0.642 OA
ATOM     91  O3S UAP d 301       9.895  -2.079  57.406  0.00  0.00    -0.572 OA
ATOM     92  C6  UAP d 301      10.679  -1.629  51.281  0.00  0.00     0.233 C 
ATOM     93  O3  UAP d 301       7.399  -2.576  54.026  0.00  0.00    -0.389 OA
ATOM     94  C3  UAP d 301       8.742  -2.221  54.229  0.00  0.00     0.086 C 
ATOM     95  S   UAP d 301      10.483  -0.847  56.959  0.00  0.00     0.252 S 
ATOM     96  O2  UAP d 301      10.233  -0.688  55.248  0.00  0.00    -0.244 OA
ATOM     97  C5  UAP d 301       9.930  -1.339  52.326  0.00  0.00     0.147 C 
ATOM     98  O2S UAP d 301      11.905  -0.777  57.201  0.00  0.00    -0.572 OA
ATOM     99  C2  UAP d 301       8.914  -0.809  54.796  0.00  0.00     0.135 C 
ATOM    100  C4  UAP d 301       9.439  -2.377  52.991  0.00  0.00    -0.034 C 
ATOM    101  O5  UAP d 301       9.786  -0.051  52.722  0.00  0.00    -0.311 OA
ATOM    102  H   UAP d 301       8.971   1.235  54.045  0.00  0.00     0.134 H 
ATOM    103  H   UAP d 301       6.908  -2.476  54.857  0.00  0.00     0.210 HD
ATOM    104  H   UAP d 301       9.155  -2.871  54.971  0.00  0.00     0.093 H 
ATOM    105  H   UAP d 301       8.170  -0.668  55.553  0.00  0.00     0.097 H 
ATOM    106  H   UAP d 301       9.565  -3.324  52.604  0.00  0.00     0.085 H 
ENDROOT
TORSDOF 33
ENDMDL
MODEL 9
REMARK VINA RESULT:      -7.3      2.008      2.267
REMARK  0 active torsions:
REMARK  status: ('A' for Active; 'I' for Inactive)
REMARK       I    between atoms: C4_1  and  O4_32 
REMARK       I    between atoms: C2_2  and  N_17 
REMARK       I    between atoms: C4_3  and  O4_45 
REMARK       I    between atoms: C5_5  and  C6_20 
REMARK       I    between atoms: C5_7  and  C6_42 
REMARK       I    between atoms: C2_8  and  N_48 
REMARK       I    between atoms: O1_9  and  C1_58 
REMARK       I    between atoms: O1_9  and  C4_62 
REMARK       I    between atoms: C3_11  and  O3_46 
REMARK       I    between atoms: O1S_13  and  S1_14 
REMARK       I    between atoms: S1_14  and  N_48 
REMARK       I    between atoms: S1_14  and  O2S_39 
REMARK       I    between atoms: S1_14  and  O3S_16 
REMARK       I    between atoms: N_17  and  S1_64 
REMARK       I    between atoms: C1_18  and  O4_45 
REMARK       I    between atoms: C6_20  and  O6_41 
REMARK       I    between atoms: O1S_22  and  S1_64 
REMARK       I    between atoms: O3S_25  and  S1_64 
REMARK       I    between atoms: O1_26  and  C1_61 
REMARK       I    between atoms: S_27  and  O2_57 
REMARK       I    between atoms: O6_29  and  C6_42 
REMARK       I    between atoms: O6_29  and  S2_68 
REMARK       I    between atoms: C6_30  and  C5_54 
REMARK       I    between atoms: C1_31  and  O4_32 
REMARK       I    between atoms: C5_35  and  C6_36 
REMARK       I    between atoms: O3_37  and  C3_38 
REMARK       I    between atoms: C3_40  and  O3_44 
REMARK       I    between atoms: O6_41  and  S2_52 
REMARK       I    between atoms: S_43  and  O2_53 
REMARK       I    between atoms: O3_47  and  C3_69 
REMARK       I    between atoms: O2S_49  and  S1_64 
REMARK       I    between atoms: O2_53  and  C2_59 
REMARK       I    between atoms: O2_57  and  C2_65 
ROOT
ATOM      1  C4  SGN d 304      -3.603   1.258  53.989  0.00  0.00     0.095 C 
ATOM      2  C2  SGN d 304      -5.356   3.041  53.600  0.00  0.00     0.081 C 
ATOM      3  O5S SGN d 304      -0.930   3.566  57.160  0.00  0.00    -0.572 OA
ATOM      4  C5  SGN d 304      -4.196   1.119  55.400  0.00  0.00     0.091 C 
ATOM      5  N   SGN d 304      -6.549   3.304  52.799  0.00  0.00    -0.210 NA
ATOM      6  O4S SGN d 304      -0.172   1.343  57.444  0.00  0.00    -0.572 OA
ATOM      7  O1S SGN d 304      -7.280   5.815  52.955  0.00  0.00    -0.296 OA
ATOM      8  O3S SGN d 304      -5.539   5.377  51.473  0.00  0.00    -0.296 OA
ATOM      9  O1  SGN d 304      -7.002   2.277  55.319  0.00  0.00    -0.369 OA
ATOM     10  O6  SGN d 304      -2.707   1.604  57.172  0.00  0.00    -0.254 OA
ATOM     11  O4  SGN d 304      -3.136  -0.019  53.476  0.00  0.00    -0.348 OA
ATOM     12  O5  SGN d 304      -4.667   2.405  55.860  0.00  0.00    -0.350 OA
ATOM     13  C3  SGN d 304      -4.762   1.731  53.103  0.00  0.00     0.083 C 
ATOM     14  C6  SGN d 304      -3.251   0.526  56.419  0.00  0.00     0.067 C 
ATOM     15  O3  SGN d 304      -4.289   1.936  51.805  0.00  0.00    -0.391 OA
ATOM     16  O2S SGN d 304      -7.719   4.742  50.920  0.00  0.00    -0.296 OA
ATOM     17  C1  SGN d 304      -5.751   2.938  55.083  0.00  0.00     0.147 C 
ATOM     18  S1  SGN d 304      -6.782   4.882  51.995  0.00  0.00     0.156 S 
ATOM     19  O6S SGN d 304      -0.908   2.118  55.313  0.00  0.00    -0.572 OA
ATOM     20  S2  SGN d 304      -1.097   2.195  56.743  0.00  0.00     0.251 S 
ATOM     21  H   SGN d 304      -2.770   1.928  54.002  0.00  0.00     0.091 H 
ATOM     22  H   SGN d 304      -4.637   3.828  53.505  0.00  0.00     0.076 H 
ATOM     23  H   SGN d 304      -5.005   0.425  55.311  0.00  0.00     0.090 H 
ATOM     24  H   SGN d 304      -7.350   3.171  53.417  0.00  0.00     0.140 HD
ATOM     25  H   SGN d 304      -6.641   5.905  53.680  0.00  0.00     0.231 HD
ATOM     26  H   SGN d 304      -4.900   5.474  52.196  0.00  0.00     0.231 HD
ATOM     27  H   SGN d 304      -7.689   2.680  54.768  0.00  0.00     0.212 HD
ATOM     28  H   SGN d 304      -5.522   0.978  53.129  0.00  0.00     0.089 H 
ATOM     29  H   SGN d 304      -2.467  -0.008  55.925  0.00  0.00     0.080 H 
ATOM     30  H   SGN d 304      -3.767  -0.160  57.059  0.00  0.00     0.080 H 
ATOM     31  H   SGN d 304      -3.604   2.623  51.815  0.00  0.00     0.210 HD
ATOM     32  H   SGN d 304      -8.561   4.407  51.266  0.00  0.00     0.231 HD
ATOM     33  H   SGN d 304      -5.933   3.936  55.420  0.00  0.00     0.131 H 
ATOM     34  C4  SGN d 302       4.484  -0.656  51.723  0.00  0.00     0.095 C 
ATOM     35  C5  SGN d 302       3.417   0.297  51.201  0.00  0.00     0.091 C 
ATOM     36  C2  SGN d 302       2.933  -2.503  51.521  0.00  0.00     0.081 C 
ATOM     37  O1  SGN d 302       0.967  -1.094  51.747  0.00  0.00    -0.348 OA
ATOM     38  C3  SGN d 302       3.836  -1.788  52.473  0.00  0.00     0.083 C 
ATOM     39  O1S SGN d 302       1.307  -5.872  52.449  0.00  0.00    -0.296 OA
ATOM     40  S1  SGN d 302       1.797  -4.919  51.469  0.00  0.00     0.156 S 
ATOM     41  O4S SGN d 302       5.607   0.714  46.870  0.00  0.00    -0.572 OA
ATOM     42  O3S SGN d 302       0.846  -4.591  50.430  0.00  0.00    -0.296 OA
ATOM     43  C6  SGN d 302       4.038   1.386  50.368  0.00  0.00     0.067 C 
ATOM     44  O6S SGN d 302       4.307   2.514  47.597  0.00  0.00    -0.572 OA
ATOM     45  O5S SGN d 302       6.567   2.235  48.349  0.00  0.00    -0.572 OA
ATOM     46  O2S SGN d 302       3.023  -5.427  50.954  0.00  0.00    -0.296 OA
ATOM     47  O6  SGN d 302       4.734   0.689  49.341  0.00  0.00    -0.254 OA
ATOM     48  O4  SGN d 302       5.270   0.014  52.683  0.00  0.00    -0.348 OA
ATOM     49  O3  SGN d 302       4.864  -2.641  52.923  0.00  0.00    -0.391 OA
ATOM     50  N   SGN d 302       2.121  -3.398  52.289  0.00  0.00    -0.210 NA
ATOM     51  S2  SGN d 302       5.343   1.585  47.965  0.00  0.00     0.251 S 
ATOM     52  C1  SGN d 302       1.971  -1.537  50.872  0.00  0.00     0.150 C 
ATOM     53  O5  SGN d 302       2.654  -0.444  50.301  0.00  0.00    -0.349 OA
ATOM     54  H   SGN d 302       5.056  -1.003  50.888  0.00  0.00     0.091 H 
ATOM     55  H   SGN d 302       2.874   0.714  52.023  0.00  0.00     0.090 H 
ATOM     56  H   SGN d 302       3.529  -2.994  50.781  0.00  0.00     0.076 H 
ATOM     57  H   SGN d 302       3.264  -1.447  53.312  0.00  0.00     0.089 H 
ATOM     58  H   SGN d 302       1.997  -6.040  53.110  0.00  0.00     0.231 HD
ATOM     59  H   SGN d 302       0.032  -4.251  50.833  0.00  0.00     0.231 HD
ATOM     60  H   SGN d 302       4.715   1.972  50.954  0.00  0.00     0.080 H 
ATOM     61  H   SGN d 302       3.312   2.070  49.980  0.00  0.00     0.080 H 
ATOM     62  H   SGN d 302       3.623  -5.630  51.689  0.00  0.00     0.231 HD
ATOM     63  H   SGN d 302       5.382  -2.950  52.164  0.00  0.00     0.210 HD
ATOM     64  H   SGN d 302       1.231  -2.940  52.485  0.00  0.00     0.140 HD
ATOM     65  H   SGN d 302       1.482  -2.080  50.090  0.00  0.00     0.131 H 
ATOM     66  O61 IDS d 303       0.268   1.292  49.600  0.00  0.00    -0.646 OA
ATOM     67  O5  IDS d 303      -0.856   0.548  52.873  0.00  0.00    -0.340 OA
ATOM     68  S   IDS d 303      -0.391  -3.122  55.211  0.00  0.00     0.252 S 
ATOM     69  C1  IDS d 303      -1.736  -0.334  53.582  0.00  0.00     0.161 C 
ATOM     70  C5  IDS d 303      -0.867   0.380  51.444  0.00  0.00     0.152 C 
ATOM     71  C6  IDS d 303       0.050   1.398  50.819  0.00  0.00     0.206 C 
ATOM     72  O3  IDS d 303      -2.499  -2.012  51.060  0.00  0.00    -0.390 OA
ATOM     73  O2S IDS d 303      -1.021  -4.372  54.854  0.00  0.00    -0.572 OA
ATOM     74  O62 IDS d 303       0.690   2.146  51.575  0.00  0.00    -0.646 OA
ATOM     75  O1S IDS d 303       0.913  -3.348  55.765  0.00  0.00    -0.572 OA
ATOM     76  O2  IDS d 303      -0.192  -2.142  53.816  0.00  0.00    -0.244 OA
ATOM     77  C4  IDS d 303      -0.320  -0.998  51.121  0.00  0.00     0.103 C 
ATOM     78  C2  IDS d 303      -1.381  -1.779  53.206  0.00  0.00     0.134 C 
ATOM     79  C3  IDS d 303      -1.256  -2.044  51.704  0.00  0.00     0.094 C 
ATOM     80  O3S IDS d 303      -1.278  -2.498  56.106  0.00  0.00    -0.572 OA
ATOM     81  H   IDS d 303      -1.571  -0.195  54.631  0.00  0.00     0.133 H 
ATOM     82  H   IDS d 303      -1.863   0.497  51.071  0.00  0.00     0.104 H 
ATOM     83  H   IDS d 303      -2.377  -2.185  50.113  0.00  0.00     0.210 HD
ATOM     84  H   IDS d 303      -0.240  -1.153  50.065  0.00  0.00     0.092 H 
ATOM     85  H   IDS d 303      -2.206  -2.367  53.549  0.00  0.00     0.097 H 
ATOM     86  H   IDS d 303      -0.863  -3.028  51.550  0.00  0.00     0.091 H 
ATOM     87  O1S UAP d 301       7.936   4.146  52.259  0.00  0.00    -0.572 OA
ATOM     88  O61 UAP d 301       8.856  -2.675  54.819  0.00  0.00    -0.642 OA
ATOM     89  C1  UAP d 301       6.581   0.377  52.307  0.00  0.00     0.167 C 
ATOM     90  O62 UAP d 301       8.863  -2.923  52.666  0.00  0.00    -0.642 OA
ATOM     91  O3S UAP d 301       8.449   3.824  54.486  0.00  0.00    -0.572 OA
ATOM     92  C6  UAP d 301       8.527  -2.315  53.686  0.00  0.00     0.233 C 
ATOM     93  O3  UAP d 301       5.770   0.661  55.337  0.00  0.00    -0.389 OA
ATOM     94  C3  UAP d 301       7.036   0.760  54.738  0.00  0.00     0.086 C 
ATOM     95  S   UAP d 301       8.748   3.390  53.149  0.00  0.00     0.252 S 
ATOM     96  O2  UAP d 301       8.305   1.719  52.983  0.00  0.00    -0.244 OA
ATOM     97  C5  UAP d 301       7.843  -1.193  53.581  0.00  0.00     0.147 C 
ATOM     98  O2S UAP d 301      10.148   3.506  52.816  0.00  0.00    -0.572 OA
ATOM     99  C2  UAP d 301       6.995   1.383  53.340  0.00  0.00     0.135 C 
ATOM    100  C4  UAP d 301       7.624  -0.542  54.715  0.00  0.00    -0.034 C 
ATOM    101  O5  UAP d 301       7.500  -0.719  52.359  0.00  0.00    -0.311 OA
ATOM    102  H   UAP d 301       6.592   0.736  51.299  0.00  0.00     0.134 H 
ATOM    103  H   UAP d 301       5.353   1.537  55.362  0.00  0.00     0.210 HD
ATOM    104  H   UAP d 301       7.634   1.427  55.322  0.00  0.00     0.093 H 
ATOM    105  H   UAP d 301       6.315   2.209  53.370  0.00  0.00     0.097 H 
ATOM    106  H   UAP d 301       7.887  -0.988  55.607  0.00  0.00     0.085 H 
ENDROOT
TORSDOF 33
ENDMDL
MODEL 10
REMARK VINA RESULT:      -7.3      3.095     11.005
REMARK  0 active torsions:
REMARK  status: ('A' for Active; 'I' for Inactive)
REMARK       I    between atoms: C4_1  and  O4_32 
REMARK       I    between atoms: C2_2  and  N_17 
REMARK       I    between atoms: C4_3  and  O4_45 
REMARK       I    between atoms: C5_5  and  C6_20 
REMARK       I    between atoms: C5_7  and  C6_42 
REMARK       I    between atoms: C2_8  and  N_48 
REMARK       I    between atoms: O1_9  and  C1_58 
REMARK       I    between atoms: O1_9  and  C4_62 
REMARK       I    between atoms: C3_11  and  O3_46 
REMARK       I    between atoms: O1S_13  and  S1_14 
REMARK       I    between atoms: S1_14  and  N_48 
REMARK       I    between atoms: S1_14  and  O2S_39 
REMARK       I    between atoms: S1_14  and  O3S_16 
REMARK       I    between atoms: N_17  and  S1_64 
REMARK       I    between atoms: C1_18  and  O4_45 
REMARK       I    between atoms: C6_20  and  O6_41 
REMARK       I    between atoms: O1S_22  and  S1_64 
REMARK       I    between atoms: O3S_25  and  S1_64 
REMARK       I    between atoms: O1_26  and  C1_61 
REMARK       I    between atoms: S_27  and  O2_57 
REMARK       I    between atoms: O6_29  and  C6_42 
REMARK       I    between atoms: O6_29  and  S2_68 
REMARK       I    between atoms: C6_30  and  C5_54 
REMARK       I    between atoms: C1_31  and  O4_32 
REMARK       I    between atoms: C5_35  and  C6_36 
REMARK       I    between atoms: O3_37  and  C3_38 
REMARK       I    between atoms: C3_40  and  O3_44 
REMARK       I    between atoms: O6_41  and  S2_52 
REMARK       I    between atoms: S_43  and  O2_53 
REMARK       I    between atoms: O3_47  and  C3_69 
REMARK       I    between atoms: O2S_49  and  S1_64 
REMARK       I    between atoms: O2_53  and  C2_59 
REMARK       I    between atoms: O2_57  and  C2_65 
ROOT
ATOM      1  C4  SGN d 304       5.751   2.533  52.014  0.00  0.00     0.095 C 
ATOM      2  C2  SGN d 304       7.152   4.492  51.236  0.00  0.00     0.081 C 
ATOM      3  O5S SGN d 304       3.555   1.557  47.921  0.00  0.00    -0.572 OA
ATOM      4  C5  SGN d 304       6.643   1.663  51.116  0.00  0.00     0.091 C 
ATOM      5  N   SGN d 304       8.106   5.476  51.741  0.00  0.00    -0.210 NA
ATOM      6  O4S SGN d 304       3.150  -0.424  49.149  0.00  0.00    -0.572 OA
ATOM      7  O1S SGN d 304       8.544   7.378  49.994  0.00  0.00    -0.296 OA
ATOM      8  O3S SGN d 304       6.593   7.607  51.244  0.00  0.00    -0.296 OA
ATOM      9  O1  SGN d 304       9.206   3.211  50.614  0.00  0.00    -0.369 OA
ATOM     10  O6  SGN d 304       5.518   0.531  49.371  0.00  0.00    -0.254 OA
ATOM     11  O4  SGN d 304       5.344   1.823  53.215  0.00  0.00    -0.348 OA
ATOM     12  O5  SGN d 304       7.043   2.414  49.948  0.00  0.00    -0.350 OA
ATOM     13  C3  SGN d 304       6.629   3.718  52.438  0.00  0.00     0.083 C 
ATOM     14  C6  SGN d 304       6.017   0.354  50.692  0.00  0.00     0.067 C 
ATOM     15  O3  SGN d 304       5.869   4.592  53.217  0.00  0.00    -0.391 OA
ATOM     16  O2S SGN d 304       8.666   8.006  52.247  0.00  0.00    -0.296 OA
ATOM     17  C1  SGN d 304       7.863   3.555  50.246  0.00  0.00     0.147 C 
ATOM     18  S1  SGN d 304       7.970   7.199  51.288  0.00  0.00     0.156 S 
ATOM     19  O6S SGN d 304       3.316   1.683  50.252  0.00  0.00    -0.572 OA
ATOM     20  S2  SGN d 304       3.795   0.864  49.163  0.00  0.00     0.251 S 
ATOM     21  H   SGN d 304       4.865   2.820  51.489  0.00  0.00     0.091 H 
ATOM     22  H   SGN d 304       6.339   4.960  50.720  0.00  0.00     0.076 H 
ATOM     23  H   SGN d 304       7.493   1.401  51.711  0.00  0.00     0.090 H 
ATOM     24  H   SGN d 304       9.030   5.168  51.438  0.00  0.00     0.140 HD
ATOM     25  H   SGN d 304       8.068   6.829  49.350  0.00  0.00     0.231 HD
ATOM     26  H   SGN d 304       6.116   7.064  50.596  0.00  0.00     0.231 HD
ATOM     27  H   SGN d 304       9.707   4.020  50.801  0.00  0.00     0.212 HD
ATOM     28  H   SGN d 304       7.462   3.328  52.984  0.00  0.00     0.089 H 
ATOM     29  H   SGN d 304       5.216   0.101  51.354  0.00  0.00     0.080 H 
ATOM     30  H   SGN d 304       6.736  -0.437  50.723  0.00  0.00     0.080 H 
ATOM     31  H   SGN d 304       5.123   4.928  52.694  0.00  0.00     0.210 HD
ATOM     32  H   SGN d 304       9.596   7.735  52.283  0.00  0.00     0.231 HD
ATOM     33  H   SGN d 304       7.990   4.109  49.340  0.00  0.00     0.131 H 
ATOM     34  C4  SGN d 302      -2.340   0.714  54.341  0.00  0.00     0.095 C 
ATOM     35  C5  SGN d 302      -1.533   1.993  54.167  0.00  0.00     0.091 C 
ATOM     36  C2  SGN d 302      -0.656  -0.143  55.853  0.00  0.00     0.081 C 
ATOM     37  O1  SGN d 302       1.127   1.196  54.891  0.00  0.00    -0.348 OA
ATOM     38  C3  SGN d 302      -1.415  -0.443  54.602  0.00  0.00     0.083 C 
ATOM     39  O1S SGN d 302       1.526  -2.820  57.564  0.00  0.00    -0.296 OA
ATOM     40  S1  SGN d 302       0.726  -1.608  57.605  0.00  0.00     0.156 S 
ATOM     41  O4S SGN d 302      -4.629   4.574  56.901  0.00  0.00    -0.572 OA
ATOM     42  O3S SGN d 302       1.387  -0.480  58.223  0.00  0.00    -0.296 OA
ATOM     43  C6  SGN d 302      -2.444   3.179  53.998  0.00  0.00     0.067 C 
ATOM     44  O6S SGN d 302      -3.432   5.722  55.256  0.00  0.00    -0.572 OA
ATOM     45  O5S SGN d 302      -5.429   4.509  54.716  0.00  0.00    -0.572 OA
ATOM     46  O2S SGN d 302      -0.510  -1.933  58.231  0.00  0.00    -0.296 OA
ATOM     47  O6  SGN d 302      -3.253   3.169  55.169  0.00  0.00    -0.254 OA
ATOM     48  O4  SGN d 302      -2.979   0.403  53.124  0.00  0.00    -0.348 OA
ATOM     49  O3  SGN d 302      -2.213  -1.594  54.765  0.00  0.00    -0.391 OA
ATOM     50  N   SGN d 302       0.403  -1.101  55.954  0.00  0.00    -0.210 NA
ATOM     51  S2  SGN d 302      -4.245   4.566  55.530  0.00  0.00     0.251 S 
ATOM     52  C1  SGN d 302       0.021   1.203  55.755  0.00  0.00     0.150 C 
ATOM     53  O5  SGN d 302      -0.895   2.209  55.386  0.00  0.00    -0.349 OA
ATOM     54  H   SGN d 302      -3.031   0.865  55.145  0.00  0.00     0.091 H 
ATOM     55  H   SGN d 302      -0.881   1.895  53.324  0.00  0.00     0.090 H 
ATOM     56  H   SGN d 302      -1.333  -0.164  56.681  0.00  0.00     0.076 H 
ATOM     57  H   SGN d 302      -0.724  -0.601  53.800  0.00  0.00     0.089 H 
ATOM     58  H   SGN d 302       1.018  -3.528  57.138  0.00  0.00     0.231 HD
ATOM     59  H   SGN d 302       2.222  -0.301  57.761  0.00  0.00     0.231 HD
ATOM     60  H   SGN d 302      -3.046   3.073  53.120  0.00  0.00     0.080 H 
ATOM     61  H   SGN d 302      -1.906   4.096  53.880  0.00  0.00     0.080 H 
ATOM     62  H   SGN d 302      -0.910  -2.693  57.781  0.00  0.00     0.231 HD
ATOM     63  H   SGN d 302      -2.839  -1.452  55.491  0.00  0.00     0.210 HD
ATOM     64  H   SGN d 302       1.252  -0.687  55.570  0.00  0.00     0.140 HD
ATOM     65  H   SGN d 302       0.394   1.423  56.734  0.00  0.00     0.131 H 
ATOM     66  O61 IDS d 303       1.059   4.481  54.919  0.00  0.00    -0.646 OA
ATOM     67  O5  IDS d 303       2.935   2.094  53.100  0.00  0.00    -0.340 OA
ATOM     68  S   IDS d 303       3.427  -2.195  53.813  0.00  0.00     0.252 S 
ATOM     69  C1  IDS d 303       4.047   1.199  53.240  0.00  0.00     0.161 C 
ATOM     70  C5  IDS d 303       2.662   2.893  54.265  0.00  0.00     0.152 C 
ATOM     71  C6  IDS d 303       1.517   3.825  53.968  0.00  0.00     0.206 C 
ATOM     72  O3  IDS d 303       4.453   1.774  56.284  0.00  0.00    -0.390 OA
ATOM     73  O2S IDS d 303       4.113  -2.731  54.967  0.00  0.00    -0.572 OA
ATOM     74  O62 IDS d 303       0.967   3.735  52.859  0.00  0.00    -0.646 OA
ATOM     75  O1S IDS d 303       2.309  -3.019  53.457  0.00  0.00    -0.572 OA
ATOM     76  O2  IDS d 303       2.819  -0.629  54.165  0.00  0.00    -0.244 OA
ATOM     77  C4  IDS d 303       2.230   1.969  55.387  0.00  0.00     0.103 C 
ATOM     78  C2  IDS d 303       3.798   0.305  54.462  0.00  0.00     0.134 C 
ATOM     79  C3  IDS d 303       3.389   1.048  55.735  0.00  0.00     0.094 C 
ATOM     80  O3S IDS d 303       4.402  -2.109  52.805  0.00  0.00    -0.572 OA
ATOM     81  H   IDS d 303       4.093   0.588  52.362  0.00  0.00     0.133 H 
ATOM     82  H   IDS d 303       3.534   3.450  54.537  0.00  0.00     0.104 H 
ATOM     83  H   IDS d 303       4.154   2.229  57.087  0.00  0.00     0.210 HD
ATOM     84  H   IDS d 303       1.946   2.515  56.262  0.00  0.00     0.092 H 
ATOM     85  H   IDS d 303       4.742  -0.153  54.669  0.00  0.00     0.097 H 
ATOM     86  H   IDS d 303       3.094   0.338  56.479  0.00  0.00     0.091 H 
ATOM     87  O1S UAP d 301      -6.154   3.071  50.447  0.00  0.00    -0.572 OA
ATOM     88  O61 UAP d 301      -5.675  -3.766  53.083  0.00  0.00    -0.642 OA
ATOM     89  C1  UAP d 301      -4.374   0.606  53.054  0.00  0.00     0.167 C 
ATOM     90  O62 UAP d 301      -6.111  -2.564  54.834  0.00  0.00    -0.642 OA
ATOM     91  O3S UAP d 301      -6.138   1.285  48.986  0.00  0.00    -0.572 OA
ATOM     92  C6  UAP d 301      -5.641  -2.698  53.700  0.00  0.00     0.233 C 
ATOM     93  O3  UAP d 301      -2.976  -0.948  50.697  0.00  0.00    -0.389 OA
ATOM     94  C3  UAP d 301      -4.343  -0.785  50.972  0.00  0.00     0.086 C 
ATOM     95  S   UAP d 301      -6.660   1.758  50.238  0.00  0.00     0.252 S 
ATOM     96  O2  UAP d 301      -6.064   0.749  51.519  0.00  0.00    -0.244 OA
ATOM     97  C5  UAP d 301      -5.136  -1.653  53.076  0.00  0.00     0.147 C 
ATOM     98  O2S UAP d 301      -8.102   1.732  50.297  0.00  0.00    -0.572 OA
ATOM     99  C2  UAP d 301      -4.677   0.578  51.585  0.00  0.00     0.135 C 
ATOM    100  C4  UAP d 301      -4.761  -1.857  51.820  0.00  0.00    -0.034 C 
ATOM    101  O5  UAP d 301      -5.121  -0.442  53.682  0.00  0.00    -0.311 OA
ATOM    102  H   UAP d 301      -4.644   1.513  53.552  0.00  0.00     0.134 H 
ATOM    103  H   UAP d 301      -2.674  -0.228  50.121  0.00  0.00     0.210 HD
ATOM    104  H   UAP d 301      -4.880  -0.812  50.048  0.00  0.00     0.093 H 
ATOM    105  H   UAP d 301      -4.112   1.320  51.060  0.00  0.00     0.097 H 
ATOM    106  H   UAP d 301      -4.772  -2.817  51.443  0.00  0.00     0.085 H 
ENDROOT
TORSDOF 33
ENDMDL
MODEL 11
REMARK VINA RESULT:      -7.1      3.439      6.028
REMARK  0 active torsions:
REMARK  status: ('A' for Active; 'I' for Inactive)
REMARK       I    between atoms: C4_1  and  O4_32 
REMARK       I    between atoms: C2_2  and  N_17 
REMARK       I    between atoms: C4_3  and  O4_45 
REMARK       I    between atoms: C5_5  and  C6_20 
REMARK       I    between atoms: C5_7  and  C6_42 
REMARK       I    between atoms: C2_8  and  N_48 
REMARK       I    between atoms: O1_9  and  C1_58 
REMARK       I    between atoms: O1_9  and  C4_62 
REMARK       I    between atoms: C3_11  and  O3_46 
REMARK       I    between atoms: O1S_13  and  S1_14 
REMARK       I    between atoms: S1_14  and  N_48 
REMARK       I    between atoms: S1_14  and  O2S_39 
REMARK       I    between atoms: S1_14  and  O3S_16 
REMARK       I    between atoms: N_17  and  S1_64 
REMARK       I    between atoms: C1_18  and  O4_45 
REMARK       I    between atoms: C6_20  and  O6_41 
REMARK       I    between atoms: O1S_22  and  S1_64 
REMARK       I    between atoms: O3S_25  and  S1_64 
REMARK       I    between atoms: O1_26  and  C1_61 
REMARK       I    between atoms: S_27  and  O2_57 
REMARK       I    between atoms: O6_29  and  C6_42 
REMARK       I    between atoms: O6_29  and  S2_68 
REMARK       I    between atoms: C6_30  and  C5_54 
REMARK       I    between atoms: C1_31  and  O4_32 
REMARK       I    between atoms: C5_35  and  C6_36 
REMARK       I    between atoms: O3_37  and  C3_38 
REMARK       I    between atoms: C3_40  and  O3_44 
REMARK       I    between atoms: O6_41  and  S2_52 
REMARK       I    between atoms: S_43  and  O2_53 
REMARK       I    between atoms: O3_47  and  C3_69 
REMARK       I    between atoms: O2S_49  and  S1_64 
REMARK       I    between atoms: O2_53  and  C2_59 
REMARK       I    between atoms: O2_57  and  C2_65 
ROOT
ATOM      1  C4  SGN d 304      -0.724  -4.015  52.683  0.00  0.00     0.095 C 
ATOM      2  C2  SGN d 304      -3.011  -4.976  53.186  0.00  0.00     0.081 C 
ATOM      3  O5S SGN d 304       0.995  -3.914  57.106  0.00  0.00    -0.572 OA
ATOM      4  C5  SGN d 304      -0.165  -5.391  53.078  0.00  0.00     0.091 C 
ATOM      5  N   SGN d 304      -4.260  -5.341  52.521  0.00  0.00    -0.210 NA
ATOM      6  O4S SGN d 304       2.973  -3.665  55.834  0.00  0.00    -0.572 OA
ATOM      7  O1S SGN d 304      -6.162  -5.838  54.252  0.00  0.00    -0.296 OA
ATOM      8  O3S SGN d 304      -5.782  -3.584  53.814  0.00  0.00    -0.296 OA
ATOM      9  O1  SGN d 304      -2.442  -7.388  52.859  0.00  0.00    -0.369 OA
ATOM     10  O6  SGN d 304       1.305  -5.389  54.930  0.00  0.00    -0.254 OA
ATOM     11  O4  SGN d 304       0.052  -3.408  51.615  0.00  0.00    -0.348 OA
ATOM     12  O5  SGN d 304      -0.979  -5.967  54.124  0.00  0.00    -0.350 OA
ATOM     13  C3  SGN d 304      -2.137  -4.285  52.149  0.00  0.00     0.083 C 
ATOM     14  C6  SGN d 304       1.283  -5.378  53.507  0.00  0.00     0.067 C 
ATOM     15  O3  SGN d 304      -2.738  -3.069  51.818  0.00  0.00    -0.391 OA
ATOM     16  O2S SGN d 304      -6.846  -4.911  52.212  0.00  0.00    -0.296 OA
ATOM     17  C1  SGN d 304      -2.329  -6.247  53.720  0.00  0.00     0.147 C 
ATOM     18  S1  SGN d 304      -5.837  -4.895  53.230  0.00  0.00     0.156 S 
ATOM     19  O6S SGN d 304       0.900  -2.786  55.051  0.00  0.00    -0.572 OA
ATOM     20  S2  SGN d 304       1.547  -3.855  55.775  0.00  0.00     0.251 S 
ATOM     21  H   SGN d 304      -0.701  -3.352  53.521  0.00  0.00     0.091 H 
ATOM     22  H   SGN d 304      -3.182  -4.322  54.015  0.00  0.00     0.076 H 
ATOM     23  H   SGN d 304      -0.203  -5.989  52.192  0.00  0.00     0.090 H 
ATOM     24  H   SGN d 304      -4.257  -6.357  52.433  0.00  0.00     0.140 HD
ATOM     25  H   SGN d 304      -5.476  -5.821  54.937  0.00  0.00     0.231 HD
ATOM     26  H   SGN d 304      -5.101  -3.566  54.504  0.00  0.00     0.231 HD
ATOM     27  H   SGN d 304      -3.372  -7.524  52.623  0.00  0.00     0.212 HD
ATOM     28  H   SGN d 304      -2.046  -4.924  51.296  0.00  0.00     0.089 H 
ATOM     29  H   SGN d 304       1.766  -4.496  53.140  0.00  0.00     0.080 H 
ATOM     30  H   SGN d 304       1.802  -6.228  53.114  0.00  0.00     0.080 H 
ATOM     31  H   SGN d 304      -2.806  -2.515  52.612  0.00  0.00     0.210 HD
ATOM     32  H   SGN d 304      -6.888  -5.795  51.813  0.00  0.00     0.231 HD
ATOM     33  H   SGN d 304      -2.875  -6.542  54.592  0.00  0.00     0.131 H 
ATOM     34  C4  SGN d 302       3.538   3.456  53.121  0.00  0.00     0.095 C 
ATOM     35  C5  SGN d 302       2.072   3.050  53.178  0.00  0.00     0.091 C 
ATOM     36  C2  SGN d 302       3.777   2.300  51.009  0.00  0.00     0.081 C 
ATOM     37  O1  SGN d 302       1.959   0.754  51.460  0.00  0.00    -0.348 OA
ATOM     38  C3  SGN d 302       4.333   2.407  52.392  0.00  0.00     0.083 C 
ATOM     39  O1S SGN d 302       5.576   0.255  48.281  0.00  0.00    -0.296 OA
ATOM     40  S1  SGN d 302       4.683   1.324  48.695  0.00  0.00     0.156 S 
ATOM     41  O4S SGN d 302       0.560   7.552  52.100  0.00  0.00    -0.572 OA
ATOM     42  O3S SGN d 302       3.389   1.302  48.049  0.00  0.00    -0.296 OA
ATOM     43  C6  SGN d 302       1.245   4.130  53.822  0.00  0.00     0.067 C 
ATOM     44  O6S SGN d 302      -0.875   6.208  53.363  0.00  0.00    -0.572 OA
ATOM     45  O5S SGN d 302       0.926   7.411  54.395  0.00  0.00    -0.572 OA
ATOM     46  O2S SGN d 302       5.373   2.555  48.505  0.00  0.00    -0.296 OA
ATOM     47  O6  SGN d 302       1.488   5.281  53.022  0.00  0.00    -0.254 OA
ATOM     48  O4  SGN d 302       4.065   3.468  54.429  0.00  0.00    -0.348 OA
ATOM     49  O3  SGN d 302       5.675   2.838  52.359  0.00  0.00    -0.391 OA
ATOM     50  N   SGN d 302       4.344   1.130  50.408  0.00  0.00    -0.210 NA
ATOM     51  S2  SGN d 302       0.474   6.694  53.233  0.00  0.00     0.251 S 
ATOM     52  C1  SGN d 302       2.288   2.056  51.050  0.00  0.00     0.150 C 
ATOM     53  O5  SGN d 302       1.637   3.012  51.856  0.00  0.00    -0.349 OA
ATOM     54  H   SGN d 302       3.599   4.411  52.642  0.00  0.00     0.091 H 
ATOM     55  H   SGN d 302       1.975   2.130  53.715  0.00  0.00     0.090 H 
ATOM     56  H   SGN d 302       3.996   3.202  50.477  0.00  0.00     0.076 H 
ATOM     57  H   SGN d 302       4.279   1.450  52.868  0.00  0.00     0.089 H 
ATOM     58  H   SGN d 302       6.418   0.336  48.755  0.00  0.00     0.231 HD
ATOM     59  H   SGN d 302       2.963   0.445  48.209  0.00  0.00     0.231 HD
ATOM     60  H   SGN d 302       1.558   4.297  54.831  0.00  0.00     0.080 H 
ATOM     61  H   SGN d 302       0.206   3.876  53.871  0.00  0.00     0.080 H 
ATOM     62  H   SGN d 302       6.231   2.517  48.955  0.00  0.00     0.231 HD
ATOM     63  H   SGN d 302       5.725   3.705  51.928  0.00  0.00     0.210 HD
ATOM     64  H   SGN d 302       3.688   0.358  50.522  0.00  0.00     0.140 HD
ATOM     65  H   SGN d 302       1.938   2.162  50.045  0.00  0.00     0.131 H 
ATOM     66  O61 IDS d 303      -1.131   1.773  51.920  0.00  0.00    -0.646 OA
ATOM     67  O5  IDS d 303       0.569  -1.255  52.608  0.00  0.00    -0.340 OA
ATOM     68  S   IDS d 303       4.458  -2.655  51.171  0.00  0.00     0.252 S 
ATOM     69  C1  IDS d 303       1.058  -2.438  51.961  0.00  0.00     0.161 C 
ATOM     70  C5  IDS d 303      -0.126  -0.343  51.738  0.00  0.00     0.152 C 
ATOM     71  C6  IDS d 303      -0.635   0.820  52.547  0.00  0.00     0.206 C 
ATOM     72  O3  IDS d 303       0.316  -1.477  49.082  0.00  0.00    -0.390 OA
ATOM     73  O2S IDS d 303       4.721  -2.977  49.787  0.00  0.00    -0.572 OA
ATOM     74  O62 IDS d 303      -0.349   0.859  53.754  0.00  0.00    -0.646 OA
ATOM     75  O1S IDS d 303       5.605  -2.044  51.778  0.00  0.00    -0.572 OA
ATOM     76  O2  IDS d 303       3.162  -1.536  51.280  0.00  0.00    -0.244 OA
ATOM     77  C4  IDS d 303       0.863   0.195  50.722  0.00  0.00     0.103 C 
ATOM     78  C2  IDS d 303       1.957  -2.015  50.792  0.00  0.00     0.134 C 
ATOM     79  C3  IDS d 303       1.357  -0.958  49.862  0.00  0.00     0.094 C 
ATOM     80  O3S IDS d 303       4.087  -3.870  51.773  0.00  0.00    -0.572 OA
ATOM     81  H   IDS d 303       1.641  -2.987  52.671  0.00  0.00     0.133 H 
ATOM     82  H   IDS d 303      -0.939  -0.846  51.258  0.00  0.00     0.104 H 
ATOM     83  H   IDS d 303      -0.037  -0.779  48.508  0.00  0.00     0.210 HD
ATOM     84  H   IDS d 303       0.417   0.933  50.089  0.00  0.00     0.092 H 
ATOM     85  H   IDS d 303       2.084  -2.899  50.204  0.00  0.00     0.097 H 
ATOM     86  H   IDS d 303       2.107  -0.623  49.177  0.00  0.00     0.091 H 
ATOM     87  O1S UAP d 301       2.615   6.018  58.399  0.00  0.00    -0.572 OA
ATOM     88  O61 UAP d 301       8.877   4.621  54.829  0.00  0.00    -0.642 OA
ATOM     89  C1  UAP d 301       4.321   4.727  55.013  0.00  0.00     0.167 C 
ATOM     90  O62 UAP d 301       7.840   6.013  53.531  0.00  0.00    -0.642 OA
ATOM     91  O3S UAP d 301       4.333   4.935  59.493  0.00  0.00    -0.572 OA
ATOM     92  C6  UAP d 301       7.842   5.132  54.396  0.00  0.00     0.233 C 
ATOM     93  O3  UAP d 301       5.397   2.157  56.484  0.00  0.00    -0.389 OA
ATOM     94  C3  UAP d 301       5.674   3.511  56.733  0.00  0.00     0.086 C 
ATOM     95  S   UAP d 301       4.024   6.005  58.585  0.00  0.00     0.252 S 
ATOM     96  O2  UAP d 301       4.761   5.675  57.048  0.00  0.00    -0.244 OA
ATOM     97  C5  UAP d 301       6.704   4.754  54.943  0.00  0.00     0.147 C 
ATOM     98  O2S UAP d 301       4.510   7.288  59.035  0.00  0.00    -0.572 OA
ATOM     99  C2  UAP d 301       4.477   4.430  56.475  0.00  0.00     0.135 C 
ATOM    100  C4  UAP d 301       6.805   3.890  55.945  0.00  0.00    -0.034 C 
ATOM    101  O5  UAP d 301       5.539   5.320  54.547  0.00  0.00    -0.311 OA
ATOM    102  H   UAP d 301       3.537   5.415  54.774  0.00  0.00     0.134 H 
ATOM    103  H   UAP d 301       4.631   1.881  57.011  0.00  0.00     0.210 HD
ATOM    104  H   UAP d 301       5.893   3.625  57.773  0.00  0.00     0.093 H 
ATOM    105  H   UAP d 301       3.605   3.948  56.867  0.00  0.00     0.097 H 
ATOM    106  H   UAP d 301       7.726   3.480  56.162  0.00  0.00     0.085 H 
ENDROOT
TORSDOF 33
ENDMDL
MODEL 12
REMARK VINA RESULT:      -7.0      2.797      5.608
REMARK  0 active torsions:
REMARK  status: ('A' for Active; 'I' for Inactive)
REMARK       I    between atoms: C4_1  and  O4_32 
REMARK       I    between atoms: C2_2  and  N_17 
REMARK       I    between atoms: C4_3  and  O4_45 
REMARK       I    between atoms: C5_5  and  C6_20 
REMARK       I    between atoms: C5_7  and  C6_42 
REMARK       I    between atoms: C2_8  and  N_48 
REMARK       I    between atoms: O1_9  and  C1_58 
REMARK       I    between atoms: O1_9  and  C4_62 
REMARK       I    between atoms: C3_11  and  O3_46 
REMARK       I    between atoms: O1S_13  and  S1_14 
REMARK       I    between atoms: S1_14  and  N_48 
REMARK       I    between atoms: S1_14  and  O2S_39 
REMARK       I    between atoms: S1_14  and  O3S_16 
REMARK       I    between atoms: N_17  and  S1_64 
REMARK       I    between atoms: C1_18  and  O4_45 
REMARK       I    between atoms: C6_20  and  O6_41 
REMARK       I    between atoms: O1S_22  and  S1_64 
REMARK       I    between atoms: O3S_25  and  S1_64 
REMARK       I    between atoms: O1_26  and  C1_61 
REMARK       I    between atoms: S_27  and  O2_57 
REMARK       I    between atoms: O6_29  and  C6_42 
REMARK       I    between atoms: O6_29  and  S2_68 
REMARK       I    between atoms: C6_30  and  C5_54 
REMARK       I    between atoms: C1_31  and  O4_32 
REMARK       I    between atoms: C5_35  and  C6_36 
REMARK       I    between atoms: O3_37  and  C3_38 
REMARK       I    between atoms: C3_40  and  O3_44 
REMARK       I    between atoms: O6_41  and  S2_52 
REMARK       I    between atoms: S_43  and  O2_53 
REMARK       I    between atoms: O3_47  and  C3_69 
REMARK       I    between atoms: O2S_49  and  S1_64 
REMARK       I    between atoms: O2_53  and  C2_59 
REMARK       I    between atoms: O2_57  and  C2_65 
ROOT
ATOM      1  C4  SGN d 304      -1.972  -0.123  53.319  0.00  0.00     0.095 C 
ATOM      2  C2  SGN d 304      -4.026   0.391  54.705  0.00  0.00     0.081 C 
ATOM      3  O5S SGN d 304       0.137  -3.180  56.274  0.00  0.00    -0.572 OA
ATOM      4  C5  SGN d 304      -2.558  -1.533  53.148  0.00  0.00     0.091 C 
ATOM      5  N   SGN d 304      -5.230   1.218  54.687  0.00  0.00    -0.210 NA
ATOM      6  O4S SGN d 304       1.302  -3.603  54.260  0.00  0.00    -0.572 OA
ATOM      7  O1S SGN d 304      -6.433   1.220  57.014  0.00  0.00    -0.296 OA
ATOM      8  O3S SGN d 304      -4.608   2.655  56.838  0.00  0.00    -0.296 OA
ATOM      9  O1  SGN d 304      -5.532  -1.353  53.735  0.00  0.00    -0.369 OA
ATOM     10  O6  SGN d 304      -1.229  -3.289  54.010  0.00  0.00    -0.254 OA
ATOM     11  O4  SGN d 304      -1.257   0.308  52.129  0.00  0.00    -0.348 OA
ATOM     12  O5  SGN d 304      -3.278  -1.911  54.342  0.00  0.00    -0.350 OA
ATOM     13  C3  SGN d 304      -3.181   0.803  53.509  0.00  0.00     0.083 C 
ATOM     14  C6  SGN d 304      -1.540  -2.596  52.806  0.00  0.00     0.067 C 
ATOM     15  O3  SGN d 304      -2.727   2.105  53.728  0.00  0.00    -0.391 OA
ATOM     16  O2S SGN d 304      -6.612   3.192  55.764  0.00  0.00    -0.296 OA
ATOM     17  C1  SGN d 304      -4.426  -1.092  54.611  0.00  0.00     0.147 C 
ATOM     18  S1  SGN d 304      -5.744   2.117  56.142  0.00  0.00     0.156 S 
ATOM     19  O6S SGN d 304       0.477  -1.423  54.757  0.00  0.00    -0.572 OA
ATOM     20  S2  SGN d 304       0.246  -2.843  54.876  0.00  0.00     0.251 S 
ATOM     21  H   SGN d 304      -1.284  -0.105  54.137  0.00  0.00     0.091 H 
ATOM     22  H   SGN d 304      -3.470   0.524  55.610  0.00  0.00     0.076 H 
ATOM     23  H   SGN d 304      -3.217  -1.477  52.307  0.00  0.00     0.090 H 
ATOM     24  H   SGN d 304      -6.003   0.602  54.437  0.00  0.00     0.140 HD
ATOM     25  H   SGN d 304      -5.840   0.495  57.266  0.00  0.00     0.231 HD
ATOM     26  H   SGN d 304      -4.016   1.931  57.097  0.00  0.00     0.231 HD
ATOM     27  H   SGN d 304      -6.272  -0.772  53.966  0.00  0.00     0.212 HD
ATOM     28  H   SGN d 304      -3.782   0.739  52.626  0.00  0.00     0.089 H 
ATOM     29  H   SGN d 304      -0.657  -2.142  52.407  0.00  0.00     0.080 H 
ATOM     30  H   SGN d 304      -1.929  -3.270  52.071  0.00  0.00     0.080 H 
ATOM     31  H   SGN d 304      -2.188   2.128  54.534  0.00  0.00     0.210 HD
ATOM     32  H   SGN d 304      -7.382   2.836  55.293  0.00  0.00     0.231 HD
ATOM     33  H   SGN d 304      -4.804  -1.367  55.573  0.00  0.00     0.131 H 
ATOM     34  C4  SGN d 302       6.380   1.938  52.880  0.00  0.00     0.095 C 
ATOM     35  C5  SGN d 302       5.162   2.527  53.578  0.00  0.00     0.091 C 
ATOM     36  C2  SGN d 302       5.218   2.047  50.760  0.00  0.00     0.081 C 
ATOM     37  O1  SGN d 302       3.014   1.926  51.772  0.00  0.00    -0.348 OA
ATOM     38  C3  SGN d 302       5.945   1.129  51.688  0.00  0.00     0.083 C 
ATOM     39  O1S SGN d 302       4.250   0.938  47.198  0.00  0.00    -0.296 OA
ATOM     40  S1  SGN d 302       4.569   1.967  48.171  0.00  0.00     0.156 S 
ATOM     41  O4S SGN d 302       7.326   6.851  54.167  0.00  0.00    -0.572 OA
ATOM     42  O3S SGN d 302       3.596   3.035  48.250  0.00  0.00    -0.296 OA
ATOM     43  C6  SGN d 302       5.580   3.416  54.718  0.00  0.00     0.067 C 
ATOM     44  O6S SGN d 302       5.688   6.246  55.719  0.00  0.00    -0.572 OA
ATOM     45  O5S SGN d 302       7.943   5.455  55.925  0.00  0.00    -0.572 OA
ATOM     46  O2S SGN d 302       5.881   2.438  47.881  0.00  0.00    -0.296 OA
ATOM     47  O6  SGN d 302       6.419   4.393  54.112  0.00  0.00    -0.254 OA
ATOM     48  O4  SGN d 302       7.001   1.011  53.742  0.00  0.00    -0.348 OA
ATOM     49  O3  SGN d 302       7.108   0.618  51.076  0.00  0.00    -0.391 OA
ATOM     50  N   SGN d 302       4.577   1.236  49.769  0.00  0.00    -0.210 NA
ATOM     51  S2  SGN d 302       6.875   5.812  55.030  0.00  0.00     0.251 S 
ATOM     52  C1  SGN d 302       4.103   2.763  51.483  0.00  0.00     0.150 C 
ATOM     53  O5  SGN d 302       4.575   3.389  52.654  0.00  0.00    -0.349 OA
ATOM     54  H   SGN d 302       7.026   2.744  52.603  0.00  0.00     0.091 H 
ATOM     55  H   SGN d 302       4.530   1.738  53.927  0.00  0.00     0.090 H 
ATOM     56  H   SGN d 302       5.914   2.750  50.353  0.00  0.00     0.076 H 
ATOM     57  H   SGN d 302       5.301   0.318  51.958  0.00  0.00     0.089 H 
ATOM     58  H   SGN d 302       4.944   0.261  47.203  0.00  0.00     0.231 HD
ATOM     59  H   SGN d 302       2.723   2.661  48.448  0.00  0.00     0.231 HD
ATOM     60  H   SGN d 302       6.118   2.859  55.456  0.00  0.00     0.080 H 
ATOM     61  H   SGN d 302       4.745   3.853  55.225  0.00  0.00     0.080 H 
ATOM     62  H   SGN d 302       6.492   1.686  47.839  0.00  0.00     0.231 HD
ATOM     63  H   SGN d 302       7.693   1.352  50.831  0.00  0.00     0.210 HD
ATOM     64  H   SGN d 302       3.611   1.076  50.056  0.00  0.00     0.140 HD
ATOM     65  H   SGN d 302       3.745   3.516  50.813  0.00  0.00     0.131 H 
ATOM     66  O61 IDS d 303       1.916   4.219  53.854  0.00  0.00    -0.646 OA
ATOM     67  O5  IDS d 303       0.885   0.919  53.092  0.00  0.00    -0.340 OA
ATOM     68  S   IDS d 303       1.995  -1.638  49.718  0.00  0.00     0.252 S 
ATOM     69  C1  IDS d 303       0.175   0.168  52.098  0.00  0.00     0.161 C 
ATOM     70  C5  IDS d 303       0.938   2.336  52.845  0.00  0.00     0.152 C 
ATOM     71  C6  IDS d 303       1.655   3.010  53.984  0.00  0.00     0.206 C 
ATOM     72  O3  IDS d 303      -0.196   2.595  50.164  0.00  0.00    -0.390 OA
ATOM     73  O2S IDS d 303       1.625  -1.348  48.352  0.00  0.00    -0.572 OA
ATOM     74  O62 IDS d 303       2.123   2.293  54.883  0.00  0.00    -0.646 OA
ATOM     75  O1S IDS d 303       3.305  -2.217  49.780  0.00  0.00    -0.572 OA
ATOM     76  O2  IDS d 303       2.032  -0.189  50.638  0.00  0.00    -0.244 OA
ATOM     77  C4  IDS d 303       1.746   2.571  51.583  0.00  0.00     0.103 C 
ATOM     78  C2  IDS d 303       0.809   0.455  50.730  0.00  0.00     0.134 C 
ATOM     79  C3  IDS d 303       1.016   1.937  50.410  0.00  0.00     0.094 C 
ATOM     80  O3S IDS d 303       0.985  -2.484  50.208  0.00  0.00    -0.572 OA
ATOM     81  H   IDS d 303       0.287  -0.872  52.325  0.00  0.00     0.133 H 
ATOM     82  H   IDS d 303      -0.054   2.726  52.747  0.00  0.00     0.104 H 
ATOM     83  H   IDS d 303      -0.022   3.528  49.966  0.00  0.00     0.210 HD
ATOM     84  H   IDS d 303       1.878   3.614  51.387  0.00  0.00     0.092 H 
ATOM     85  H   IDS d 303       0.105   0.086  50.014  0.00  0.00     0.097 H 
ATOM     86  H   IDS d 303       1.594   2.027  49.514  0.00  0.00     0.091 H 
ATOM     87  O1S UAP d 301       8.832   1.650  58.281  0.00  0.00    -0.572 OA
ATOM     88  O61 UAP d 301      10.989  -1.319  51.921  0.00  0.00    -0.642 OA
ATOM     89  C1  UAP d 301       8.226   1.394  54.330  0.00  0.00     0.167 C 
ATOM     90  O62 UAP d 301      11.092   0.815  51.558  0.00  0.00    -0.642 OA
ATOM     91  O3S UAP d 301       9.347  -0.597  58.189  0.00  0.00    -0.572 OA
ATOM     92  C6  UAP d 301      10.622  -0.164  52.146  0.00  0.00     0.233 C 
ATOM     93  O3  UAP d 301       7.308  -1.606  54.621  0.00  0.00    -0.389 OA
ATOM     94  C3  UAP d 301       8.544  -1.016  54.930  0.00  0.00     0.086 C 
ATOM     95  S   UAP d 301       9.753   0.708  57.747  0.00  0.00     0.252 S 
ATOM     96  O2  UAP d 301       9.645   0.780  56.016  0.00  0.00    -0.244 OA
ATOM     97  C5  UAP d 301       9.738   0.015  53.107  0.00  0.00     0.147 C 
ATOM     98  O2S UAP d 301      11.112   1.033  58.113  0.00  0.00    -0.572 OA
ATOM     99  C2  UAP d 301       8.415   0.418  55.453  0.00  0.00     0.135 C 
ATOM    100  C4  UAP d 301       9.373  -1.076  53.767  0.00  0.00    -0.034 C 
ATOM    101  O5  UAP d 301       9.337   1.267  53.437  0.00  0.00    -0.311 OA
ATOM    102  H   UAP d 301       8.190   2.421  54.627  0.00  0.00     0.134 H 
ATOM    103  H   UAP d 301       6.731  -1.574  55.400  0.00  0.00     0.210 HD
ATOM    104  H   UAP d 301       8.991  -1.565  55.731  0.00  0.00     0.093 H 
ATOM    105  H   UAP d 301       7.590   0.445  56.133  0.00  0.00     0.097 H 
ATOM    106  H   UAP d 301       9.697  -1.996  53.431  0.00  0.00     0.085 H 
ENDROOT
TORSDOF 33
ENDMDL
MODEL 13
REMARK VINA RESULT:      -7.0      3.335     10.908
REMARK  0 active torsions:
REMARK  status: ('A' for Active; 'I' for Inactive)
REMARK       I    between atoms: C4_1  and  O4_32 
REMARK       I    between atoms: C2_2  and  N_17 
REMARK       I    between atoms: C4_3  and  O4_45 
REMARK       I    between atoms: C5_5  and  C6_20 
REMARK       I    between atoms: C5_7  and  C6_42 
REMARK       I    between atoms: C2_8  and  N_48 
REMARK       I    between atoms: O1_9  and  C1_58 
REMARK       I    between atoms: O1_9  and  C4_62 
REMARK       I    between atoms: C3_11  and  O3_46 
REMARK       I    between atoms: O1S_13  and  S1_14 
REMARK       I    between atoms: S1_14  and  N_48 
REMARK       I    between atoms: S1_14  and  O2S_39 
REMARK       I    between atoms: S1_14  and  O3S_16 
REMARK       I    between atoms: N_17  and  S1_64 
REMARK       I    between atoms: C1_18  and  O4_45 
REMARK       I    between atoms: C6_20  and  O6_41 
REMARK       I    between atoms: O1S_22  and  S1_64 
REMARK       I    between atoms: O3S_25  and  S1_64 
REMARK       I    between atoms: O1_26  and  C1_61 
REMARK       I    between atoms: S_27  and  O2_57 
REMARK       I    between atoms: O6_29  and  C6_42 
REMARK       I    between atoms: O6_29  and  S2_68 
REMARK       I    between atoms: C6_30  and  C5_54 
REMARK       I    between atoms: C1_31  and  O4_32 
REMARK       I    between atoms: C5_35  and  C6_36 
REMARK       I    between atoms: O3_37  and  C3_38 
REMARK       I    between atoms: C3_40  and  O3_44 
REMARK       I    between atoms: O6_41  and  S2_52 
REMARK       I    between atoms: S_43  and  O2_53 
REMARK       I    between atoms: O3_47  and  C3_69 
REMARK       I    between atoms: O2S_49  and  S1_64 
REMARK       I    between atoms: O2_53  and  C2_59 
REMARK       I    between atoms: O2_57  and  C2_65 
ROOT
ATOM      1  C4  SGN d 304       5.052  -1.237  52.195  0.00  0.00     0.095 C 
ATOM      2  C2  SGN d 304       6.219  -3.240  51.180  0.00  0.00     0.081 C 
ATOM      3  O5S SGN d 304       3.629  -3.227  56.262  0.00  0.00    -0.572 OA
ATOM      4  C5  SGN d 304       6.187  -1.222  53.231  0.00  0.00     0.091 C 
ATOM      5  N   SGN d 304       6.927  -3.647  49.968  0.00  0.00    -0.210 NA
ATOM      6  O4S SGN d 304       3.376  -0.928  56.757  0.00  0.00    -0.572 OA
ATOM      7  O1S SGN d 304       7.296  -6.240  49.894  0.00  0.00    -0.296 OA
ATOM      8  O3S SGN d 304       5.179  -5.519  49.246  0.00  0.00    -0.296 OA
ATOM      9  O1  SGN d 304       8.517  -2.764  52.042  0.00  0.00    -0.369 OA
ATOM     10  O6  SGN d 304       5.509  -1.539  55.474  0.00  0.00    -0.254 OA
ATOM     11  O4  SGN d 304       4.600   0.107  51.877  0.00  0.00    -0.348 OA
ATOM     12  O5  SGN d 304       6.621  -2.574  53.500  0.00  0.00    -0.350 OA
ATOM     13  C3  SGN d 304       5.664  -1.846  50.927  0.00  0.00     0.083 C 
ATOM     14  C6  SGN d 304       5.841  -0.529  54.528  0.00  0.00     0.067 C 
ATOM     15  O3  SGN d 304       4.674  -1.946  49.947  0.00  0.00    -0.391 OA
ATOM     16  O2S SGN d 304       7.003  -5.185  47.824  0.00  0.00    -0.296 OA
ATOM     17  C1  SGN d 304       7.201  -3.234  52.364  0.00  0.00     0.147 C 
ATOM     18  S1  SGN d 304       6.583  -5.220  49.194  0.00  0.00     0.156 S 
ATOM     19  O6S SGN d 304       3.052  -1.741  54.540  0.00  0.00    -0.572 OA
ATOM     20  S2  SGN d 304       3.800  -1.883  55.766  0.00  0.00     0.251 S 
ATOM     21  H   SGN d 304       4.214  -1.782  52.573  0.00  0.00     0.091 H 
ATOM     22  H   SGN d 304       5.423  -3.914  51.416  0.00  0.00     0.076 H 
ATOM     23  H   SGN d 304       6.977  -0.648  52.794  0.00  0.00     0.090 H 
ATOM     24  H   SGN d 304       7.921  -3.647  50.197  0.00  0.00     0.140 HD
ATOM     25  H   SGN d 304       7.007  -6.258  50.821  0.00  0.00     0.231 HD
ATOM     26  H   SGN d 304       4.889  -5.544  50.172  0.00  0.00     0.231 HD
ATOM     27  H   SGN d 304       8.852  -3.245  51.270  0.00  0.00     0.212 HD
ATOM     28  H   SGN d 304       6.465  -1.209  50.613  0.00  0.00     0.089 H 
ATOM     29  H   SGN d 304       5.006   0.124  54.382  0.00  0.00     0.080 H 
ATOM     30  H   SGN d 304       6.665   0.059  54.875  0.00  0.00     0.080 H 
ATOM     31  H   SGN d 304       3.965  -2.529  50.262  0.00  0.00     0.210 HD
ATOM     32  H   SGN d 304       7.950  -4.983  47.781  0.00  0.00     0.231 HD
ATOM     33  H   SGN d 304       7.363  -4.257  52.630  0.00  0.00     0.131 H 
ATOM     34  C4  SGN d 302      -2.892   1.866  53.396  0.00  0.00     0.095 C 
ATOM     35  C5  SGN d 302      -2.281   0.787  52.514  0.00  0.00     0.091 C 
ATOM     36  C2  SGN d 302      -1.320   3.480  52.511  0.00  0.00     0.081 C 
ATOM     37  O1  SGN d 302       0.345   1.800  51.955  0.00  0.00    -0.348 OA
ATOM     38  C3  SGN d 302      -1.840   2.874  53.774  0.00  0.00     0.083 C 
ATOM     39  O1S SGN d 302       1.000   6.557  52.572  0.00  0.00    -0.296 OA
ATOM     40  S1  SGN d 302       0.021   5.710  51.914  0.00  0.00     0.156 S 
ATOM     41  O4S SGN d 302      -6.097   0.802  49.486  0.00  0.00    -0.572 OA
ATOM     42  O3S SGN d 302       0.402   5.279  50.587  0.00  0.00    -0.296 OA
ATOM     43  C6  SGN d 302      -3.337  -0.180  52.048  0.00  0.00     0.067 C 
ATOM     44  O6S SGN d 302      -4.879  -1.183  49.674  0.00  0.00    -0.572 OA
ATOM     45  O5S SGN d 302      -6.565  -0.606  51.280  0.00  0.00    -0.572 OA
ATOM     46  O2S SGN d 302      -1.224   6.401  51.932  0.00  0.00    -0.296 OA
ATOM     47  O6  SGN d 302      -4.288   0.636  51.376  0.00  0.00    -0.254 OA
ATOM     48  O4  SGN d 302      -3.298   1.290  54.617  0.00  0.00    -0.348 OA
ATOM     49  O3  SGN d 302      -2.460   3.852  54.578  0.00  0.00    -0.391 OA
ATOM     50  N   SGN d 302      -0.147   4.229  52.845  0.00  0.00    -0.210 NA
ATOM     51  S2  SGN d 302      -5.530  -0.126  50.404  0.00  0.00     0.251 S 
ATOM     52  C1  SGN d 302      -0.857   2.405  51.556  0.00  0.00     0.150 C 
ATOM     53  O5  SGN d 302      -1.861   1.436  51.355  0.00  0.00    -0.349 OA
ATOM     54  H   SGN d 302      -3.703   2.314  52.860  0.00  0.00     0.091 H 
ATOM     55  H   SGN d 302      -1.512   0.275  53.053  0.00  0.00     0.090 H 
ATOM     56  H   SGN d 302      -2.093   4.070  52.066  0.00  0.00     0.076 H 
ATOM     57  H   SGN d 302      -1.028   2.433  54.314  0.00  0.00     0.089 H 
ATOM     58  H   SGN d 302       0.675   6.803  53.452  0.00  0.00     0.231 HD
ATOM     59  H   SGN d 302       1.254   4.816  50.630  0.00  0.00     0.231 HD
ATOM     60  H   SGN d 302      -3.787  -0.680  52.880  0.00  0.00     0.080 H 
ATOM     61  H   SGN d 302      -2.939  -0.949  51.419  0.00  0.00     0.080 H 
ATOM     62  H   SGN d 302      -1.432   6.667  52.841  0.00  0.00     0.231 HD
ATOM     63  H   SGN d 302      -3.197   4.252  54.090  0.00  0.00     0.210 HD
ATOM     64  H   SGN d 302       0.671   3.645  52.673  0.00  0.00     0.140 HD
ATOM     65  H   SGN d 302      -0.664   2.894  50.625  0.00  0.00     0.131 H 
ATOM     66  O61 IDS d 303      -0.246  -0.602  49.793  0.00  0.00    -0.646 OA
ATOM     67  O5  IDS d 303       2.219  -0.114  52.286  0.00  0.00    -0.340 OA
ATOM     68  S   IDS d 303       3.280   3.520  54.482  0.00  0.00     0.252 S 
ATOM     69  C1  IDS d 303       3.428   0.614  52.539  0.00  0.00     0.161 C 
ATOM     70  C5  IDS d 303       1.663   0.090  50.974  0.00  0.00     0.152 C 
ATOM     71  C6  IDS d 303       0.438  -0.771  50.817  0.00  0.00     0.206 C 
ATOM     72  O3  IDS d 303       3.311   2.235  49.871  0.00  0.00    -0.390 OA
ATOM     73  O2S IDS d 303       3.876   4.677  53.854  0.00  0.00    -0.572 OA
ATOM     74  O62 IDS d 303       0.068  -1.440  51.795  0.00  0.00    -0.646 OA
ATOM     75  O1S IDS d 303       2.366   3.914  55.515  0.00  0.00    -0.572 OA
ATOM     76  O2  IDS d 303       2.389   2.616  53.326  0.00  0.00    -0.244 OA
ATOM     77  C4  IDS d 303       1.232   1.539  50.858  0.00  0.00     0.103 C 
ATOM     78  C2  IDS d 303       3.157   2.104  52.293  0.00  0.00     0.134 C 
ATOM     79  C3  IDS d 303       2.462   2.426  50.968  0.00  0.00     0.094 C 
ATOM     80  O3S IDS d 303       4.360   2.753  54.952  0.00  0.00    -0.572 OA
ATOM     81  H   IDS d 303       3.692   0.472  53.567  0.00  0.00     0.133 H 
ATOM     82  H   IDS d 303       2.390  -0.158  50.229  0.00  0.00     0.104 H 
ATOM     83  H   IDS d 303       2.835   2.449  49.053  0.00  0.00     0.210 HD
ATOM     84  H   IDS d 303       0.746   1.733  49.925  0.00  0.00     0.092 H 
ATOM     85  H   IDS d 303       4.123   2.560  52.246  0.00  0.00     0.097 H 
ATOM     86  H   IDS d 303       2.183   3.459  50.956  0.00  0.00     0.091 H 
ATOM     87  O1S UAP d 301      -6.453  -2.409  55.470  0.00  0.00    -0.572 OA
ATOM     88  O61 UAP d 301      -5.268   4.401  57.947  0.00  0.00    -0.642 OA
ATOM     89  C1  UAP d 301      -4.684   1.126  54.826  0.00  0.00     0.167 C 
ATOM     90  O62 UAP d 301      -6.127   4.706  55.981  0.00  0.00    -0.642 OA
ATOM     91  O3S UAP d 301      -5.951  -2.078  57.697  0.00  0.00    -0.572 OA
ATOM     92  C6  UAP d 301      -5.489   4.029  56.792  0.00  0.00     0.233 C 
ATOM     93  O3  UAP d 301      -2.744   0.648  57.262  0.00  0.00    -0.389 OA
ATOM     94  C3  UAP d 301      -4.145   0.746  57.241  0.00  0.00     0.086 C 
ATOM     95  S   UAP d 301      -6.711  -1.570  56.589  0.00  0.00     0.252 S 
ATOM     96  O2  UAP d 301      -6.146   0.025  56.198  0.00  0.00    -0.244 OA
ATOM     97  C5  UAP d 301      -5.075   2.825  56.453  0.00  0.00     0.147 C 
ATOM     98  O2S UAP d 301      -8.125  -1.477  56.865  0.00  0.00    -0.572 OA
ATOM     99  C2  UAP d 301      -4.772   0.162  55.972  0.00  0.00     0.135 C 
ATOM    100  C4  UAP d 301      -4.502   2.118  57.418  0.00  0.00    -0.034 C 
ATOM    101  O5  UAP d 301      -5.336   2.340  55.215  0.00  0.00    -0.311 OA
ATOM    102  H   UAP d 301      -5.161   0.800  53.926  0.00  0.00     0.134 H 
ATOM    103  H   UAP d 301      -2.483  -0.279  57.143  0.00  0.00     0.210 HD
ATOM    104  H   UAP d 301      -4.537   0.155  58.042  0.00  0.00     0.093 H 
ATOM    105  H   UAP d 301      -4.265  -0.753  55.747  0.00  0.00     0.097 H 
ATOM    106  H   UAP d 301      -4.308   2.573  58.324  0.00  0.00     0.085 H 
ENDROOT
TORSDOF 33
ENDMDL
MODEL 14
REMARK VINA RESULT:      -6.8      3.069     11.237
REMARK  0 active torsions:
REMARK  status: ('A' for Active; 'I' for Inactive)
REMARK       I    between atoms: C4_1  and  O4_32 
REMARK       I    between atoms: C2_2  and  N_17 
REMARK       I    between atoms: C4_3  and  O4_45 
REMARK       I    between atoms: C5_5  and  C6_20 
REMARK       I    between atoms: C5_7  and  C6_42 
REMARK       I    between atoms: C2_8  and  N_48 
REMARK       I    between atoms: O1_9  and  C1_58 
REMARK       I    between atoms: O1_9  and  C4_62 
REMARK       I    between atoms: C3_11  and  O3_46 
REMARK       I    between atoms: O1S_13  and  S1_14 
REMARK       I    between atoms: S1_14  and  N_48 
REMARK       I    between atoms: S1_14  and  O2S_39 
REMARK       I    between atoms: S1_14  and  O3S_16 
REMARK       I    between atoms: N_17  and  S1_64 
REMARK       I    between atoms: C1_18  and  O4_45 
REMARK       I    between atoms: C6_20  and  O6_41 
REMARK       I    between atoms: O1S_22  and  S1_64 
REMARK       I    between atoms: O3S_25  and  S1_64 
REMARK       I    between atoms: O1_26  and  C1_61 
REMARK       I    between atoms: S_27  and  O2_57 
REMARK       I    between atoms: O6_29  and  C6_42 
REMARK       I    between atoms: O6_29  and  S2_68 
REMARK       I    between atoms: C6_30  and  C5_54 
REMARK       I    between atoms: C1_31  and  O4_32 
REMARK       I    between atoms: C5_35  and  C6_36 
REMARK       I    between atoms: O3_37  and  C3_38 
REMARK       I    between atoms: C3_40  and  O3_44 
REMARK       I    between atoms: O6_41  and  S2_52 
REMARK       I    between atoms: S_43  and  O2_53 
REMARK       I    between atoms: O3_47  and  C3_69 
REMARK       I    between atoms: O2S_49  and  S1_64 
REMARK       I    between atoms: O2_53  and  C2_59 
REMARK       I    between atoms: O2_57  and  C2_65 
ROOT
ATOM      1  C4  SGN d 304       7.557  -2.060  54.685  0.00  0.00     0.095 C 
ATOM      2  C2  SGN d 304       9.485  -3.499  55.471  0.00  0.00     0.081 C 
ATOM      3  O5S SGN d 304       4.956  -2.123  58.654  0.00  0.00    -0.572 OA
ATOM      4  C5  SGN d 304       8.064  -1.006  55.681  0.00  0.00     0.091 C 
ATOM      5  N   SGN d 304      10.736  -4.082  54.991  0.00  0.00    -0.210 NA
ATOM      6  O4S SGN d 304       3.982  -0.309  57.490  0.00  0.00    -0.572 OA
ATOM      7  O1S SGN d 304      11.687  -5.845  56.679  0.00  0.00    -0.296 OA
ATOM      8  O3S SGN d 304       9.989  -6.618  55.288  0.00  0.00    -0.296 OA
ATOM      9  O1  SGN d 304      10.966  -1.659  56.292  0.00  0.00    -0.369 OA
ATOM     10  O6  SGN d 304       6.541  -0.420  57.392  0.00  0.00    -0.254 OA
ATOM     11  O4  SGN d 304       7.001  -1.446  53.492  0.00  0.00    -0.348 OA
ATOM     12  O5  SGN d 304       8.629  -1.659  56.840  0.00  0.00    -0.350 OA
ATOM     13  C3  SGN d 304       8.798  -2.863  54.272  0.00  0.00     0.083 C 
ATOM     14  C6  SGN d 304       7.020  -0.005  56.118  0.00  0.00     0.067 C 
ATOM     15  O3  SGN d 304       8.411  -3.885  53.404  0.00  0.00    -0.391 OA
ATOM     16  O2S SGN d 304      12.125  -6.251  54.415  0.00  0.00    -0.296 OA
ATOM     17  C1  SGN d 304       9.795  -2.447  56.550  0.00  0.00     0.147 C 
ATOM     18  S1  SGN d 304      11.154  -5.780  55.357  0.00  0.00     0.156 S 
ATOM     19  O6S SGN d 304       4.892  -2.169  56.309  0.00  0.00    -0.572 OA
ATOM     20  S2  SGN d 304       5.016  -1.311  57.464  0.00  0.00     0.251 S 
ATOM     21  H   SGN d 304       6.790  -2.655  55.134  0.00  0.00     0.091 H 
ATOM     22  H   SGN d 304       8.848  -4.239  55.908  0.00  0.00     0.076 H 
ATOM     23  H   SGN d 304       8.810  -0.443  55.159  0.00  0.00     0.090 H 
ATOM     24  H   SGN d 304      11.489  -3.509  55.372  0.00  0.00     0.140 HD
ATOM     25  H   SGN d 304      11.025  -5.525  57.312  0.00  0.00     0.231 HD
ATOM     26  H   SGN d 304       9.327  -6.304  55.923  0.00  0.00     0.231 HD
ATOM     27  H   SGN d 304      11.714  -2.246  56.104  0.00  0.00     0.212 HD
ATOM     28  H   SGN d 304       9.483  -2.187  53.803  0.00  0.00     0.089 H 
ATOM     29  H   SGN d 304       6.215   0.015  55.413  0.00  0.00     0.080 H 
ATOM     30  H   SGN d 304       7.438   0.979  56.173  0.00  0.00     0.080 H 
ATOM     31  H   SGN d 304       7.793  -4.479  53.858  0.00  0.00     0.210 HD
ATOM     32  H   SGN d 304      12.915  -5.689  54.456  0.00  0.00     0.231 HD
ATOM     33  H   SGN d 304      10.052  -2.986  57.437  0.00  0.00     0.131 H 
ATOM     34  C4  SGN d 302      -0.549  -2.842  51.882  0.00  0.00     0.095 C 
ATOM     35  C5  SGN d 302       0.625  -3.795  52.055  0.00  0.00     0.091 C 
ATOM     36  C2  SGN d 302       0.832  -1.385  50.531  0.00  0.00     0.081 C 
ATOM     37  O1  SGN d 302       2.906  -2.126  51.554  0.00  0.00    -0.348 OA
ATOM     38  C3  SGN d 302      -0.047  -1.431  51.738  0.00  0.00     0.083 C 
ATOM     39  O1S SGN d 302       2.091   1.964  49.097  0.00  0.00    -0.296 OA
ATOM     40  S1  SGN d 302       1.740   0.563  48.946  0.00  0.00     0.156 S 
ATOM     41  O4S SGN d 302      -1.299  -7.063  49.000  0.00  0.00    -0.572 OA
ATOM     42  O3S SGN d 302       2.768  -0.245  48.326  0.00  0.00    -0.296 OA
ATOM     43  C6  SGN d 302       0.150  -5.222  52.108  0.00  0.00     0.067 C 
ATOM     44  O6S SGN d 302       0.124  -7.860  50.672  0.00  0.00    -0.572 OA
ATOM     45  O5S SGN d 302      -2.187  -7.406  51.125  0.00  0.00    -0.572 OA
ATOM     46  O2S SGN d 302       0.500   0.504  48.250  0.00  0.00    -0.296 OA
ATOM     47  O6  SGN d 302      -0.556  -5.401  50.885  0.00  0.00    -0.254 OA
ATOM     48  O4  SGN d 302      -1.317  -2.836  53.065  0.00  0.00    -0.348 OA
ATOM     49  O3  SGN d 302      -1.170  -0.596  51.571  0.00  0.00    -0.391 OA
ATOM     50  N   SGN d 302       1.518  -0.128  50.546  0.00  0.00    -0.210 NA
ATOM     51  S2  SGN d 302      -1.011  -7.019  50.394  0.00  0.00     0.251 S 
ATOM     52  C1  SGN d 302       1.910  -2.438  50.616  0.00  0.00     0.150 C 
ATOM     53  O5  SGN d 302       1.361  -3.710  50.875  0.00  0.00    -0.349 OA
ATOM     54  H   SGN d 302      -1.109  -3.157  51.027  0.00  0.00     0.091 H 
ATOM     55  H   SGN d 302       1.164  -3.544  52.945  0.00  0.00     0.090 H 
ATOM     56  H   SGN d 302       0.230  -1.532  49.659  0.00  0.00     0.076 H 
ATOM     57  H   SGN d 302       0.511  -1.107  52.593  0.00  0.00     0.089 H 
ATOM     58  H   SGN d 302       1.357   2.438  49.517  0.00  0.00     0.231 HD
ATOM     59  H   SGN d 302       3.589  -0.170  48.837  0.00  0.00     0.231 HD
ATOM     60  H   SGN d 302      -0.498  -5.375  52.945  0.00  0.00     0.080 H 
ATOM     61  H   SGN d 302       0.954  -5.918  52.222  0.00  0.00     0.080 H 
ATOM     62  H   SGN d 302      -0.152   1.061  48.704  0.00  0.00     0.231 HD
ATOM     63  H   SGN d 302      -1.677  -0.888  50.797  0.00  0.00     0.210 HD
ATOM     64  H   SGN d 302       2.436  -0.266  50.970  0.00  0.00     0.140 HD
ATOM     65  H   SGN d 302       2.384  -2.460  49.657  0.00  0.00     0.131 H 
ATOM     66  O61 IDS d 303       3.929  -5.244  51.377  0.00  0.00    -0.646 OA
ATOM     67  O5  IDS d 303       4.815  -2.497  53.426  0.00  0.00    -0.340 OA
ATOM     68  S   IDS d 303       3.897   1.754  52.939  0.00  0.00     0.252 S 
ATOM     69  C1  IDS d 303       5.574  -1.281  53.404  0.00  0.00     0.161 C 
ATOM     70  C5  IDS d 303       4.881  -3.264  52.211  0.00  0.00     0.152 C 
ATOM     71  C6  IDS d 303       4.095  -4.537  52.386  0.00  0.00     0.206 C 
ATOM     72  O3  IDS d 303       6.302  -1.493  50.373  0.00  0.00    -0.390 OA
ATOM     73  O2S IDS d 303       4.426   2.559  51.861  0.00  0.00    -0.572 OA
ATOM     74  O62 IDS d 303       3.490  -4.704  53.457  0.00  0.00    -0.646 OA
ATOM     75  O1S IDS d 303       2.552   2.142  53.252  0.00  0.00    -0.572 OA
ATOM     76  O2  IDS d 303       3.860   0.101  52.477  0.00  0.00    -0.244 OA
ATOM     77  C4  IDS d 303       4.226  -2.462  51.103  0.00  0.00     0.103 C 
ATOM     78  C2  IDS d 303       5.106  -0.440  52.208  0.00  0.00     0.134 C 
ATOM     79  C3  IDS d 303       5.031  -1.192  50.878  0.00  0.00     0.094 C 
ATOM     80  O3S IDS d 303       4.793   1.927  54.009  0.00  0.00    -0.572 OA
ATOM     81  H   IDS d 303       5.370  -0.746  54.309  0.00  0.00     0.133 H 
ATOM     82  H   IDS d 303       5.901  -3.487  51.976  0.00  0.00     0.104 H 
ATOM     83  H   IDS d 303       6.212  -1.967  49.532  0.00  0.00     0.210 HD
ATOM     84  H   IDS d 303       4.184  -3.013  50.187  0.00  0.00     0.092 H 
ATOM     85  H   IDS d 303       5.855   0.314  52.088  0.00  0.00     0.097 H 
ATOM     86  H   IDS d 303       4.557  -0.570  50.147  0.00  0.00     0.091 H 
ATOM     87  O1S UAP d 301      -3.565  -6.563  55.393  0.00  0.00    -0.572 OA
ATOM     88  O61 UAP d 301      -5.238   0.209  53.101  0.00  0.00    -0.642 OA
ATOM     89  C1  UAP d 301      -2.568  -3.488  53.028  0.00  0.00     0.167 C 
ATOM     90  O62 UAP d 301      -5.161  -0.952  51.273  0.00  0.00    -0.642 OA
ATOM     91  O3S UAP d 301      -4.214  -4.968  56.928  0.00  0.00    -0.572 OA
ATOM     92  C6  UAP d 301      -4.821  -0.746  52.441  0.00  0.00     0.233 C 
ATOM     93  O3  UAP d 301      -1.885  -1.718  55.543  0.00  0.00    -0.389 OA
ATOM     94  C3  UAP d 301      -3.105  -2.302  55.166  0.00  0.00     0.086 C 
ATOM     95  S   UAP d 301      -4.486  -5.505  55.624  0.00  0.00     0.252 S 
ATOM     96  O2  UAP d 301      -4.192  -4.275  54.433  0.00  0.00    -0.244 OA
ATOM     97  C5  UAP d 301      -4.032  -1.606  53.053  0.00  0.00     0.147 C 
ATOM     98  O2S UAP d 301      -5.851  -5.948  55.466  0.00  0.00    -0.572 OA
ATOM     99  C2  UAP d 301      -2.938  -3.656  54.472  0.00  0.00     0.135 C 
ATOM    100  C4  UAP d 301      -3.810  -1.373  54.340  0.00  0.00    -0.034 C 
ATOM    101  O5  UAP d 301      -3.586  -2.704  52.396  0.00  0.00    -0.311 OA
ATOM    102  H   UAP d 301      -2.497  -4.399  52.472  0.00  0.00     0.134 H 
ATOM    103  H   UAP d 301      -1.392  -2.336  56.106  0.00  0.00     0.210 HD
ATOM    104  H   UAP d 301      -3.668  -2.511  56.051  0.00  0.00     0.093 H 
ATOM    105  H   UAP d 301      -2.187  -4.205  55.002  0.00  0.00     0.097 H 
ATOM    106  H   UAP d 301      -4.157  -0.496  54.756  0.00  0.00     0.085 H 
ENDROOT
TORSDOF 33
ENDMDL
MODEL 15
REMARK VINA RESULT:      -6.8      3.441     10.710
REMARK  0 active torsions:
REMARK  status: ('A' for Active; 'I' for Inactive)
REMARK       I    between atoms: C4_1  and  O4_32 
REMARK       I    between atoms: C2_2  and  N_17 
REMARK       I    between atoms: C4_3  and  O4_45 
REMARK       I    between atoms: C5_5  and  C6_20 
REMARK       I    between atoms: C5_7  and  C6_42 
REMARK       I    between atoms: C2_8  and  N_48 
REMARK       I    between atoms: O1_9  and  C1_58 
REMARK       I    between atoms: O1_9  and  C4_62 
REMARK       I    between atoms: C3_11  and  O3_46 
REMARK       I    between atoms: O1S_13  and  S1_14 
REMARK       I    between atoms: S1_14  and  N_48 
REMARK       I    between atoms: S1_14  and  O2S_39 
REMARK       I    between atoms: S1_14  and  O3S_16 
REMARK       I    between atoms: N_17  and  S1_64 
REMARK       I    between atoms: C1_18  and  O4_45 
REMARK       I    between atoms: C6_20  and  O6_41 
REMARK       I    between atoms: O1S_22  and  S1_64 
REMARK       I    between atoms: O3S_25  and  S1_64 
REMARK       I    between atoms: O1_26  and  C1_61 
REMARK       I    between atoms: S_27  and  O2_57 
REMARK       I    between atoms: O6_29  and  C6_42 
REMARK       I    between atoms: O6_29  and  S2_68 
REMARK       I    between atoms: C6_30  and  C5_54 
REMARK       I    between atoms: C1_31  and  O4_32 
REMARK       I    between atoms: C5_35  and  C6_36 
REMARK       I    between atoms: O3_37  and  C3_38 
REMARK       I    between atoms: C3_40  and  O3_44 
REMARK       I    between atoms: O6_41  and  S2_52 
REMARK       I    between atoms: S_43  and  O2_53 
REMARK       I    between atoms: O3_47  and  C3_69 
REMARK       I    between atoms: O2S_49  and  S1_64 
REMARK       I    between atoms: O2_53  and  C2_59 
REMARK       I    between atoms: O2_57  and  C2_65 
ROOT
ATOM      1  C4  SGN d 304       7.602   1.209  50.191  0.00  0.00     0.095 C 
ATOM      2  C2  SGN d 304       9.554   0.523  48.734  0.00  0.00     0.081 C 
ATOM      3  O5S SGN d 304       9.247  -0.342  54.364  0.00  0.00    -0.572 OA
ATOM      4  C5  SGN d 304       8.554   2.241  50.815  0.00  0.00     0.091 C 
ATOM      5  N   SGN d 304       9.984   0.525  47.338  0.00  0.00    -0.210 NA
ATOM      6  O4S SGN d 304       7.504   1.098  55.059  0.00  0.00    -0.572 OA
ATOM      7  O1S SGN d 304      12.125  -0.943  46.987  0.00  0.00    -0.296 OA
ATOM      8  O3S SGN d 304      10.119  -2.120  47.087  0.00  0.00    -0.296 OA
ATOM      9  O1  SGN d 304      10.834   2.667  48.855  0.00  0.00    -0.369 OA
ATOM     10  O6  SGN d 304       8.945   1.981  53.132  0.00  0.00    -0.254 OA
ATOM     11  O4  SGN d 304       6.240   1.711  50.118  0.00  0.00    -0.348 OA
ATOM     12  O5  SGN d 304       9.897   1.710  50.847  0.00  0.00    -0.350 OA
ATOM     13  C3  SGN d 304       8.108   0.997  48.758  0.00  0.00     0.083 C 
ATOM     14  C6  SGN d 304       8.155   2.705  52.196  0.00  0.00     0.067 C 
ATOM     15  O3  SGN d 304       7.324   0.024  48.137  0.00  0.00    -0.391 OA
ATOM     16  O2S SGN d 304      10.630  -0.861  45.187  0.00  0.00    -0.296 OA
ATOM     17  C1  SGN d 304      10.456   1.468  49.546  0.00  0.00     0.147 C 
ATOM     18  S1  SGN d 304      10.747  -0.918  46.613  0.00  0.00     0.156 S 
ATOM     19  O6S SGN d 304       7.345  -0.111  53.011  0.00  0.00    -0.572 OA
ATOM     20  S2  SGN d 304       8.224   0.576  53.926  0.00  0.00     0.251 S 
ATOM     21  H   SGN d 304       7.588   0.315  50.779  0.00  0.00     0.091 H 
ATOM     22  H   SGN d 304       9.626  -0.453  49.167  0.00  0.00     0.076 H 
ATOM     23  H   SGN d 304       8.501   3.106  50.188  0.00  0.00     0.090 H 
ATOM     24  H   SGN d 304      10.654   1.288  47.241  0.00  0.00     0.140 HD
ATOM     25  H   SGN d 304      12.197  -0.982  47.954  0.00  0.00     0.231 HD
ATOM     26  H   SGN d 304      10.195  -2.164  48.054  0.00  0.00     0.231 HD
ATOM     27  H   SGN d 304      11.203   2.438  47.988  0.00  0.00     0.212 HD
ATOM     28  H   SGN d 304       8.047   1.936  48.249  0.00  0.00     0.089 H 
ATOM     29  H   SGN d 304       7.117   2.507  52.363  0.00  0.00     0.080 H 
ATOM     30  H   SGN d 304       8.313   3.759  52.301  0.00  0.00     0.080 H 
ATOM     31  H   SGN d 304       7.402  -0.813  48.622  0.00  0.00     0.210 HD
ATOM     32  H   SGN d 304      11.052  -0.051  44.859  0.00  0.00     0.231 HD
ATOM     33  H   SGN d 304      11.387   0.958  49.682  0.00  0.00     0.131 H 
ATOM     34  C4  SGN d 302       0.703  -2.232  54.033  0.00  0.00     0.095 C 
ATOM     35  C5  SGN d 302       1.659  -2.681  52.936  0.00  0.00     0.091 C 
ATOM     36  C2  SGN d 302       0.243  -0.200  52.801  0.00  0.00     0.081 C 
ATOM     37  O1  SGN d 302       2.378  -0.222  51.643  0.00  0.00    -0.348 OA
ATOM     38  C3  SGN d 302       0.696  -0.730  54.122  0.00  0.00     0.083 C 
ATOM     39  O1S SGN d 302      -0.607   3.528  52.322  0.00  0.00    -0.296 OA
ATOM     40  S1  SGN d 302      -0.747   2.130  51.954  0.00  0.00     0.156 S 
ATOM     41  O4S SGN d 302      -1.475  -6.019  51.275  0.00  0.00    -0.572 OA
ATOM     42  O3S SGN d 302      -0.529   1.859  50.550  0.00  0.00    -0.296 OA
ATOM     43  C6  SGN d 302       1.611  -4.176  52.767  0.00  0.00     0.067 C 
ATOM     44  O6S SGN d 302       0.802  -6.420  50.943  0.00  0.00    -0.572 OA
ATOM     45  O5S SGN d 302      -0.256  -6.940  53.032  0.00  0.00    -0.572 OA
ATOM     46  O2S SGN d 302      -2.024   1.694  52.408  0.00  0.00    -0.296 OA
ATOM     47  O6  SGN d 302       0.245  -4.452  52.483  0.00  0.00    -0.254 OA
ATOM     48  O4  SGN d 302       1.195  -2.668  55.280  0.00  0.00    -0.348 OA
ATOM     49  O3  SGN d 302      -0.210  -0.371  55.142  0.00  0.00    -0.391 OA
ATOM     50  N   SGN d 302       0.492   1.209  52.795  0.00  0.00    -0.210 NA
ATOM     51  S2  SGN d 302      -0.199  -6.046  51.907  0.00  0.00     0.251 S 
ATOM     52  C1  SGN d 302       1.085  -0.767  51.683  0.00  0.00     0.150 C 
ATOM     53  O5  SGN d 302       1.138  -2.174  51.748  0.00  0.00    -0.349 OA
ATOM     54  H   SGN d 302      -0.267  -2.625  53.809  0.00  0.00     0.091 H 
ATOM     55  H   SGN d 302       2.652  -2.359  53.171  0.00  0.00     0.090 H 
ATOM     56  H   SGN d 302      -0.787  -0.454  52.661  0.00  0.00     0.076 H 
ATOM     57  H   SGN d 302       1.662  -0.330  54.350  0.00  0.00     0.089 H 
ATOM     58  H   SGN d 302      -0.766   3.630  53.273  0.00  0.00     0.231 HD
ATOM     59  H   SGN d 302       0.351   2.175  50.293  0.00  0.00     0.231 HD
ATOM     60  H   SGN d 302       1.919  -4.669  53.665  0.00  0.00     0.080 H 
ATOM     61  H   SGN d 302       2.268  -4.522  51.997  0.00  0.00     0.080 H 
ATOM     62  H   SGN d 302      -2.118   1.899  53.351  0.00  0.00     0.231 HD
ATOM     63  H   SGN d 302      -1.086  -0.733  54.937  0.00  0.00     0.210 HD
ATOM     64  H   SGN d 302       1.387   1.379  52.337  0.00  0.00     0.140 HD
ATOM     65  H   SGN d 302       0.602  -0.485  50.771  0.00  0.00     0.131 H 
ATOM     66  O61 IDS d 303       3.253  -2.667  49.630  0.00  0.00    -0.646 OA
ATOM     67  O5  IDS d 303       5.043  -0.074  51.243  0.00  0.00    -0.340 OA
ATOM     68  S   IDS d 303       3.548   3.534  53.217  0.00  0.00     0.252 S 
ATOM     69  C1  IDS d 303       5.309   1.331  51.147  0.00  0.00     0.161 C 
ATOM     70  C5  IDS d 303       4.214  -0.597  50.189  0.00  0.00     0.152 C 
ATOM     71  C6  IDS d 303       4.061  -2.084  50.373  0.00  0.00     0.206 C 
ATOM     72  O3  IDS d 303       3.348   1.799  48.761  0.00  0.00    -0.390 OA
ATOM     73  O2S IDS d 303       2.892   4.609  52.509  0.00  0.00    -0.572 OA
ATOM     74  O62 IDS d 303       4.582  -2.603  51.373  0.00  0.00    -0.646 OA
ATOM     75  O1S IDS d 303       2.956   3.338  54.509  0.00  0.00    -0.572 OA
ATOM     76  O2  IDS d 303       3.378   2.064  52.347  0.00  0.00    -0.244 OA
ATOM     77  C4  IDS d 303       2.839   0.030  50.308  0.00  0.00     0.103 C 
ATOM     78  C2  IDS d 303       3.969   2.076  51.094  0.00  0.00     0.134 C 
ATOM     79  C3  IDS d 303       2.963   1.528  50.080  0.00  0.00     0.094 C 
ATOM     80  O3S IDS d 303       4.905   3.897  53.273  0.00  0.00    -0.572 OA
ATOM     81  H   IDS d 303       5.841   1.629  52.028  0.00  0.00     0.133 H 
ATOM     82  H   IDS d 303       4.656  -0.384  49.238  0.00  0.00     0.104 H 
ATOM     83  H   IDS d 303       2.687   1.437  48.150  0.00  0.00     0.210 HD
ATOM     84  H   IDS d 303       2.157  -0.375  49.590  0.00  0.00     0.092 H 
ATOM     85  H   IDS d 303       4.212   3.067  50.774  0.00  0.00     0.097 H 
ATOM     86  H   IDS d 303       2.018   2.010  50.222  0.00  0.00     0.091 H 
ATOM     87  O1S UAP d 301       2.227  -7.233  56.849  0.00  0.00    -0.572 OA
ATOM     88  O61 UAP d 301      -1.487  -1.373  59.252  0.00  0.00    -0.642 OA
ATOM     89  C1  UAP d 301       0.517  -3.737  55.906  0.00  0.00     0.167 C 
ATOM     90  O62 UAP d 301      -2.746  -2.176  57.682  0.00  0.00    -0.642 OA
ATOM     91  O3S UAP d 301       2.858  -6.214  58.820  0.00  0.00    -0.572 OA
ATOM     92  C6  UAP d 301      -1.641  -2.006  58.205  0.00  0.00     0.233 C 
ATOM     93  O3  UAP d 301       2.689  -2.176  57.569  0.00  0.00    -0.389 OA
ATOM     94  C3  UAP d 301       1.749  -3.126  57.997  0.00  0.00     0.086 C 
ATOM     95  S   UAP d 301       1.729  -6.643  58.042  0.00  0.00     0.252 S 
ATOM     96  O2  UAP d 301       0.787  -5.254  57.596  0.00  0.00    -0.244 OA
ATOM     97  C5  UAP d 301      -0.575  -2.572  57.677  0.00  0.00     0.147 C 
ATOM     98  O2S UAP d 301       0.859  -7.548  58.757  0.00  0.00    -0.572 OA
ATOM     99  C2  UAP d 301       1.474  -4.215  56.957  0.00  0.00     0.135 C 
ATOM    100  C4  UAP d 301       0.551  -2.438  58.365  0.00  0.00    -0.034 C 
ATOM    101  O5  UAP d 301      -0.691  -3.325  56.557  0.00  0.00    -0.311 OA
ATOM    102  H   UAP d 301       0.236  -4.474  55.183  0.00  0.00     0.134 H 
ATOM    103  H   UAP d 301       3.511  -2.625  57.315  0.00  0.00     0.210 HD
ATOM    104  H   UAP d 301       2.152  -3.644  58.841  0.00  0.00     0.093 H 
ATOM    105  H   UAP d 301       2.411  -4.500  56.526  0.00  0.00     0.097 H 
ATOM    106  H   UAP d 301       0.563  -1.819  59.190  0.00  0.00     0.085 H 
ENDROOT
TORSDOF 33
ENDMDL
MODEL 16
REMARK VINA RESULT:      -6.8      2.036      2.558
REMARK  0 active torsions:
REMARK  status: ('A' for Active; 'I' for Inactive)
REMARK       I    between atoms: C4_1  and  O4_32 
REMARK       I    between atoms: C2_2  and  N_17 
REMARK       I    between atoms: C4_3  and  O4_45 
REMARK       I    between atoms: C5_5  and  C6_20 
REMARK       I    between atoms: C5_7  and  C6_42 
REMARK       I    between atoms: C2_8  and  N_48 
REMARK       I    between atoms: O1_9  and  C1_58 
REMARK       I    between atoms: O1_9  and  C4_62 
REMARK       I    between atoms: C3_11  and  O3_46 
REMARK       I    between atoms: O1S_13  and  S1_14 
REMARK       I    between atoms: S1_14  and  N_48 
REMARK       I    between atoms: S1_14  and  O2S_39 
REMARK       I    between atoms: S1_14  and  O3S_16 
REMARK       I    between atoms: N_17  and  S1_64 
REMARK       I    between atoms: C1_18  and  O4_45 
REMARK       I    between atoms: C6_20  and  O6_41 
REMARK       I    between atoms: O1S_22  and  S1_64 
REMARK       I    between atoms: O3S_25  and  S1_64 
REMARK       I    between atoms: O1_26  and  C1_61 
REMARK       I    between atoms: S_27  and  O2_57 
REMARK       I    between atoms: O6_29  and  C6_42 
REMARK       I    between atoms: O6_29  and  S2_68 
REMARK       I    between atoms: C6_30  and  C5_54 
REMARK       I    between atoms: C1_31  and  O4_32 
REMARK       I    between atoms: C5_35  and  C6_36 
REMARK       I    between atoms: O3_37  and  C3_38 
REMARK       I    between atoms: C3_40  and  O3_44 
REMARK       I    between atoms: O6_41  and  S2_52 
REMARK       I    between atoms: S_43  and  O2_53 
REMARK       I    between atoms: O3_47  and  C3_69 
REMARK       I    between atoms: O2S_49  and  S1_64 
REMARK       I    between atoms: O2_53  and  C2_59 
REMARK       I    between atoms: O2_57  and  C2_65 
ROOT
ATOM      1  C4  SGN d 304      -2.491  -0.881  53.103  0.00  0.00     0.095 C 
ATOM      2  C2  SGN d 304      -4.625  -0.857  51.742  0.00  0.00     0.081 C 
ATOM      3  O5S SGN d 304      -2.137   3.775  53.954  0.00  0.00    -0.572 OA
ATOM      4  C5  SGN d 304      -3.366  -0.481  54.302  0.00  0.00     0.091 C 
ATOM      5  N   SGN d 304      -5.514  -1.756  51.011  0.00  0.00    -0.210 NA
ATOM      6  O4S SGN d 304      -0.637   2.895  55.557  0.00  0.00    -0.572 OA
ATOM      7  O1S SGN d 304      -7.245  -0.428  49.561  0.00  0.00    -0.296 OA
ATOM      8  O3S SGN d 304      -5.125  -0.646  48.625  0.00  0.00    -0.296 OA
ATOM      9  O1  SGN d 304      -6.228  -1.231  53.624  0.00  0.00    -0.369 OA
ATOM     10  O6  SGN d 304      -2.832   1.600  55.291  0.00  0.00    -0.254 OA
ATOM     11  O4  SGN d 304      -1.399  -1.751  53.503  0.00  0.00    -0.348 OA
ATOM     12  O5  SGN d 304      -4.450   0.363  53.857  0.00  0.00    -0.350 OA
ATOM     13  C3  SGN d 304      -3.415  -1.674  52.170  0.00  0.00     0.083 C 
ATOM     14  C6  SGN d 304      -2.616   0.199  55.424  0.00  0.00     0.067 C 
ATOM     15  O3  SGN d 304      -2.705  -2.029  51.021  0.00  0.00    -0.391 OA
ATOM     16  O2S SGN d 304      -6.554  -2.493  48.699  0.00  0.00    -0.296 OA
ATOM     17  C1  SGN d 304      -5.367  -0.292  52.966  0.00  0.00     0.147 C 
ATOM     18  S1  SGN d 304      -6.137  -1.313  49.396  0.00  0.00     0.156 S 
ATOM     19  O6S SGN d 304      -0.950   1.813  53.456  0.00  0.00    -0.572 OA
ATOM     20  S2  SGN d 304      -1.575   2.571  54.514  0.00  0.00     0.251 S 
ATOM     21  H   SGN d 304      -2.066  -0.011  52.649  0.00  0.00     0.091 H 
ATOM     22  H   SGN d 304      -4.314  -0.032  51.137  0.00  0.00     0.076 H 
ATOM     23  H   SGN d 304      -3.738  -1.397  54.712  0.00  0.00     0.090 H 
ATOM     24  H   SGN d 304      -6.329  -1.906  51.605  0.00  0.00     0.140 HD
ATOM     25  H   SGN d 304      -6.956   0.369  50.033  0.00  0.00     0.231 HD
ATOM     26  H   SGN d 304      -4.838   0.155  49.092  0.00  0.00     0.231 HD
ATOM     27  H   SGN d 304      -6.820  -1.638  52.972  0.00  0.00     0.212 HD
ATOM     28  H   SGN d 304      -3.754  -2.537  52.704  0.00  0.00     0.089 H 
ATOM     29  H   SGN d 304      -1.571  -0.018  55.350  0.00  0.00     0.080 H 
ATOM     30  H   SGN d 304      -2.960  -0.149  56.375  0.00  0.00     0.080 H 
ATOM     31  H   SGN d 304      -2.412  -1.226  50.561  0.00  0.00     0.210 HD
ATOM     32  H   SGN d 304      -7.237  -2.949  49.215  0.00  0.00     0.231 HD
ATOM     33  H   SGN d 304      -6.045   0.448  52.596  0.00  0.00     0.131 H 
ATOM     34  C4  SGN d 302       5.913   0.790  52.231  0.00  0.00     0.095 C 
ATOM     35  C5  SGN d 302       4.757   0.558  51.268  0.00  0.00     0.091 C 
ATOM     36  C2  SGN d 302       5.428  -1.316  53.321  0.00  0.00     0.081 C 
ATOM     37  O1  SGN d 302       3.085  -1.297  52.682  0.00  0.00    -0.348 OA
ATOM     38  C3  SGN d 302       5.611   0.148  53.558  0.00  0.00     0.083 C 
ATOM     39  O1S SGN d 302       5.179  -3.804  56.254  0.00  0.00    -0.296 OA
ATOM     40  S1  SGN d 302       5.492  -3.489  54.871  0.00  0.00     0.156 S 
ATOM     41  O4S SGN d 302       7.760  -0.482  47.577  0.00  0.00    -0.572 OA
ATOM     42  O3S SGN d 302       4.854  -4.355  53.904  0.00  0.00    -0.296 OA
ATOM     43  C6  SGN d 302       5.080   1.112  49.906  0.00  0.00     0.067 C 
ATOM     44  O6S SGN d 302       5.670   0.416  47.044  0.00  0.00    -0.572 OA
ATOM     45  O5S SGN d 302       7.494   1.828  47.702  0.00  0.00    -0.572 OA
ATOM     46  O2S SGN d 302       6.910  -3.473  54.746  0.00  0.00    -0.296 OA
ATOM     47  O6  SGN d 302       6.279   0.443  49.531  0.00  0.00    -0.254 OA
ATOM     48  O4  SGN d 302       6.013   2.169  52.508  0.00  0.00    -0.348 OA
ATOM     49  O3  SGN d 302       6.714   0.383  54.404  0.00  0.00    -0.391 OA
ATOM     50  N   SGN d 302       4.880  -1.879  54.517  0.00  0.00    -0.210 NA
ATOM     51  S2  SGN d 302       6.837   0.560  47.875  0.00  0.00     0.251 S 
ATOM     52  C1  SGN d 302       4.394  -1.557  52.247  0.00  0.00     0.150 C 
ATOM     53  O5  SGN d 302       4.689  -0.821  51.082  0.00  0.00    -0.349 OA
ATOM     54  H   SGN d 302       6.801   0.391  51.786  0.00  0.00     0.091 H 
ATOM     55  H   SGN d 302       3.869   1.009  51.658  0.00  0.00     0.090 H 
ATOM     56  H   SGN d 302       6.368  -1.741  53.039  0.00  0.00     0.076 H 
ATOM     57  H   SGN d 302       4.725   0.545  54.010  0.00  0.00     0.089 H 
ATOM     58  H   SGN d 302       5.640  -3.183  56.839  0.00  0.00     0.231 HD
ATOM     59  H   SGN d 302       3.893  -4.329  54.032  0.00  0.00     0.231 HD
ATOM     60  H   SGN d 302       5.234   2.169  49.953  0.00  0.00     0.080 H 
ATOM     61  H   SGN d 302       4.288   0.958  49.203  0.00  0.00     0.080 H 
ATOM     62  H   SGN d 302       7.286  -2.880  55.415  0.00  0.00     0.231 HD
ATOM     63  H   SGN d 302       7.516   0.025  53.995  0.00  0.00     0.210 HD
ATOM     64  H   SGN d 302       3.866  -1.934  54.415  0.00  0.00     0.140 HD
ATOM     65  H   SGN d 302       4.441  -2.600  52.014  0.00  0.00     0.131 H 
ATOM     66  O61 IDS d 303       2.128  -1.331  49.538  0.00  0.00    -0.646 OA
ATOM     67  O5  IDS d 303       0.494  -0.547  52.579  0.00  0.00    -0.340 OA
ATOM     68  S   IDS d 303       1.734  -1.353  56.697  0.00  0.00     0.252 S 
ATOM     69  C1  IDS d 303      -0.101  -1.170  53.725  0.00  0.00     0.161 C 
ATOM     70  C5  IDS d 303       0.987  -1.466  51.587  0.00  0.00     0.152 C 
ATOM     71  C6  IDS d 303       1.529  -0.688  50.418  0.00  0.00     0.206 C 
ATOM     72  O3  IDS d 303       0.716  -4.068  52.889  0.00  0.00    -0.390 OA
ATOM     73  O2S IDS d 303       1.831  -2.686  57.247  0.00  0.00    -0.572 OA
ATOM     74  O62 IDS d 303       1.533   0.551  50.495  0.00  0.00    -0.646 OA
ATOM     75  O1S IDS d 303       2.777  -0.513  57.211  0.00  0.00    -0.572 OA
ATOM     76  O2  IDS d 303       1.911  -1.405  54.991  0.00  0.00    -0.244 OA
ATOM     77  C4  IDS d 303       2.133  -2.253  52.194  0.00  0.00     0.103 C 
ATOM     78  C2  IDS d 303       0.925  -2.130  54.341  0.00  0.00     0.134 C 
ATOM     79  C3  IDS d 303       1.598  -3.083  53.350  0.00  0.00     0.094 C 
ATOM     80  O3S IDS d 303       0.443  -0.906  57.026  0.00  0.00    -0.572 OA
ATOM     81  H   IDS d 303      -0.335  -0.404  54.435  0.00  0.00     0.133 H 
ATOM     82  H   IDS d 303       0.198  -2.115  51.269  0.00  0.00     0.104 H 
ATOM     83  H   IDS d 303       1.179  -4.649  52.265  0.00  0.00     0.210 HD
ATOM     84  H   IDS d 303       2.585  -2.907  51.478  0.00  0.00     0.092 H 
ATOM     85  H   IDS d 303       0.365  -2.742  55.016  0.00  0.00     0.097 H 
ATOM     86  H   IDS d 303       2.395  -3.600  53.843  0.00  0.00     0.091 H 
ATOM     87  O1S UAP d 301       6.677   5.971  49.431  0.00  0.00    -0.572 OA
ATOM     88  O61 UAP d 301       9.569   3.494  55.710  0.00  0.00    -0.642 OA
ATOM     89  C1  UAP d 301       7.094   2.869  51.930  0.00  0.00     0.167 C 
ATOM     90  O62 UAP d 301      10.330   2.124  54.212  0.00  0.00    -0.642 OA
ATOM     91  O3S UAP d 301       6.579   7.283  51.327  0.00  0.00    -0.572 OA
ATOM     92  C6  UAP d 301       9.477   2.917  54.623  0.00  0.00     0.233 C 
ATOM     93  O3  UAP d 301       5.366   4.340  54.115  0.00  0.00    -0.389 OA
ATOM     94  C3  UAP d 301       6.587   4.721  53.536  0.00  0.00     0.086 C 
ATOM     95  S   UAP d 301       7.421   6.405  50.562  0.00  0.00     0.252 S 
ATOM     96  O2  UAP d 301       7.798   5.006  51.519  0.00  0.00    -0.244 OA
ATOM     97  C5  UAP d 301       8.451   3.227  53.857  0.00  0.00     0.147 C 
ATOM     98  O2S UAP d 301       8.670   7.015  50.171  0.00  0.00    -0.572 OA
ATOM     99  C2  UAP d 301       6.712   4.313  52.065  0.00  0.00     0.135 C 
ATOM    100  C4  UAP d 301       7.647   4.173  54.323  0.00  0.00    -0.034 C 
ATOM    101  O5  UAP d 301       8.327   2.667  52.630  0.00  0.00    -0.311 OA
ATOM    102  H   UAP d 301       7.257   2.538  50.925  0.00  0.00     0.134 H 
ATOM    103  H   UAP d 301       4.633   4.703  53.593  0.00  0.00     0.210 HD
ATOM    104  H   UAP d 301       6.642   5.789  53.533  0.00  0.00     0.093 H 
ATOM    105  H   UAP d 301       5.774   4.511  51.590  0.00  0.00     0.097 H 
ATOM    106  H   UAP d 301       7.791   4.524  55.282  0.00  0.00     0.085 H 
ENDROOT
TORSDOF 33
ENDMDL
MODEL 17
REMARK VINA RESULT:      -6.7      3.396      7.768
REMARK  0 active torsions:
REMARK  status: ('A' for Active; 'I' for Inactive)
REMARK       I    between atoms: C4_1  and  O4_32 
REMARK       I    between atoms: C2_2  and  N_17 
REMARK       I    between atoms: C4_3  and  O4_45 
REMARK       I    between atoms: C5_5  and  C6_20 
REMARK       I    between atoms: C5_7  and  C6_42 
REMARK       I    between atoms: C2_8  and  N_48 
REMARK       I    between atoms: O1_9  and  C1_58 
REMARK       I    between atoms: O1_9  and  C4_62 
REMARK       I    between atoms: C3_11  and  O3_46 
REMARK       I    between atoms: O1S_13  and  S1_14 
REMARK       I    between atoms: S1_14  and  N_48 
REMARK       I    between atoms: S1_14  and  O2S_39 
REMARK       I    between atoms: S1_14  and  O3S_16 
REMARK       I    between atoms: N_17  and  S1_64 
REMARK       I    between atoms: C1_18  and  O4_45 
REMARK       I    between atoms: C6_20  and  O6_41 
REMARK       I    between atoms: O1S_22  and  S1_64 
REMARK       I    between atoms: O3S_25  and  S1_64 
REMARK       I    between atoms: O1_26  and  C1_61 
REMARK       I    between atoms: S_27  and  O2_57 
REMARK       I    between atoms: O6_29  and  C6_42 
REMARK       I    between atoms: O6_29  and  S2_68 
REMARK       I    between atoms: C6_30  and  C5_54 
REMARK       I    between atoms: C1_31  and  O4_32 
REMARK       I    between atoms: C5_35  and  C6_36 
REMARK       I    between atoms: O3_37  and  C3_38 
REMARK       I    between atoms: C3_40  and  O3_44 
REMARK       I    between atoms: O6_41  and  S2_52 
REMARK       I    between atoms: S_43  and  O2_53 
REMARK       I    between atoms: O3_47  and  C3_69 
REMARK       I    between atoms: O2S_49  and  S1_64 
REMARK       I    between atoms: O2_53  and  C2_59 
REMARK       I    between atoms: O2_57  and  C2_65 
ROOT
ATOM      1  C4  SGN d 304       0.242   1.671  52.579  0.00  0.00     0.095 C 
ATOM      2  C2  SGN d 304      -1.687   2.022  54.179  0.00  0.00     0.081 C 
ATOM      3  O5S SGN d 304      -0.319  -2.976  51.795  0.00  0.00    -0.572 OA
ATOM      4  C5  SGN d 304      -0.824   1.429  51.499  0.00  0.00     0.091 C 
ATOM      5  N   SGN d 304      -2.314   3.064  54.989  0.00  0.00    -0.210 NA
ATOM      6  O4S SGN d 304       1.110  -2.374  50.010  0.00  0.00    -0.572 OA
ATOM      7  O1S SGN d 304      -4.065   2.061  56.659  0.00  0.00    -0.296 OA
ATOM      8  O3S SGN d 304      -1.844   1.906  57.337  0.00  0.00    -0.296 OA
ATOM      9  O1  SGN d 304      -3.412   2.669  52.489  0.00  0.00    -0.369 OA
ATOM     10  O6  SGN d 304      -0.780  -0.714  50.501  0.00  0.00    -0.254 OA
ATOM     11  O4  SGN d 304       1.414   2.336  52.036  0.00  0.00    -0.348 OA
ATOM     12  O5  SGN d 304      -1.978   0.788  52.086  0.00  0.00    -0.350 OA
ATOM     13  C3  SGN d 304      -0.413   2.615  53.596  0.00  0.00     0.083 C 
ATOM     14  C6  SGN d 304      -0.341   0.627  50.313  0.00  0.00     0.067 C 
ATOM     15  O3  SGN d 304       0.479   2.841  54.646  0.00  0.00    -0.391 OA
ATOM     16  O2S SGN d 304      -2.929   3.974  57.389  0.00  0.00    -0.296 OA
ATOM     17  C1  SGN d 304      -2.655   1.594  53.062  0.00  0.00     0.147 C 
ATOM     18  S1  SGN d 304      -2.809   2.738  56.674  0.00  0.00     0.156 S 
ATOM     19  O6S SGN d 304       1.240  -1.251  52.108  0.00  0.00    -0.572 OA
ATOM     20  S2  SGN d 304       0.372  -1.889  51.147  0.00  0.00     0.251 S 
ATOM     21  H   SGN d 304       0.561   0.741  52.999  0.00  0.00     0.091 H 
ATOM     22  H   SGN d 304      -1.454   1.156  54.762  0.00  0.00     0.076 H 
ATOM     23  H   SGN d 304      -1.078   2.395  51.115  0.00  0.00     0.090 H 
ATOM     24  H   SGN d 304      -3.155   3.354  54.490  0.00  0.00     0.140 HD
ATOM     25  H   SGN d 304      -3.977   1.225  56.174  0.00  0.00     0.231 HD
ATOM     26  H   SGN d 304      -1.758   1.067  56.858  0.00  0.00     0.231 HD
ATOM     27  H   SGN d 304      -3.843   3.174  53.196  0.00  0.00     0.212 HD
ATOM     28  H   SGN d 304      -0.658   3.523  53.086  0.00  0.00     0.089 H 
ATOM     29  H   SGN d 304       0.727   0.658  50.260  0.00  0.00     0.080 H 
ATOM     30  H   SGN d 304      -0.731   1.028  49.400  0.00  0.00     0.080 H 
ATOM     31  H   SGN d 304       0.680   2.000  55.087  0.00  0.00     0.210 HD
ATOM     32  H   SGN d 304      -3.579   4.542  56.946  0.00  0.00     0.231 HD
ATOM     33  H   SGN d 304      -3.403   0.985  53.525  0.00  0.00     0.131 H 
ATOM     34  C4  SGN d 302       8.272  -1.443  52.504  0.00  0.00     0.095 C 
ATOM     35  C5  SGN d 302       7.296  -1.011  53.590  0.00  0.00     0.091 C 
ATOM     36  C2  SGN d 302       8.034   0.714  51.432  0.00  0.00     0.081 C 
ATOM     37  O1  SGN d 302       5.816   1.106  52.340  0.00  0.00    -0.348 OA
ATOM     38  C3  SGN d 302       7.931  -0.759  51.208  0.00  0.00     0.083 C 
ATOM     39  O1S SGN d 302       7.876   3.204  48.495  0.00  0.00    -0.296 OA
ATOM     40  S1  SGN d 302       8.291   2.840  49.838  0.00  0.00     0.156 S 
ATOM     41  O4S SGN d 302      10.850  -0.508  56.884  0.00  0.00    -0.572 OA
ATOM     42  O3S SGN d 302       7.932   3.806  50.854  0.00  0.00    -0.296 OA
ATOM     43  C6  SGN d 302       7.677  -1.611  54.917  0.00  0.00     0.067 C 
ATOM     44  O6S SGN d 302       8.713  -1.025  57.675  0.00  0.00    -0.572 OA
ATOM     45  O5S SGN d 302      10.173  -2.736  56.840  0.00  0.00    -0.572 OA
ATOM     46  O2S SGN d 302       9.689   2.577  49.798  0.00  0.00    -0.296 OA
ATOM     47  O6  SGN d 302       9.009  -1.162  55.135  0.00  0.00    -0.254 OA
ATOM     48  O4  SGN d 302       8.098  -2.818  52.248  0.00  0.00    -0.348 OA
ATOM     49  O3  SGN d 302       8.869  -1.185  50.245  0.00  0.00    -0.391 OA
ATOM     50  N   SGN d 302       7.455   1.363  50.296  0.00  0.00    -0.210 NA
ATOM     51  S2  SGN d 302       9.731  -1.373  56.717  0.00  0.00     0.251 S 
ATOM     52  C1  SGN d 302       7.193   1.133  52.613  0.00  0.00     0.150 C 
ATOM     53  O5  SGN d 302       7.491   0.359  53.753  0.00  0.00    -0.349 OA
ATOM     54  H   SGN d 302       9.263  -1.205  52.834  0.00  0.00     0.091 H 
ATOM     55  H   SGN d 302       6.304  -1.300  53.316  0.00  0.00     0.090 H 
ATOM     56  H   SGN d 302       9.061   0.968  51.594  0.00  0.00     0.076 H 
ATOM     57  H   SGN d 302       6.943  -0.996  50.870  0.00  0.00     0.089 H 
ATOM     58  H   SGN d 302       8.150   2.511  47.873  0.00  0.00     0.231 HD
ATOM     59  H   SGN d 302       6.972   3.949  50.839  0.00  0.00     0.231 HD
ATOM     60  H   SGN d 302       7.639  -2.679  54.875  0.00  0.00     0.080 H 
ATOM     61  H   SGN d 302       7.013  -1.320  55.704  0.00  0.00     0.080 H 
ATOM     62  H   SGN d 302       9.875   1.927  49.103  0.00  0.00     0.231 HD
ATOM     63  H   SGN d 302       9.764  -0.972  50.550  0.00  0.00     0.210 HD
ATOM     64  H   SGN d 302       6.486   1.594  50.514  0.00  0.00     0.140 HD
ATOM     65  H   SGN d 302       7.447   2.152  52.817  0.00  0.00     0.131 H 
ATOM     66  O61 IDS d 303       5.258   1.311  55.572  0.00  0.00    -0.646 OA
ATOM     67  O5  IDS d 303       3.165   0.821  52.760  0.00  0.00    -0.340 OA
ATOM     68  S   IDS d 303       4.030   1.393  48.508  0.00  0.00     0.252 S 
ATOM     69  C1  IDS d 303       2.556   1.537  51.677  0.00  0.00     0.161 C 
ATOM     70  C5  IDS d 303       3.923   1.641  53.667  0.00  0.00     0.152 C 
ATOM     71  C6  IDS d 303       4.457   0.782  54.782  0.00  0.00     0.206 C 
ATOM     72  O3  IDS d 303       3.956   4.248  52.349  0.00  0.00    -0.390 OA
ATOM     73  O2S IDS d 303       4.291   2.687  47.922  0.00  0.00    -0.572 OA
ATOM     74  O62 IDS d 303       4.237  -0.439  54.732  0.00  0.00    -0.646 OA
ATOM     75  O1S IDS d 303       4.843   0.382  47.896  0.00  0.00    -0.572 OA
ATOM     76  O2  IDS d 303       4.414   1.415  50.181  0.00  0.00    -0.244 OA
ATOM     77  C4  IDS d 303       5.109   2.215  52.914  0.00  0.00     0.103 C 
ATOM     78  C2  IDS d 303       3.653   2.302  50.925  0.00  0.00     0.134 C 
ATOM     79  C3  IDS d 303       4.593   3.124  51.810  0.00  0.00     0.094 C 
ATOM     80  O3S IDS d 303       2.651   1.178  48.342  0.00  0.00    -0.572 OA
ATOM     81  H   IDS d 303       2.110   0.823  51.016  0.00  0.00     0.133 H 
ATOM     82  H   IDS d 303       3.302   2.418  54.061  0.00  0.00     0.104 H 
ATOM     83  H   IDS d 303       4.583   4.741  52.902  0.00  0.00     0.210 HD
ATOM     84  H   IDS d 303       5.749   2.780  53.558  0.00  0.00     0.092 H 
ATOM     85  H   IDS d 303       3.131   3.002  50.307  0.00  0.00     0.097 H 
ATOM     86  H   IDS d 303       5.404   3.493  51.217  0.00  0.00     0.091 H 
ATOM     87  O1S UAP d 301       8.452  -6.674  55.309  0.00  0.00    -0.572 OA
ATOM     88  O61 UAP d 301      10.966  -4.749  48.684  0.00  0.00    -0.642 OA
ATOM     89  C1  UAP d 301       9.102  -3.696  52.712  0.00  0.00     0.167 C 
ATOM     90  O62 UAP d 301      12.125  -3.531  50.053  0.00  0.00    -0.642 OA
ATOM     91  O3S UAP d 301       7.904  -7.951  53.467  0.00  0.00    -0.572 OA
ATOM     92  C6  UAP d 301      11.105  -4.163  49.761  0.00  0.00     0.233 C 
ATOM     93  O3  UAP d 301       6.899  -4.845  50.775  0.00  0.00    -0.389 OA
ATOM     94  C3  UAP d 301       8.095  -5.432  51.216  0.00  0.00     0.086 C 
ATOM     95  S   UAP d 301       8.970  -7.233  54.109  0.00  0.00     0.252 S 
ATOM     96  O2  UAP d 301       9.468  -5.923  53.084  0.00  0.00    -0.244 OA
ATOM     97  C5  UAP d 301      10.139  -4.288  50.648  0.00  0.00     0.147 C 
ATOM     98  O2S UAP d 301      10.131  -8.052  54.365  0.00  0.00    -0.572 OA
ATOM     99  C2  UAP d 301       8.462  -5.050  52.653  0.00  0.00     0.135 C 
ATOM    100  C4  UAP d 301       9.133  -5.080  50.300  0.00  0.00    -0.034 C 
ATOM    101  O5  UAP d 301      10.259  -3.713  51.869  0.00  0.00    -0.311 OA
ATOM    102  H   UAP d 301       9.437  -3.397  53.683  0.00  0.00     0.134 H 
ATOM    103  H   UAP d 301       6.181  -5.074  51.386  0.00  0.00     0.210 HD
ATOM    104  H   UAP d 301       7.963  -6.493  51.236  0.00  0.00     0.093 H 
ATOM    105  H   UAP d 301       7.566  -5.081  53.238  0.00  0.00     0.097 H 
ATOM    106  H   UAP d 301       9.100  -5.452  49.338  0.00  0.00     0.085 H 
ENDROOT
TORSDOF 33
ENDMDL
MODEL 18
REMARK VINA RESULT:      -6.7      2.582      3.322
REMARK  0 active torsions:
REMARK  status: ('A' for Active; 'I' for Inactive)
REMARK       I    between atoms: C4_1  and  O4_32 
REMARK       I    between atoms: C2_2  and  N_17 
REMARK       I    between atoms: C4_3  and  O4_45 
REMARK       I    between atoms: C5_5  and  C6_20 
REMARK       I    between atoms: C5_7  and  C6_42 
REMARK       I    between atoms: C2_8  and  N_48 
REMARK       I    between atoms: O1_9  and  C1_58 
REMARK       I    between atoms: O1_9  and  C4_62 
REMARK       I    between atoms: C3_11  and  O3_46 
REMARK       I    between atoms: O1S_13  and  S1_14 
REMARK       I    between atoms: S1_14  and  N_48 
REMARK       I    between atoms: S1_14  and  O2S_39 
REMARK       I    between atoms: S1_14  and  O3S_16 
REMARK       I    between atoms: N_17  and  S1_64 
REMARK       I    between atoms: C1_18  and  O4_45 
REMARK       I    between atoms: C6_20  and  O6_41 
REMARK       I    between atoms: O1S_22  and  S1_64 
REMARK       I    between atoms: O3S_25  and  S1_64 
REMARK       I    between atoms: O1_26  and  C1_61 
REMARK       I    between atoms: S_27  and  O2_57 
REMARK       I    between atoms: O6_29  and  C6_42 
REMARK       I    between atoms: O6_29  and  S2_68 
REMARK       I    between atoms: C6_30  and  C5_54 
REMARK       I    between atoms: C1_31  and  O4_32 
REMARK       I    between atoms: C5_35  and  C6_36 
REMARK       I    between atoms: O3_37  and  C3_38 
REMARK       I    between atoms: C3_40  and  O3_44 
REMARK       I    between atoms: O6_41  and  S2_52 
REMARK       I    between atoms: S_43  and  O2_53 
REMARK       I    between atoms: O3_47  and  C3_69 
REMARK       I    between atoms: O2S_49  and  S1_64 
REMARK       I    between atoms: O2_53  and  C2_59 
REMARK       I    between atoms: O2_57  and  C2_65 
ROOT
ATOM      1  C4  SGN d 304      -1.301  -4.965  53.759  0.00  0.00     0.095 C 
ATOM      2  C2  SGN d 304      -3.801  -4.673  53.484  0.00  0.00     0.081 C 
ATOM      3  O5S SGN d 304      -0.571  -1.711  57.136  0.00  0.00    -0.572 OA
ATOM      4  C5  SGN d 304      -1.619  -5.544  55.147  0.00  0.00     0.091 C 
ATOM      5  N   SGN d 304      -4.921  -5.172  52.690  0.00  0.00    -0.210 NA
ATOM      6  O4S SGN d 304       1.431  -2.964  57.258  0.00  0.00    -0.572 OA
ATOM      7  O1S SGN d 304      -7.068  -3.710  53.029  0.00  0.00    -0.296 OA
ATOM      8  O3S SGN d 304      -5.500  -2.843  51.542  0.00  0.00    -0.296 OA
ATOM      9  O1  SGN d 304      -4.525  -6.423  55.116  0.00  0.00    -0.369 OA
ATOM     10  O6  SGN d 304      -0.706  -4.349  56.971  0.00  0.00    -0.254 OA
ATOM     11  O4  SGN d 304      -0.153  -5.619  53.156  0.00  0.00    -0.348 OA
ATOM     12  O5  SGN d 304      -2.779  -4.883  55.699  0.00  0.00    -0.350 OA
ATOM     13  C3  SGN d 304      -2.532  -5.273  52.896  0.00  0.00     0.083 C 
ATOM     14  C6  SGN d 304      -0.474  -5.474  56.131  0.00  0.00     0.067 C 
ATOM     15  O3  SGN d 304      -2.345  -4.726  51.625  0.00  0.00    -0.391 OA
ATOM     16  O2S SGN d 304      -6.806  -4.675  50.911  0.00  0.00    -0.296 OA
ATOM     17  C1  SGN d 304      -3.984  -5.106  54.949  0.00  0.00     0.147 C 
ATOM     18  S1  SGN d 304      -6.129  -4.048  52.007  0.00  0.00     0.156 S 
ATOM     19  O6S SGN d 304       0.290  -2.686  55.184  0.00  0.00    -0.572 OA
ATOM     20  S2  SGN d 304       0.150  -2.845  56.612  0.00  0.00     0.251 S 
ATOM     21  H   SGN d 304      -1.080  -3.922  53.836  0.00  0.00     0.091 H 
ATOM     22  H   SGN d 304      -3.745  -3.605  53.461  0.00  0.00     0.076 H 
ATOM     23  H   SGN d 304      -1.810  -6.586  54.994  0.00  0.00     0.090 H 
ATOM     24  H   SGN d 304      -5.433  -5.823  53.284  0.00  0.00     0.140 HD
ATOM     25  H   SGN d 304      -6.603  -3.286  53.767  0.00  0.00     0.231 HD
ATOM     26  H   SGN d 304      -5.040  -2.413  52.280  0.00  0.00     0.231 HD
ATOM     27  H   SGN d 304      -5.333  -6.510  54.588  0.00  0.00     0.212 HD
ATOM     28  H   SGN d 304      -2.642  -6.337  52.854  0.00  0.00     0.089 H 
ATOM     29  H   SGN d 304       0.451  -5.355  55.607  0.00  0.00     0.080 H 
ATOM     30  H   SGN d 304      -0.416  -6.373  56.708  0.00  0.00     0.080 H 
ATOM     31  H   SGN d 304      -2.249  -3.764  51.698  0.00  0.00     0.210 HD
ATOM     32  H   SGN d 304      -7.233  -5.490  51.218  0.00  0.00     0.231 HD
ATOM     33  H   SGN d 304      -4.744  -4.474  55.360  0.00  0.00     0.131 H 
ATOM     34  C4  SGN d 302       6.079  -1.164  51.466  0.00  0.00     0.095 C 
ATOM     35  C5  SGN d 302       4.632  -1.069  51.004  0.00  0.00     0.091 C 
ATOM     36  C2  SGN d 302       6.039  -3.556  51.100  0.00  0.00     0.081 C 
ATOM     37  O1  SGN d 302       3.637  -3.730  51.407  0.00  0.00    -0.348 OA
ATOM     38  C3  SGN d 302       6.322  -2.498  52.117  0.00  0.00     0.083 C 
ATOM     39  O1S SGN d 302       6.947  -7.246  51.743  0.00  0.00    -0.296 OA
ATOM     40  S1  SGN d 302       6.686  -6.134  50.846  0.00  0.00     0.156 S 
ATOM     41  O4S SGN d 302       5.897   0.937  46.750  0.00  0.00    -0.572 OA
ATOM     42  O3S SGN d 302       5.703  -6.412  49.822  0.00  0.00    -0.296 OA
ATOM     43  C6  SGN d 302       4.392   0.222  50.267  0.00  0.00     0.067 C 
ATOM     44  O6S SGN d 302       3.781   1.452  47.596  0.00  0.00    -0.572 OA
ATOM     45  O5S SGN d 302       5.736   2.616  48.355  0.00  0.00    -0.572 OA
ATOM     46  O2S SGN d 302       7.936  -5.714  50.310  0.00  0.00    -0.296 OA
ATOM     47  O6  SGN d 302       5.332   0.195  49.199  0.00  0.00    -0.254 OA
ATOM     48  O4  SGN d 302       6.301  -0.216  52.486  0.00  0.00    -0.348 OA
ATOM     49  O3  SGN d 302       7.674  -2.536  52.515  0.00  0.00    -0.391 OA
ATOM     50  N   SGN d 302       6.007  -4.812  51.785  0.00  0.00    -0.210 NA
ATOM     51  S2  SGN d 302       5.185   1.366  47.906  0.00  0.00     0.251 S 
ATOM     52  C1  SGN d 302       4.660  -3.376  50.514  0.00  0.00     0.150 C 
ATOM     53  O5  SGN d 302       4.475  -2.061  50.040  0.00  0.00    -0.349 OA
ATOM     54  H   SGN d 302       6.710  -1.012  50.615  0.00  0.00     0.091 H 
ATOM     55  H   SGN d 302       3.979  -1.148  51.848  0.00  0.00     0.090 H 
ATOM     56  H   SGN d 302       6.783  -3.505  50.333  0.00  0.00     0.076 H 
ATOM     57  H   SGN d 302       5.697  -2.655  52.972  0.00  0.00     0.089 H 
ATOM     58  H   SGN d 302       7.612  -6.984  52.398  0.00  0.00     0.231 HD
ATOM     59  H   SGN d 302       4.873  -6.693  50.238  0.00  0.00     0.231 HD
ATOM     60  H   SGN d 302       4.567   1.062  50.906  0.00  0.00     0.080 H 
ATOM     61  H   SGN d 302       3.383   0.316  49.923  0.00  0.00     0.080 H 
ATOM     62  H   SGN d 302       8.557  -5.541  51.035  0.00  0.00     0.231 HD
ATOM     63  H   SGN d 302       8.242  -2.394  51.741  0.00  0.00     0.210 HD
ATOM     64  H   SGN d 302       5.036  -5.037  52.004  0.00  0.00     0.140 HD
ATOM     65  H   SGN d 302       4.595  -4.050  49.686  0.00  0.00     0.131 H 
ATOM     66  O61 IDS d 303       1.504  -2.186  49.441  0.00  0.00    -0.646 OA
ATOM     67  O5  IDS d 303       1.231  -3.696  52.631  0.00  0.00    -0.340 OA
ATOM     68  S   IDS d 303       4.000  -6.391  54.684  0.00  0.00     0.252 S 
ATOM     69  C1  IDS d 303       1.134  -4.982  53.257  0.00  0.00     0.161 C 
ATOM     70  C5  IDS d 303       1.274  -3.734  51.192  0.00  0.00     0.152 C 
ATOM     71  C6  IDS d 303       1.315  -2.326  50.661  0.00  0.00     0.206 C 
ATOM     72  O3  IDS d 303       1.508  -6.586  50.602  0.00  0.00    -0.390 OA
ATOM     73  O2S IDS d 303       4.289  -7.730  54.223  0.00  0.00    -0.572 OA
ATOM     74  O62 IDS d 303       1.367  -1.396  51.482  0.00  0.00    -0.646 OA
ATOM     75  O1S IDS d 303       5.173  -5.778  55.237  0.00  0.00    -0.572 OA
ATOM     76  O2  IDS d 303       3.480  -5.414  53.372  0.00  0.00    -0.244 OA
ATOM     77  C4  IDS d 303       2.555  -4.428  50.772  0.00  0.00     0.103 C 
ATOM     78  C2  IDS d 303       2.307  -5.845  52.775  0.00  0.00     0.134 C 
ATOM     79  C3  IDS d 303       2.515  -5.867  51.259  0.00  0.00     0.094 C 
ATOM     80  O3S IDS d 303       2.953  -6.534  55.612  0.00  0.00    -0.572 OA
ATOM     81  H   IDS d 303       1.214  -4.842  54.316  0.00  0.00     0.133 H 
ATOM     82  H   IDS d 303       0.414  -4.249  50.816  0.00  0.00     0.104 H 
ATOM     83  H   IDS d 303       1.675  -6.576  49.647  0.00  0.00     0.210 HD
ATOM     84  H   IDS d 303       2.676  -4.424  49.709  0.00  0.00     0.092 H 
ATOM     85  H   IDS d 303       2.054  -6.845  53.060  0.00  0.00     0.097 H 
ATOM     86  H   IDS d 303       3.435  -6.366  51.036  0.00  0.00     0.091 H 
ATOM     87  O1S UAP d 301       5.735   4.687  52.421  0.00  0.00    -0.572 OA
ATOM     88  O61 UAP d 301      10.857  -0.164  54.458  0.00  0.00    -0.642 OA
ATOM     89  C1  UAP d 301       7.071   0.921  52.158  0.00  0.00     0.167 C 
ATOM     90  O62 UAP d 301      10.938  -0.203  52.293  0.00  0.00    -0.642 OA
ATOM     91  O3S UAP d 301       6.420   4.611  54.623  0.00  0.00    -0.572 OA
ATOM     92  C6  UAP d 301      10.332  -0.017  53.352  0.00  0.00     0.233 C 
ATOM     93  O3  UAP d 301       6.380   0.417  55.189  0.00  0.00    -0.389 OA
ATOM     94  C3  UAP d 301       7.274   1.337  54.618  0.00  0.00     0.086 C 
ATOM     95  S   UAP d 301       6.875   4.558  53.261  0.00  0.00     0.252 S 
ATOM     96  O2  UAP d 301       7.583   3.001  52.960  0.00  0.00    -0.244 OA
ATOM     97  C5  UAP d 301       9.089   0.422  53.324  0.00  0.00     0.147 C 
ATOM     98  O2S UAP d 301       7.872   5.557  52.957  0.00  0.00    -0.572 OA
ATOM     99  C2  UAP d 301       6.795   1.887  53.271  0.00  0.00     0.135 C 
ATOM    100  C4  UAP d 301       8.551   0.708  54.502  0.00  0.00    -0.034 C 
ATOM    101  O5  UAP d 301       8.478   0.654  52.138  0.00  0.00    -0.311 OA
ATOM    102  H   UAP d 301       6.815   1.274  51.181  0.00  0.00     0.134 H 
ATOM    103  H   UAP d 301       5.505   0.827  55.276  0.00  0.00     0.210 HD
ATOM    104  H   UAP d 301       7.337   2.190  55.259  0.00  0.00     0.093 H 
ATOM    105  H   UAP d 301       5.748   2.092  53.355  0.00  0.00     0.097 H 
ATOM    106  H   UAP d 301       9.071   0.469  55.361  0.00  0.00     0.085 H 
ENDROOT
TORSDOF 33
ENDMDL
MODEL 19
REMARK VINA RESULT:      -6.7      3.173     11.122
REMARK  0 active torsions:
REMARK  status: ('A' for Active; 'I' for Inactive)
REMARK       I    between atoms: C4_1  and  O4_32 
REMARK       I    between atoms: C2_2  and  N_17 
REMARK       I    between atoms: C4_3  and  O4_45 
REMARK       I    between atoms: C5_5  and  C6_20 
REMARK       I    between atoms: C5_7  and  C6_42 
REMARK       I    between atoms: C2_8  and  N_48 
REMARK       I    between atoms: O1_9  and  C1_58 
REMARK       I    between atoms: O1_9  and  C4_62 
REMARK       I    between atoms: C3_11  and  O3_46 
REMARK       I    between atoms: O1S_13  and  S1_14 
REMARK       I    between atoms: S1_14  and  N_48 
REMARK       I    between atoms: S1_14  and  O2S_39 
REMARK       I    between atoms: S1_14  and  O3S_16 
REMARK       I    between atoms: N_17  and  S1_64 
REMARK       I    between atoms: C1_18  and  O4_45 
REMARK       I    between atoms: C6_20  and  O6_41 
REMARK       I    between atoms: O1S_22  and  S1_64 
REMARK       I    between atoms: O3S_25  and  S1_64 
REMARK       I    between atoms: O1_26  and  C1_61 
REMARK       I    between atoms: S_27  and  O2_57 
REMARK       I    between atoms: O6_29  and  C6_42 
REMARK       I    between atoms: O6_29  and  S2_68 
REMARK       I    between atoms: C6_30  and  C5_54 
REMARK       I    between atoms: C1_31  and  O4_32 
REMARK       I    between atoms: C5_35  and  C6_36 
REMARK       I    between atoms: O3_37  and  C3_38 
REMARK       I    between atoms: C3_40  and  O3_44 
REMARK       I    between atoms: O6_41  and  S2_52 
REMARK       I    between atoms: S_43  and  O2_53 
REMARK       I    between atoms: O3_47  and  C3_69 
REMARK       I    between atoms: O2S_49  and  S1_64 
REMARK       I    between atoms: O2_53  and  C2_59 
REMARK       I    between atoms: O2_57  and  C2_65 
ROOT
ATOM      1  C4  SGN d 304       6.701  -1.464  55.717  0.00  0.00     0.095 C 
ATOM      2  C2  SGN d 304       8.487  -2.823  56.887  0.00  0.00     0.081 C 
ATOM      3  O5S SGN d 304       3.597  -1.138  59.293  0.00  0.00    -0.572 OA
ATOM      4  C5  SGN d 304       7.087  -0.318  56.666  0.00  0.00     0.091 C 
ATOM      5  N   SGN d 304       9.782  -3.451  56.635  0.00  0.00    -0.210 NA
ATOM      6  O4S SGN d 304       2.812   0.556  57.841  0.00  0.00    -0.572 OA
ATOM      7  O1S SGN d 304      10.477  -5.042  58.596  0.00  0.00    -0.296 OA
ATOM      8  O3S SGN d 304       8.967  -5.945  57.072  0.00  0.00    -0.296 OA
ATOM      9  O1  SGN d 304       9.873  -0.914  57.716  0.00  0.00    -0.369 OA
ATOM     10  O6  SGN d 304       5.359   0.433  58.095  0.00  0.00    -0.254 OA
ATOM     11  O4  SGN d 304       6.315  -0.968  54.407  0.00  0.00    -0.348 OA
ATOM     12  O5  SGN d 304       7.485  -0.857  57.946  0.00  0.00    -0.350 OA
ATOM     13  C3  SGN d 304       7.974  -2.304  55.551  0.00  0.00     0.083 C 
ATOM     14  C6  SGN d 304       6.008   0.721  56.862  0.00  0.00     0.067 C 
ATOM     15  O3  SGN d 304       7.690  -3.406  54.741  0.00  0.00    -0.391 OA
ATOM     16  O2S SGN d 304      11.204  -5.667  56.459  0.00  0.00    -0.296 OA
ATOM     17  C1  SGN d 304       8.667  -1.670  57.891  0.00  0.00     0.147 C 
ATOM     18  S1  SGN d 304      10.124  -5.105  57.214  0.00  0.00     0.156 S 
ATOM     19  O6S SGN d 304       3.843  -1.411  56.976  0.00  0.00    -0.572 OA
ATOM     20  S2  SGN d 304       3.826  -0.445  58.048  0.00  0.00     0.251 S 
ATOM     21  H   SGN d 304       5.873  -2.011  56.115  0.00  0.00     0.091 H 
ATOM     22  H   SGN d 304       7.788  -3.516  57.304  0.00  0.00     0.076 H 
ATOM     23  H   SGN d 304       7.902   0.190  56.196  0.00  0.00     0.090 H 
ATOM     24  H   SGN d 304      10.486  -2.844  57.056  0.00  0.00     0.140 HD
ATOM     25  H   SGN d 304       9.742  -4.662  59.101  0.00  0.00     0.231 HD
ATOM     26  H   SGN d 304       8.231  -5.570  57.581  0.00  0.00     0.231 HD
ATOM     27  H   SGN d 304      10.631  -1.517  57.687  0.00  0.00     0.212 HD
ATOM     28  H   SGN d 304       8.724  -1.678  55.115  0.00  0.00     0.089 H 
ATOM     29  H   SGN d 304       5.304   0.674  56.058  0.00  0.00     0.080 H 
ATOM     30  H   SGN d 304       6.429   1.705  56.877  0.00  0.00     0.080 H 
ATOM     31  H   SGN d 304       7.009  -3.952  55.164  0.00  0.00     0.210 HD
ATOM     32  H   SGN d 304      11.990  -5.105  56.551  0.00  0.00     0.231 HD
ATOM     33  H   SGN d 304       8.797  -2.122  58.852  0.00  0.00     0.131 H 
ATOM     34  C4  SGN d 302      -0.975  -2.503  51.951  0.00  0.00     0.095 C 
ATOM     35  C5  SGN d 302       0.153  -3.437  52.369  0.00  0.00     0.091 C 
ATOM     36  C2  SGN d 302       0.593  -1.186  50.661  0.00  0.00     0.081 C 
ATOM     37  O1  SGN d 302       2.503  -1.827  52.017  0.00  0.00    -0.348 OA
ATOM     38  C3  SGN d 302      -0.438  -1.114  51.740  0.00  0.00     0.083 C 
ATOM     39  O1S SGN d 302       2.078   2.005  49.092  0.00  0.00    -0.296 OA
ATOM     40  S1  SGN d 302       1.730   0.597  49.031  0.00  0.00     0.156 S 
ATOM     41  O4S SGN d 302      -1.398  -6.984  49.413  0.00  0.00    -0.572 OA
ATOM     42  O3S SGN d 302       2.819  -0.269  48.634  0.00  0.00    -0.296 OA
ATOM     43  C6  SGN d 302      -0.346  -4.851  52.495  0.00  0.00     0.067 C 
ATOM     44  O6S SGN d 302      -0.219  -7.617  51.329  0.00  0.00    -0.572 OA
ATOM     45  O5S SGN d 302      -2.563  -7.117  51.425  0.00  0.00    -0.572 OA
ATOM     46  O2S SGN d 302       0.592   0.473  48.186  0.00  0.00    -0.296 OA
ATOM     47  O6  SGN d 302      -0.886  -5.147  51.212  0.00  0.00    -0.254 OA
ATOM     48  O4  SGN d 302      -1.892  -2.382  53.015  0.00  0.00    -0.348 OA
ATOM     49  O3  SGN d 302      -1.518  -0.298  51.345  0.00  0.00    -0.391 OA
ATOM     50  N   SGN d 302       1.289   0.065  50.647  0.00  0.00    -0.210 NA
ATOM     51  S2  SGN d 302      -1.295  -6.805  50.822  0.00  0.00     0.251 S 
ATOM     52  C1  SGN d 302       1.635  -2.228  50.989  0.00  0.00     0.150 C 
ATOM     53  O5  SGN d 302       1.039  -3.468  51.294  0.00  0.00    -0.349 OA
ATOM     54  H   SGN d 302      -1.422  -2.900  51.063  0.00  0.00     0.091 H 
ATOM     55  H   SGN d 302       0.572  -3.101  53.294  0.00  0.00     0.090 H 
ATOM     56  H   SGN d 302       0.109  -1.417  49.735  0.00  0.00     0.076 H 
ATOM     57  H   SGN d 302       0.007  -0.710  52.626  0.00  0.00     0.089 H 
ATOM     58  H   SGN d 302       1.301   2.519  49.364  0.00  0.00     0.231 HD
ATOM     59  H   SGN d 302       3.567  -0.146  49.240  0.00  0.00     0.231 HD
ATOM     60  H   SGN d 302      -1.100  -4.922  53.250  0.00  0.00     0.080 H 
ATOM     61  H   SGN d 302       0.427  -5.534  52.781  0.00  0.00     0.080 H 
ATOM     62  H   SGN d 302      -0.106   1.072  48.494  0.00  0.00     0.231 HD
ATOM     63  H   SGN d 302      -1.922  -0.663  50.543  0.00  0.00     0.210 HD
ATOM     64  H   SGN d 302       2.141  -0.032  51.200  0.00  0.00     0.140 HD
ATOM     65  H   SGN d 302       2.232  -2.344  50.109  0.00  0.00     0.131 H 
ATOM     66  O61 IDS d 303       3.496  -4.949  52.277  0.00  0.00    -0.646 OA
ATOM     67  O5  IDS d 303       4.143  -2.018  54.153  0.00  0.00    -0.340 OA
ATOM     68  S   IDS d 303       3.358   2.167  53.142  0.00  0.00     0.252 S 
ATOM     69  C1  IDS d 303       4.915  -0.810  54.115  0.00  0.00     0.161 C 
ATOM     70  C5  IDS d 303       4.358  -2.899  53.036  0.00  0.00     0.152 C 
ATOM     71  C6  IDS d 303       3.538  -4.148  53.227  0.00  0.00     0.206 C 
ATOM     72  O3  IDS d 303       6.034  -1.316  51.242  0.00  0.00    -0.390 OA
ATOM     73  O2S IDS d 303       4.035   2.863  52.072  0.00  0.00    -0.572 OA
ATOM     74  O62 IDS d 303       2.794  -4.209  54.219  0.00  0.00    -0.646 OA
ATOM     75  O1S IDS d 303       1.989   2.585  53.236  0.00  0.00    -0.572 OA
ATOM     76  O2  IDS d 303       3.358   0.478  52.841  0.00  0.00    -0.244 OA
ATOM     77  C4  IDS d 303       3.866  -2.207  51.780  0.00  0.00     0.103 C 
ATOM     78  C2  IDS d 303       4.621  -0.089  52.793  0.00  0.00     0.134 C 
ATOM     79  C3  IDS d 303       4.712  -0.966  51.542  0.00  0.00     0.094 C 
ATOM     80  O3S IDS d 303       4.106   2.442  54.300  0.00  0.00    -0.572 OA
ATOM     81  H   IDS d 303       4.601  -0.190  54.930  0.00  0.00     0.133 H 
ATOM     82  H   IDS d 303       5.397  -3.145  52.961  0.00  0.00     0.104 H 
ATOM     83  H   IDS d 303       6.049  -1.870  50.446  0.00  0.00     0.210 HD
ATOM     84  H   IDS d 303       3.938  -2.845  50.924  0.00  0.00     0.092 H 
ATOM     85  H   IDS d 303       5.390   0.649  52.701  0.00  0.00     0.097 H 
ATOM     86  H   IDS d 303       4.348  -0.418  50.699  0.00  0.00     0.091 H 
ATOM     87  O1S UAP d 301      -4.480  -5.863  55.371  0.00  0.00    -0.572 OA
ATOM     88  O61 UAP d 301      -5.740   0.658  52.238  0.00  0.00    -0.642 OA
ATOM     89  C1  UAP d 301      -3.136  -3.033  52.875  0.00  0.00     0.167 C 
ATOM     90  O62 UAP d 301      -5.439  -0.676  50.556  0.00  0.00    -0.642 OA
ATOM     91  O3S UAP d 301      -5.304  -4.126  56.647  0.00  0.00    -0.572 OA
ATOM     92  C6  UAP d 301      -5.253  -0.357  51.734  0.00  0.00     0.233 C 
ATOM     93  O3  UAP d 301      -2.766  -1.028  55.277  0.00  0.00    -0.389 OA
ATOM     94  C3  UAP d 301      -3.934  -1.644  54.799  0.00  0.00     0.086 C 
ATOM     95  S   UAP d 301      -5.408  -4.786  55.375  0.00  0.00     0.252 S 
ATOM     96  O2  UAP d 301      -4.943  -3.678  54.121  0.00  0.00    -0.244 OA
ATOM     97  C5  UAP d 301      -4.564  -1.156  52.525  0.00  0.00     0.147 C 
ATOM     98  O2S UAP d 301      -6.747  -5.240  55.080  0.00  0.00    -0.572 OA
ATOM     99  C2  UAP d 301      -3.696  -3.060  54.266  0.00  0.00     0.135 C 
ATOM    100  C4  UAP d 301      -4.511  -0.799  53.801  0.00  0.00    -0.034 C 
ATOM    101  O5  UAP d 301      -4.051  -2.313  52.041  0.00  0.00    -0.311 OA
ATOM    102  H   UAP d 301      -3.005  -3.994  52.424  0.00  0.00     0.134 H 
ATOM    103  H   UAP d 301      -2.360  -1.589  55.957  0.00  0.00     0.210 HD
ATOM    104  H   UAP d 301      -4.612  -1.766  55.618  0.00  0.00     0.093 H 
ATOM    105  H   UAP d 301      -3.030  -3.555  54.942  0.00  0.00     0.097 H 
ATOM    106  H   UAP d 301      -4.897   0.115  54.082  0.00  0.00     0.085 H 
ENDROOT
TORSDOF 33
ENDMDL
MODEL 20
REMARK VINA RESULT:      -6.6      3.651      4.969
REMARK  0 active torsions:
REMARK  status: ('A' for Active; 'I' for Inactive)
REMARK       I    between atoms: C4_1  and  O4_32 
REMARK       I    between atoms: C2_2  and  N_17 
REMARK       I    between atoms: C4_3  and  O4_45 
REMARK       I    between atoms: C5_5  and  C6_20 
REMARK       I    between atoms: C5_7  and  C6_42 
REMARK       I    between atoms: C2_8  and  N_48 
REMARK       I    between atoms: O1_9  and  C1_58 
REMARK       I    between atoms: O1_9  and  C4_62 
REMARK       I    between atoms: C3_11  and  O3_46 
REMARK       I    between atoms: O1S_13  and  S1_14 
REMARK       I    between atoms: S1_14  and  N_48 
REMARK       I    between atoms: S1_14  and  O2S_39 
REMARK       I    between atoms: S1_14  and  O3S_16 
REMARK       I    between atoms: N_17  and  S1_64 
REMARK       I    between atoms: C1_18  and  O4_45 
REMARK       I    between atoms: C6_20  and  O6_41 
REMARK       I    between atoms: O1S_22  and  S1_64 
REMARK       I    between atoms: O3S_25  and  S1_64 
REMARK       I    between atoms: O1_26  and  C1_61 
REMARK       I    between atoms: S_27  and  O2_57 
REMARK       I    between atoms: O6_29  and  C6_42 
REMARK       I    between atoms: O6_29  and  S2_68 
REMARK       I    between atoms: C6_30  and  C5_54 
REMARK       I    between atoms: C1_31  and  O4_32 
REMARK       I    between atoms: C5_35  and  C6_36 
REMARK       I    between atoms: O3_37  and  C3_38 
REMARK       I    between atoms: C3_40  and  O3_44 
REMARK       I    between atoms: O6_41  and  S2_52 
REMARK       I    between atoms: S_43  and  O2_53 
REMARK       I    between atoms: O3_47  and  C3_69 
REMARK       I    between atoms: O2S_49  and  S1_64 
REMARK       I    between atoms: O2_53  and  C2_59 
REMARK       I    between atoms: O2_57  and  C2_65 
ROOT
ATOM      1  C4  SGN d 304       0.617  -4.713  55.929  0.00  0.00     0.095 C 
ATOM      2  C2  SGN d 304      -1.647  -4.147  56.908  0.00  0.00     0.081 C 
ATOM      3  O5S SGN d 304       3.286  -1.832  58.594  0.00  0.00    -0.572 OA
ATOM      4  C5  SGN d 304       0.932  -5.366  57.284  0.00  0.00     0.091 C 
ATOM      5  N   SGN d 304      -3.064  -4.463  56.747  0.00  0.00    -0.210 NA
ATOM      6  O4S SGN d 304       4.923  -3.288  57.703  0.00  0.00    -0.572 OA
ATOM      7  O1S SGN d 304      -4.579  -2.821  58.116  0.00  0.00    -0.296 OA
ATOM      8  O3S SGN d 304      -3.819  -2.003  56.073  0.00  0.00    -0.296 OA
ATOM      9  O1  SGN d 304      -1.718  -5.938  58.650  0.00  0.00    -0.369 OA
ATOM     10  O6  SGN d 304       2.753  -4.420  58.460  0.00  0.00    -0.254 OA
ATOM     11  O4  SGN d 304       1.242  -5.430  54.831  0.00  0.00    -0.348 OA
ATOM     12  O5  SGN d 304       0.274  -4.636  58.343  0.00  0.00    -0.350 OA
ATOM     13  C3  SGN d 304      -0.904  -4.824  55.766  0.00  0.00     0.083 C 
ATOM     14  C6  SGN d 304       2.407  -5.492  57.590  0.00  0.00     0.067 C 
ATOM     15  O3  SGN d 304      -1.281  -4.199  54.575  0.00  0.00    -0.391 OA
ATOM     16  O2S SGN d 304      -5.490  -3.635  56.118  0.00  0.00    -0.296 OA
ATOM     17  C1  SGN d 304      -1.160  -4.674  58.269  0.00  0.00     0.147 C 
ATOM     18  S1  SGN d 304      -4.297  -3.170  56.760  0.00  0.00     0.156 S 
ATOM     19  O6S SGN d 304       2.974  -2.730  56.449  0.00  0.00    -0.572 OA
ATOM     20  S2  SGN d 304       3.516  -2.987  57.762  0.00  0.00     0.251 S 
ATOM     21  H   SGN d 304       0.980  -3.707  55.910  0.00  0.00     0.091 H 
ATOM     22  H   SGN d 304      -1.473  -3.091  56.883  0.00  0.00     0.076 H 
ATOM     23  H   SGN d 304       0.559  -6.367  57.222  0.00  0.00     0.090 H 
ATOM     24  H   SGN d 304      -3.307  -5.104  57.502  0.00  0.00     0.140 HD
ATOM     25  H   SGN d 304      -3.767  -2.507  58.544  0.00  0.00     0.231 HD
ATOM     26  H   SGN d 304      -3.011  -1.683  56.503  0.00  0.00     0.231 HD
ATOM     27  H   SGN d 304      -2.684  -5.900  58.579  0.00  0.00     0.212 HD
ATOM     28  H   SGN d 304      -1.157  -5.864  55.760  0.00  0.00     0.089 H 
ATOM     29  H   SGN d 304       2.975  -5.426  56.686  0.00  0.00     0.080 H 
ATOM     30  H   SGN d 304       2.619  -6.435  58.048  0.00  0.00     0.080 H 
ATOM     31  H   SGN d 304      -1.039  -3.260  54.612  0.00  0.00     0.210 HD
ATOM     32  H   SGN d 304      -5.818  -4.424  56.577  0.00  0.00     0.231 HD
ATOM     33  H   SGN d 304      -1.542  -4.003  59.009  0.00  0.00     0.131 H 
ATOM     34  C4  SGN d 302       6.415  -1.514  50.421  0.00  0.00     0.095 C 
ATOM     35  C5  SGN d 302       4.948  -1.235  50.722  0.00  0.00     0.091 C 
ATOM     36  C2  SGN d 302       5.898  -3.852  50.071  0.00  0.00     0.081 C 
ATOM     37  O1  SGN d 302       3.936  -3.804  51.502  0.00  0.00    -0.348 OA
ATOM     38  C3  SGN d 302       6.766  -2.914  50.845  0.00  0.00     0.083 C 
ATOM     39  O1S SGN d 302       6.521  -7.655  50.116  0.00  0.00    -0.296 OA
ATOM     40  S1  SGN d 302       6.007  -6.454  49.482  0.00  0.00     0.156 S 
ATOM     41  O4S SGN d 302       4.266   0.966  46.430  0.00  0.00    -0.572 OA
ATOM     42  O3S SGN d 302       4.627  -6.547  49.058  0.00  0.00    -0.296 OA
ATOM     43  C6  SGN d 302       4.552   0.128  50.220  0.00  0.00     0.067 C 
ATOM     44  O6S SGN d 302       2.899   1.624  48.207  0.00  0.00    -0.572 OA
ATOM     45  O5S SGN d 302       5.110   2.519  47.946  0.00  0.00    -0.572 OA
ATOM     46  O2S SGN d 302       6.890  -6.122  48.415  0.00  0.00    -0.296 OA
ATOM     47  O6  SGN d 302       4.853   0.091  48.830  0.00  0.00    -0.254 OA
ATOM     48  O4  SGN d 302       7.217  -0.678  51.224  0.00  0.00    -0.348 OA
ATOM     49  O3  SGN d 302       8.126  -3.121  50.535  0.00  0.00    -0.391 OA
ATOM     50  N   SGN d 302       6.037  -5.150  50.659  0.00  0.00    -0.210 NA
ATOM     51  S2  SGN d 302       4.256   1.371  47.795  0.00  0.00     0.251 S 
ATOM     52  C1  SGN d 302       4.442  -3.486  50.232  0.00  0.00     0.150 C 
ATOM     53  O5  SGN d 302       4.223  -2.126  49.934  0.00  0.00    -0.349 OA
ATOM     54  H   SGN d 302       6.574  -1.359  49.374  0.00  0.00     0.091 H 
ATOM     55  H   SGN d 302       4.776  -1.314  51.774  0.00  0.00     0.090 H 
ATOM     56  H   SGN d 302       6.183  -3.817  49.040  0.00  0.00     0.076 H 
ATOM     57  H   SGN d 302       6.613  -3.074  51.892  0.00  0.00     0.089 H 
ATOM     58  H   SGN d 302       7.446  -7.516  50.371  0.00  0.00     0.231 HD
ATOM     59  H   SGN d 302       4.070  -6.775  49.819  0.00  0.00     0.231 HD
ATOM     60  H   SGN d 302       5.118   0.892  50.711  0.00  0.00     0.080 H 
ATOM     61  H   SGN d 302       3.523   0.352  50.411  0.00  0.00     0.080 H 
ATOM     62  H   SGN d 302       7.798  -6.073  48.751  0.00  0.00     0.231 HD
ATOM     63  H   SGN d 302       8.267  -2.976  49.586  0.00  0.00     0.210 HD
ATOM     64  H   SGN d 302       5.270  -5.291  51.317  0.00  0.00     0.140 HD
ATOM     65  H   SGN d 302       3.903  -4.081  49.525  0.00  0.00     0.131 H 
ATOM     66  O61 IDS d 303       1.340  -1.898  50.850  0.00  0.00    -0.646 OA
ATOM     67  O5  IDS d 303       2.438  -3.622  53.740  0.00  0.00    -0.340 OA
ATOM     68  S   IDS d 303       5.481  -6.742  54.135  0.00  0.00     0.252 S 
ATOM     69  C1  IDS d 303       2.489  -4.938  54.308  0.00  0.00     0.161 C 
ATOM     70  C5  IDS d 303       1.781  -3.550  52.461  0.00  0.00     0.152 C 
ATOM     71  C6  IDS d 303       1.743  -2.115  52.006  0.00  0.00     0.206 C 
ATOM     72  O3  IDS d 303       1.336  -6.354  51.772  0.00  0.00    -0.390 OA
ATOM     73  O2S IDS d 303       5.340  -8.062  53.564  0.00  0.00    -0.572 OA
ATOM     74  O62 IDS d 303       2.301  -1.264  52.717  0.00  0.00    -0.646 OA
ATOM     75  O1S IDS d 303       6.843  -6.298  54.062  0.00  0.00    -0.572 OA
ATOM     76  O2  IDS d 303       4.526  -5.616  53.261  0.00  0.00    -0.244 OA
ATOM     77  C4  IDS d 303       2.604  -4.335  51.457  0.00  0.00     0.103 C 
ATOM     78  C2  IDS d 303       3.166  -5.875  53.299  0.00  0.00     0.134 C 
ATOM     79  C3  IDS d 303       2.617  -5.797  51.873  0.00  0.00     0.094 C 
ATOM     80  O3S IDS d 303       4.998  -6.851  55.451  0.00  0.00    -0.572 OA
ATOM     81  H   IDS d 303       3.084  -4.892  55.197  0.00  0.00     0.133 H 
ATOM     82  H   IDS d 303       0.789  -3.942  52.539  0.00  0.00     0.104 H 
ATOM     83  H   IDS d 303       1.025  -6.285  50.856  0.00  0.00     0.210 HD
ATOM     84  H   IDS d 303       2.199  -4.258  50.470  0.00  0.00     0.092 H 
ATOM     85  H   IDS d 303       2.955  -6.863  53.651  0.00  0.00     0.097 H 
ATOM     86  H   IDS d 303       3.245  -6.368  51.221  0.00  0.00     0.091 H 
ATOM     87  O1S UAP d 301       7.323   4.247  51.543  0.00  0.00    -0.572 OA
ATOM     88  O61 UAP d 301      12.125  -1.250  50.737  0.00  0.00    -0.642 OA
ATOM     89  C1  UAP d 301       7.874   0.397  50.587  0.00  0.00     0.167 C 
ATOM     90  O62 UAP d 301      11.152  -1.123  48.805  0.00  0.00    -0.642 OA
ATOM     91  O3S UAP d 301       8.963   3.924  53.133  0.00  0.00    -0.572 OA
ATOM     92  C6  UAP d 301      11.157  -0.962  50.028  0.00  0.00     0.233 C 
ATOM     93  O3  UAP d 301       8.662  -0.275  53.562  0.00  0.00    -0.389 OA
ATOM     94  C3  UAP d 301       9.282   0.591  52.647  0.00  0.00     0.086 C 
ATOM     95  S   UAP d 301       8.699   3.934  51.721  0.00  0.00     0.252 S 
ATOM     96  O2  UAP d 301       8.969   2.343  51.082  0.00  0.00    -0.244 OA
ATOM     97  C5  UAP d 301      10.122  -0.398  50.616  0.00  0.00     0.147 C 
ATOM     98  O2S UAP d 301       9.547   4.847  50.992  0.00  0.00    -0.572 OA
ATOM     99  C2  UAP d 301       8.292   1.293  51.714  0.00  0.00     0.135 C 
ATOM    100  C4  UAP d 301      10.256  -0.154  51.913  0.00  0.00    -0.034 C 
ATOM    101  O5  UAP d 301       9.052  -0.010  49.881  0.00  0.00    -0.311 OA
ATOM    102  H   UAP d 301       7.229   0.851  49.865  0.00  0.00     0.134 H 
ATOM    103  H   UAP d 301       7.996   0.214  54.071  0.00  0.00     0.210 HD
ATOM    104  H   UAP d 301       9.754   1.379  53.195  0.00  0.00     0.093 H 
ATOM    105  H   UAP d 301       7.449   1.597  52.300  0.00  0.00     0.097 H 
ATOM    106  H   UAP d 301      11.088  -0.512  52.406  0.00  0.00     0.085 H 
ENDROOT
TORSDOF 33
ENDMDL
MODEL 21
REMARK VINA RESULT:      -6.6      3.508      6.257
REMARK  0 active torsions:
REMARK  status: ('A' for Active; 'I' for Inactive)
REMARK       I    between atoms: C4_1  and  O4_32 
REMARK       I    between atoms: C2_2  and  N_17 
REMARK       I    between atoms: C4_3  and  O4_45 
REMARK       I    between atoms: C5_5  and  C6_20 
REMARK       I    between atoms: C5_7  and  C6_42 
REMARK       I    between atoms: C2_8  and  N_48 
REMARK       I    between atoms: O1_9  and  C1_58 
REMARK       I    between atoms: O1_9  and  C4_62 
REMARK       I    between atoms: C3_11  and  O3_46 
REMARK       I    between atoms: O1S_13  and  S1_14 
REMARK       I    between atoms: S1_14  and  N_48 
REMARK       I    between atoms: S1_14  and  O2S_39 
REMARK       I    between atoms: S1_14  and  O3S_16 
REMARK       I    between atoms: N_17  and  S1_64 
REMARK       I    between atoms: C1_18  and  O4_45 
REMARK       I    between atoms: C6_20  and  O6_41 
REMARK       I    between atoms: O1S_22  and  S1_64 
REMARK       I    between atoms: O3S_25  and  S1_64 
REMARK       I    between atoms: O1_26  and  C1_61 
REMARK       I    between atoms: S_27  and  O2_57 
REMARK       I    between atoms: O6_29  and  C6_42 
REMARK       I    between atoms: O6_29  and  S2_68 
REMARK       I    between atoms: C6_30  and  C5_54 
REMARK       I    between atoms: C1_31  and  O4_32 
REMARK       I    between atoms: C5_35  and  C6_36 
REMARK       I    between atoms: O3_37  and  C3_38 
REMARK       I    between atoms: C3_40  and  O3_44 
REMARK       I    between atoms: O6_41  and  S2_52 
REMARK       I    between atoms: S_43  and  O2_53 
REMARK       I    between atoms: O3_47  and  C3_69 
REMARK       I    between atoms: O2S_49  and  S1_64 
REMARK       I    between atoms: O2_53  and  C2_59 
REMARK       I    between atoms: O2_57  and  C2_65 
ROOT
ATOM      1  C4  SGN d 304      -0.984  -3.902  54.185  0.00  0.00     0.095 C 
ATOM      2  C2  SGN d 304      -3.059  -4.800  55.323  0.00  0.00     0.081 C 
ATOM      3  O5S SGN d 304       1.984  -4.063  57.885  0.00  0.00    -0.572 OA
ATOM      4  C5  SGN d 304      -0.400  -5.314  54.350  0.00  0.00     0.091 C 
ATOM      5  N   SGN d 304      -4.466  -5.089  55.055  0.00  0.00    -0.210 NA
ATOM      6  O4S SGN d 304       3.500  -3.829  56.084  0.00  0.00    -0.572 OA
ATOM      7  O1S SGN d 304      -5.783  -5.593  57.262  0.00  0.00    -0.296 OA
ATOM      8  O3S SGN d 304      -5.443  -3.337  56.801  0.00  0.00    -0.296 OA
ATOM      9  O1  SGN d 304      -2.732  -7.215  54.763  0.00  0.00    -0.369 OA
ATOM     10  O6  SGN d 304       1.556  -5.448  55.671  0.00  0.00    -0.254 OA
ATOM     11  O4  SGN d 304      -0.535  -3.276  52.953  0.00  0.00    -0.348 OA
ATOM     12  O5  SGN d 304      -0.890  -5.906  55.573  0.00  0.00    -0.350 OA
ATOM     13  C3  SGN d 304      -2.504  -4.096  54.094  0.00  0.00     0.083 C 
ATOM     14  C6  SGN d 304       1.109  -5.373  54.322  0.00  0.00     0.067 C 
ATOM     15  O3  SGN d 304      -3.117  -2.846  53.998  0.00  0.00    -0.391 OA
ATOM     16  O2S SGN d 304      -7.001  -4.552  55.554  0.00  0.00    -0.296 OA
ATOM     17  C1  SGN d 304      -2.310  -6.118  55.586  0.00  0.00     0.147 C 
ATOM     18  S1  SGN d 304      -5.735  -4.618  56.220  0.00  0.00     0.156 S 
ATOM     19  O6S SGN d 304       1.333  -2.841  55.991  0.00  0.00    -0.572 OA
ATOM     20  S2  SGN d 304       2.114  -3.964  56.452  0.00  0.00     0.251 S 
ATOM     21  H   SGN d 304      -0.678  -3.278  54.998  0.00  0.00     0.091 H 
ATOM     22  H   SGN d 304      -2.942  -4.178  56.186  0.00  0.00     0.076 H 
ATOM     23  H   SGN d 304      -0.731  -5.870  53.497  0.00  0.00     0.090 H 
ATOM     24  H   SGN d 304      -4.538  -6.099  54.938  0.00  0.00     0.140 HD
ATOM     25  H   SGN d 304      -4.923  -5.632  57.709  0.00  0.00     0.231 HD
ATOM     26  H   SGN d 304      -4.586  -3.375  57.254  0.00  0.00     0.231 HD
ATOM     27  H   SGN d 304      -3.695  -7.306  54.815  0.00  0.00     0.212 HD
ATOM     28  H   SGN d 304      -2.704  -4.699  53.233  0.00  0.00     0.089 H 
ATOM     29  H   SGN d 304       1.502  -4.494  53.855  0.00  0.00     0.080 H 
ATOM     30  H   SGN d 304       1.445  -6.223  53.764  0.00  0.00     0.080 H 
ATOM     31  H   SGN d 304      -2.917  -2.325  54.792  0.00  0.00     0.210 HD
ATOM     32  H   SGN d 304      -7.204  -5.414  55.159  0.00  0.00     0.231 HD
ATOM     33  H   SGN d 304      -2.583  -6.431  56.572  0.00  0.00     0.131 H 
ATOM     34  C4  SGN d 302       3.570   3.381  53.555  0.00  0.00     0.095 C 
ATOM     35  C5  SGN d 302       2.170   3.026  54.038  0.00  0.00     0.091 C 
ATOM     36  C2  SGN d 302       3.108   2.313  51.433  0.00  0.00     0.081 C 
ATOM     37  O1  SGN d 302       1.436   0.816  52.362  0.00  0.00    -0.348 OA
ATOM     38  C3  SGN d 302       4.057   2.337  52.587  0.00  0.00     0.083 C 
ATOM     39  O1S SGN d 302       3.905   0.328  48.227  0.00  0.00    -0.296 OA
ATOM     40  S1  SGN d 302       3.230   1.409  48.924  0.00  0.00     0.156 S 
ATOM     41  O4S SGN d 302       0.624   7.625  53.610  0.00  0.00    -0.572 OA
ATOM     42  O3S SGN d 302       1.803   1.463  48.698  0.00  0.00    -0.296 OA
ATOM     43  C6  SGN d 302       1.627   4.106  54.936  0.00  0.00     0.067 C 
ATOM     44  O6S SGN d 302      -0.429   6.279  55.203  0.00  0.00    -0.572 OA
ATOM     45  O5S SGN d 302       1.654   7.367  55.682  0.00  0.00    -0.572 OA
ATOM     46  O2S SGN d 302       3.890   2.621  48.574  0.00  0.00    -0.296 OA
ATOM     47  O6  SGN d 302       1.674   5.282  54.136  0.00  0.00    -0.254 OA
ATOM     48  O4  SGN d 302       4.464   3.315  54.642  0.00  0.00    -0.348 OA
ATOM     49  O3  SGN d 302       5.347   2.720  52.165  0.00  0.00    -0.391 OA
ATOM     50  N   SGN d 302       3.411   1.151  50.653  0.00  0.00    -0.210 NA
ATOM     51  S2  SGN d 302       0.841   6.720  54.688  0.00  0.00     0.251 S 
ATOM     52  C1  SGN d 302       1.690   2.122  51.914  0.00  0.00     0.150 C 
ATOM     53  O5  SGN d 302       1.357   3.064  52.908  0.00  0.00    -0.349 OA
ATOM     54  H   SGN d 302       3.530   4.354  53.110  0.00  0.00     0.091 H 
ATOM     55  H   SGN d 302       2.194   2.087  54.550  0.00  0.00     0.090 H 
ATOM     56  H   SGN d 302       3.200   3.229  50.889  0.00  0.00     0.076 H 
ATOM     57  H   SGN d 302       4.102   1.363  53.027  0.00  0.00     0.089 H 
ATOM     58  H   SGN d 302       4.853   0.357  48.426  0.00  0.00     0.231 HD
ATOM     59  H   SGN d 302       1.403   0.616  48.951  0.00  0.00     0.231 HD
ATOM     60  H   SGN d 302       2.236   4.216  55.808  0.00  0.00     0.080 H 
ATOM     61  H   SGN d 302       0.640   3.889  55.287  0.00  0.00     0.080 H 
ATOM     62  H   SGN d 302       4.841   2.532  48.743  0.00  0.00     0.231 HD
ATOM     63  H   SGN d 302       5.307   3.603  51.766  0.00  0.00     0.210 HD
ATOM     64  H   SGN d 302       2.783   0.398  50.935  0.00  0.00     0.140 HD
ATOM     65  H   SGN d 302       1.060   2.285  51.064  0.00  0.00     0.131 H 
ATOM     66  O61 IDS d 303      -1.320   1.925  53.765  0.00  0.00    -0.646 OA
ATOM     67  O5  IDS d 303       0.359  -1.191  53.811  0.00  0.00    -0.340 OA
ATOM     68  S   IDS d 303       3.566  -2.667  51.225  0.00  0.00     0.252 S 
ATOM     69  C1  IDS d 303       0.573  -2.360  53.010  0.00  0.00     0.161 C 
ATOM     70  C5  IDS d 303      -0.520  -0.216  53.221  0.00  0.00     0.152 C 
ATOM     71  C6  IDS d 303      -0.706   0.928  54.182  0.00  0.00     0.206 C 
ATOM     72  O3  IDS d 303      -0.950  -1.245  50.521  0.00  0.00    -0.390 OA
ATOM     73  O2S IDS d 303       3.385  -2.936  49.816  0.00  0.00    -0.572 OA
ATOM     74  O62 IDS d 303      -0.070   0.902  55.248  0.00  0.00    -0.646 OA
ATOM     75  O1S IDS d 303       4.870  -2.125  51.477  0.00  0.00    -0.572 OA
ATOM     76  O2  IDS d 303       2.418  -1.506  51.755  0.00  0.00    -0.244 OA
ATOM     77  C4  IDS d 303       0.144   0.330  51.971  0.00  0.00     0.103 C 
ATOM     78  C2  IDS d 303       1.100  -1.918  51.638  0.00  0.00     0.134 C 
ATOM     79  C3  IDS d 303       0.300  -0.800  50.967  0.00  0.00     0.094 C 
ATOM     80  O3S IDS d 303       3.334  -3.892  51.872  0.00  0.00    -0.572 OA
ATOM     81  H   IDS d 303       1.315  -2.962  53.493  0.00  0.00     0.133 H 
ATOM     82  H   IDS d 303      -1.463  -0.667  52.992  0.00  0.00     0.104 H 
ATOM     83  H   IDS d 303      -1.425  -0.510  50.102  0.00  0.00     0.210 HD
ATOM     84  H   IDS d 303      -0.435   1.112  51.526  0.00  0.00     0.092 H 
ATOM     85  H   IDS d 303       1.002  -2.779  51.011  0.00  0.00     0.097 H 
ATOM     86  H   IDS d 303       0.826  -0.462  50.098  0.00  0.00     0.091 H 
ATOM     87  O1S UAP d 301       4.396   5.736  58.944  0.00  0.00    -0.572 OA
ATOM     88  O61 UAP d 301       9.225   4.272  53.609  0.00  0.00    -0.642 OA
ATOM     89  C1  UAP d 301       4.945   4.536  55.162  0.00  0.00     0.167 C 
ATOM     90  O62 UAP d 301       7.915   5.758  52.729  0.00  0.00    -0.642 OA
ATOM     91  O3S UAP d 301       6.309   4.543  59.434  0.00  0.00    -0.572 OA
ATOM     92  C6  UAP d 301       8.133   4.839  53.525  0.00  0.00     0.233 C 
ATOM     93  O3  UAP d 301       6.286   1.865  56.157  0.00  0.00    -0.389 OA
ATOM     94  C3  UAP d 301       6.690   3.196  56.354  0.00  0.00     0.086 C 
ATOM     95  S   UAP d 301       5.794   5.663  58.696  0.00  0.00     0.252 S 
ATOM     96  O2  UAP d 301       6.020   5.375  56.999  0.00  0.00    -0.244 OA
ATOM     97  C5  UAP d 301       7.195   4.479  54.378  0.00  0.00     0.147 C 
ATOM     98  O2S UAP d 301       6.454   6.906  59.019  0.00  0.00    -0.572 OA
ATOM     99  C2  UAP d 301       5.516   4.168  56.499  0.00  0.00     0.135 C 
ATOM    100  C4  UAP d 301       7.549   3.568  55.275  0.00  0.00    -0.034 C 
ATOM    101  O5  UAP d 301       5.993   5.104  54.370  0.00  0.00    -0.311 OA
ATOM    102  H   UAP d 301       4.159   5.262  55.192  0.00  0.00     0.134 H 
ATOM    103  H   UAP d 301       5.701   1.594  56.882  0.00  0.00     0.210 HD
ATOM    104  H   UAP d 301       7.216   3.255  57.283  0.00  0.00     0.093 H 
ATOM    105  H   UAP d 301       4.780   3.702  57.120  0.00  0.00     0.097 H 
ATOM    106  H   UAP d 301       8.472   3.115  55.191  0.00  0.00     0.085 H 
ENDROOT
TORSDOF 33
ENDMDL
MODEL 22
REMARK VINA RESULT:      -6.5      3.363     10.772
REMARK  0 active torsions:
REMARK  status: ('A' for Active; 'I' for Inactive)
REMARK       I    between atoms: C4_1  and  O4_32 
REMARK       I    between atoms: C2_2  and  N_17 
REMARK       I    between atoms: C4_3  and  O4_45 
REMARK       I    between atoms: C5_5  and  C6_20 
REMARK       I    between atoms: C5_7  and  C6_42 
REMARK       I    between atoms: C2_8  and  N_48 
REMARK       I    between atoms: O1_9  and  C1_58 
REMARK       I    between atoms: O1_9  and  C4_62 
REMARK       I    between atoms: C3_11  and  O3_46 
REMARK       I    between atoms: O1S_13  and  S1_14 
REMARK       I    between atoms: S1_14  and  N_48 
REMARK       I    between atoms: S1_14  and  O2S_39 
REMARK       I    between atoms: S1_14  and  O3S_16 
REMARK       I    between atoms: N_17  and  S1_64 
REMARK       I    between atoms: C1_18  and  O4_45 
REMARK       I    between atoms: C6_20  and  O6_41 
REMARK       I    between atoms: O1S_22  and  S1_64 
REMARK       I    between atoms: O3S_25  and  S1_64 
REMARK       I    between atoms: O1_26  and  C1_61 
REMARK       I    between atoms: S_27  and  O2_57 
REMARK       I    between atoms: O6_29  and  C6_42 
REMARK       I    between atoms: O6_29  and  S2_68 
REMARK       I    between atoms: C6_30  and  C5_54 
REMARK       I    between atoms: C1_31  and  O4_32 
REMARK       I    between atoms: C5_35  and  C6_36 
REMARK       I    between atoms: O3_37  and  C3_38 
REMARK       I    between atoms: C3_40  and  O3_44 
REMARK       I    between atoms: O6_41  and  S2_52 
REMARK       I    between atoms: S_43  and  O2_53 
REMARK       I    between atoms: O3_47  and  C3_69 
REMARK       I    between atoms: O2S_49  and  S1_64 
REMARK       I    between atoms: O2_53  and  C2_59 
REMARK       I    between atoms: O2_57  and  C2_65 
ROOT
ATOM      1  C4  SGN d 304       7.941   2.257  50.599  0.00  0.00     0.095 C 
ATOM      2  C2  SGN d 304       8.551   4.677  51.022  0.00  0.00     0.081 C 
ATOM      3  O5S SGN d 304       3.875   2.947  48.250  0.00  0.00    -0.572 OA
ATOM      4  C5  SGN d 304       8.216   2.547  49.115  0.00  0.00     0.091 C 
ATOM      5  N   SGN d 304       9.570   5.492  51.679  0.00  0.00    -0.210 NA
ATOM      6  O4S SGN d 304       4.340   0.689  47.719  0.00  0.00    -0.572 OA
ATOM      7  O1S SGN d 304       8.843   8.004  51.830  0.00  0.00    -0.296 OA
ATOM      8  O3S SGN d 304       7.929   6.605  53.451  0.00  0.00    -0.296 OA
ATOM      9  O1  SGN d 304       9.961   5.028  48.987  0.00  0.00    -0.369 OA
ATOM     10  O6  SGN d 304       6.365   2.260  47.672  0.00  0.00    -0.254 OA
ATOM     11  O4  SGN d 304       8.321   0.901  50.959  0.00  0.00    -0.348 OA
ATOM     12  O5  SGN d 304       7.846   3.910  48.807  0.00  0.00    -0.350 OA
ATOM     13  C3  SGN d 304       8.840   3.226  51.379  0.00  0.00     0.083 C 
ATOM     14  C6  SGN d 304       7.530   1.602  48.156  0.00  0.00     0.067 C 
ATOM     15  O3  SGN d 304       8.606   3.063  52.746  0.00  0.00    -0.391 OA
ATOM     16  O2S SGN d 304      10.180   7.214  53.583  0.00  0.00    -0.296 OA
ATOM     17  C1  SGN d 304       8.629   4.894  49.501  0.00  0.00     0.147 C 
ATOM     18  S1  SGN d 304       9.110   6.893  52.687  0.00  0.00     0.156 S 
ATOM     19  O6S SGN d 304       4.986   1.606  49.823  0.00  0.00    -0.572 OA
ATOM     20  S2  SGN d 304       4.810   1.861  48.412  0.00  0.00     0.251 S 
ATOM     21  H   SGN d 304       6.899   2.371  50.812  0.00  0.00     0.091 H 
ATOM     22  H   SGN d 304       7.566   4.943  51.342  0.00  0.00     0.076 H 
ATOM     23  H   SGN d 304       9.266   2.396  48.976  0.00  0.00     0.090 H 
ATOM     24  H   SGN d 304      10.176   5.850  50.941  0.00  0.00     0.140 HD
ATOM     25  H   SGN d 304       8.117   7.779  51.226  0.00  0.00     0.231 HD
ATOM     26  H   SGN d 304       7.200   6.387  52.850  0.00  0.00     0.231 HD
ATOM     27  H   SGN d 304      10.436   5.704  49.495  0.00  0.00     0.212 HD
ATOM     28  H   SGN d 304       9.855   3.005  51.124  0.00  0.00     0.089 H 
ATOM     29  H   SGN d 304       7.258   0.700  48.663  0.00  0.00     0.080 H 
ATOM     30  H   SGN d 304       8.183   1.344  47.348  0.00  0.00     0.080 H 
ATOM     31  H   SGN d 304       7.680   3.270  52.943  0.00  0.00     0.210 HD
ATOM     32  H   SGN d 304      10.982   7.410  53.073  0.00  0.00     0.231 HD
ATOM     33  H   SGN d 304       8.193   5.851  49.307  0.00  0.00     0.131 H 
ATOM     34  C4  SGN d 302       2.685  -3.853  53.637  0.00  0.00     0.095 C 
ATOM     35  C5  SGN d 302       3.184  -2.510  54.152  0.00  0.00     0.091 C 
ATOM     36  C2  SGN d 302       4.972  -4.580  53.318  0.00  0.00     0.081 C 
ATOM     37  O1  SGN d 302       5.827  -2.322  53.049  0.00  0.00    -0.348 OA
ATOM     38  C3  SGN d 302       3.656  -4.408  52.631  0.00  0.00     0.083 C 
ATOM     39  O1S SGN d 302       7.878  -6.473  51.638  0.00  0.00    -0.296 OA
ATOM     40  S1  SGN d 302       7.178  -5.998  52.819  0.00  0.00     0.156 S 
ATOM     41  O4S SGN d 302       2.037  -3.608  58.757  0.00  0.00    -0.572 OA
ATOM     42  O3S SGN d 302       8.010  -5.274  53.754  0.00  0.00    -0.296 OA
ATOM     43  C6  SGN d 302       2.274  -1.982  55.229  0.00  0.00     0.067 C 
ATOM     44  O6S SGN d 302       2.034  -1.350  58.155  0.00  0.00    -0.572 OA
ATOM     45  O5S SGN d 302       0.148  -2.758  57.693  0.00  0.00    -0.572 OA
ATOM     46  O2S SGN d 302       6.530  -7.118  53.412  0.00  0.00    -0.296 OA
ATOM     47  O6  SGN d 302       2.269  -3.006  56.216  0.00  0.00    -0.254 OA
ATOM     48  O4  SGN d 302       1.489  -3.656  52.918  0.00  0.00    -0.348 OA
ATOM     49  O3  SGN d 302       3.153  -5.651  52.197  0.00  0.00    -0.391 OA
ATOM     50  N   SGN d 302       5.952  -4.846  52.310  0.00  0.00    -0.210 NA
ATOM     51  S2  SGN d 302       1.580  -2.667  57.791  0.00  0.00     0.251 S 
ATOM     52  C1  SGN d 302       5.402  -3.290  53.974  0.00  0.00     0.150 C 
ATOM     53  O5  SGN d 302       4.386  -2.775  54.804  0.00  0.00    -0.349 OA
ATOM     54  H   SGN d 302       2.561  -4.505  54.477  0.00  0.00     0.091 H 
ATOM     55  H   SGN d 302       3.250  -1.816  53.340  0.00  0.00     0.090 H 
ATOM     56  H   SGN d 302       4.883  -5.359  54.045  0.00  0.00     0.076 H 
ATOM     57  H   SGN d 302       3.782  -3.762  51.786  0.00  0.00     0.089 H 
ATOM     58  H   SGN d 302       7.257  -6.946  51.063  0.00  0.00     0.231 HD
ATOM     59  H   SGN d 302       8.427  -4.524  53.301  0.00  0.00     0.231 HD
ATOM     60  H   SGN d 302       1.288  -1.819  54.846  0.00  0.00     0.080 H 
ATOM     61  H   SGN d 302       2.602  -1.040  55.617  0.00  0.00     0.080 H 
ATOM     62  H   SGN d 302       5.986  -7.567  52.746  0.00  0.00     0.231 HD
ATOM     63  H   SGN d 302       3.039  -6.237  52.961  0.00  0.00     0.210 HD
ATOM     64  H   SGN d 302       6.413  -3.969  52.067  0.00  0.00     0.140 HD
ATOM     65  H   SGN d 302       6.250  -3.530  54.581  0.00  0.00     0.131 H 
ATOM     66  O61 IDS d 303       5.610  -0.073  55.435  0.00  0.00    -0.646 OA
ATOM     67  O5  IDS d 303       6.257   0.110  51.960  0.00  0.00    -0.340 OA
ATOM     68  S   IDS d 303       7.295  -3.079  49.147  0.00  0.00     0.252 S 
ATOM     69  C1  IDS d 303       7.300  -0.112  51.001  0.00  0.00     0.161 C 
ATOM     70  C5  IDS d 303       6.647  -0.113  53.327  0.00  0.00     0.152 C 
ATOM     71  C6  IDS d 303       5.486   0.209  54.230  0.00  0.00     0.206 C 
ATOM     72  O3  IDS d 303       9.321  -1.264  53.086  0.00  0.00    -0.390 OA
ATOM     73  O2S IDS d 303       8.539  -3.811  49.206  0.00  0.00    -0.572 OA
ATOM     74  O62 IDS d 303       4.412   0.537  53.702  0.00  0.00    -0.646 OA
ATOM     75  O1S IDS d 303       6.216  -3.938  48.753  0.00  0.00    -0.572 OA
ATOM     76  O2  IDS d 303       6.908  -2.449  50.696  0.00  0.00    -0.244 OA
ATOM     77  C4  IDS d 303       6.973  -1.585  53.496  0.00  0.00     0.103 C 
ATOM     78  C2  IDS d 303       7.832  -1.539  51.185  0.00  0.00     0.134 C 
ATOM     79  C3  IDS d 303       8.174  -1.922  52.626  0.00  0.00     0.094 C 
ATOM     80  O3S IDS d 303       7.524  -2.022  48.250  0.00  0.00    -0.572 OA
ATOM     81  H   IDS d 303       6.875  -0.020  50.022  0.00  0.00     0.133 H 
ATOM     82  H   IDS d 303       7.489   0.500  53.570  0.00  0.00     0.104 H 
ATOM     83  H   IDS d 303       9.503  -1.533  54.000  0.00  0.00     0.210 HD
ATOM     84  H   IDS d 303       7.204  -1.824  54.513  0.00  0.00     0.092 H 
ATOM     85  H   IDS d 303       8.751  -1.567  50.639  0.00  0.00     0.097 H 
ATOM     86  H   IDS d 303       8.389  -2.970  52.672  0.00  0.00     0.091 H 
ATOM     87  O1S UAP d 301      -2.781  -1.652  54.374  0.00  0.00    -0.572 OA
ATOM     88  O61 UAP d 301      -0.533  -7.717  50.900  0.00  0.00    -0.642 OA
ATOM     89  C1  UAP d 301       0.289  -4.082  53.528  0.00  0.00     0.167 C 
ATOM     90  O62 UAP d 301       0.032  -8.062  52.964  0.00  0.00    -0.642 OA
ATOM     91  O3S UAP d 301      -3.495  -2.062  52.219  0.00  0.00    -0.572 OA
ATOM     92  C6  UAP d 301      -0.213  -7.308  52.019  0.00  0.00     0.233 C 
ATOM     93  O3  UAP d 301       0.194  -3.219  50.500  0.00  0.00    -0.389 OA
ATOM     94  C3  UAP d 301      -0.786  -3.856  51.279  0.00  0.00     0.086 C 
ATOM     95  S   UAP d 301      -3.245  -2.669  53.497  0.00  0.00     0.252 S 
ATOM     96  O2  UAP d 301      -1.977  -3.844  53.327  0.00  0.00    -0.244 OA
ATOM     97  C5  UAP d 301      -0.206  -6.003  52.207  0.00  0.00     0.147 C 
ATOM     98  O2S UAP d 301      -4.399  -3.348  54.037  0.00  0.00    -0.572 OA
ATOM     99  C2  UAP d 301      -0.788  -3.397  52.740  0.00  0.00     0.135 C 
ATOM    100  C4  UAP d 301      -0.595  -5.268  51.173  0.00  0.00    -0.034 C 
ATOM    101  O5  UAP d 301       0.084  -5.495  53.429  0.00  0.00    -0.311 OA
ATOM    102  H   UAP d 301       0.300  -3.848  54.573  0.00  0.00     0.134 H 
ATOM    103  H   UAP d 301       0.080  -2.258  50.559  0.00  0.00     0.210 HD
ATOM    104  H   UAP d 301      -1.748  -3.583  50.901  0.00  0.00     0.093 H 
ATOM    105  H   UAP d 301      -0.659  -2.335  52.749  0.00  0.00     0.097 H 
ATOM    106  H   UAP d 301      -0.765  -5.730  50.267  0.00  0.00     0.085 H 
ENDROOT
TORSDOF 33
ENDMDL
MODEL 23
REMARK VINA RESULT:      -6.5      3.791     10.774
REMARK  0 active torsions:
REMARK  status: ('A' for Active; 'I' for Inactive)
REMARK       I    between atoms: C4_1  and  O4_32 
REMARK       I    between atoms: C2_2  and  N_17 
REMARK       I    between atoms: C4_3  and  O4_45 
REMARK       I    between atoms: C5_5  and  C6_20 
REMARK       I    between atoms: C5_7  and  C6_42 
REMARK       I    between atoms: C2_8  and  N_48 
REMARK       I    between atoms: O1_9  and  C1_58 
REMARK       I    between atoms: O1_9  and  C4_62 
REMARK       I    between atoms: C3_11  and  O3_46 
REMARK       I    between atoms: O1S_13  and  S1_14 
REMARK       I    between atoms: S1_14  and  N_48 
REMARK       I    between atoms: S1_14  and  O2S_39 
REMARK       I    between atoms: S1_14  and  O3S_16 
REMARK       I    between atoms: N_17  and  S1_64 
REMARK       I    between atoms: C1_18  and  O4_45 
REMARK       I    between atoms: C6_20  and  O6_41 
REMARK       I    between atoms: O1S_22  and  S1_64 
REMARK       I    between atoms: O3S_25  and  S1_64 
REMARK       I    between atoms: O1_26  and  C1_61 
REMARK       I    between atoms: S_27  and  O2_57 
REMARK       I    between atoms: O6_29  and  C6_42 
REMARK       I    between atoms: O6_29  and  S2_68 
REMARK       I    between atoms: C6_30  and  C5_54 
REMARK       I    between atoms: C1_31  and  O4_32 
REMARK       I    between atoms: C5_35  and  C6_36 
REMARK       I    between atoms: O3_37  and  C3_38 
REMARK       I    between atoms: C3_40  and  O3_44 
REMARK       I    between atoms: O6_41  and  S2_52 
REMARK       I    between atoms: S_43  and  O2_53 
REMARK       I    between atoms: O3_47  and  C3_69 
REMARK       I    between atoms: O2S_49  and  S1_64 
REMARK       I    between atoms: O2_53  and  C2_59 
REMARK       I    between atoms: O2_57  and  C2_65 
ROOT
ATOM      1  C4  SGN d 304       8.531  -1.495  55.435  0.00  0.00     0.095 C 
ATOM      2  C2  SGN d 304       9.099  -3.386  57.018  0.00  0.00     0.081 C 
ATOM      3  O5S SGN d 304       7.101   1.707  58.634  0.00  0.00    -0.572 OA
ATOM      4  C5  SGN d 304       9.736  -0.757  56.038  0.00  0.00     0.091 C 
ATOM      5  N   SGN d 304       9.569  -4.769  57.011  0.00  0.00    -0.210 NA
ATOM      6  O4S SGN d 304       7.434   3.070  56.730  0.00  0.00    -0.572 OA
ATOM      7  O1S SGN d 304       9.323  -5.882  59.370  0.00  0.00    -0.296 OA
ATOM      8  O3S SGN d 304       7.375  -5.810  58.098  0.00  0.00    -0.296 OA
ATOM      9  O1  SGN d 304      11.519  -2.844  57.335  0.00  0.00    -0.369 OA
ATOM     10  O6  SGN d 304       9.230   1.284  57.120  0.00  0.00    -0.254 OA
ATOM     11  O4  SGN d 304       8.370  -1.194  54.023  0.00  0.00    -0.348 OA
ATOM     12  O5  SGN d 304       9.872  -1.102  57.435  0.00  0.00    -0.350 OA
ATOM     13  C3  SGN d 304       8.856  -2.988  55.570  0.00  0.00     0.083 C 
ATOM     14  C6  SGN d 304       9.689   0.746  55.885  0.00  0.00     0.067 C 
ATOM     15  O3  SGN d 304       7.777  -3.734  55.092  0.00  0.00    -0.391 OA
ATOM     16  O2S SGN d 304       9.075  -7.310  57.531  0.00  0.00    -0.296 OA
ATOM     17  C1  SGN d 304      10.169  -2.488  57.663  0.00  0.00     0.147 C 
ATOM     18  S1  SGN d 304       8.798  -6.003  58.048  0.00  0.00     0.156 S 
ATOM     19  O6S SGN d 304       6.712   0.810  56.501  0.00  0.00    -0.572 OA
ATOM     20  S2  SGN d 304       7.526   1.733  57.256  0.00  0.00     0.251 S 
ATOM     21  H   SGN d 304       7.631  -1.204  55.935  0.00  0.00     0.091 H 
ATOM     22  H   SGN d 304       8.196  -3.280  57.583  0.00  0.00     0.076 H 
ATOM     23  H   SGN d 304      10.589  -1.082  55.480  0.00  0.00     0.090 H 
ATOM     24  H   SGN d 304      10.554  -4.743  57.274  0.00  0.00     0.140 HD
ATOM     25  H   SGN d 304       9.132  -4.995  59.714  0.00  0.00     0.231 HD
ATOM     26  H   SGN d 304       7.181  -4.927  58.447  0.00  0.00     0.231 HD
ATOM     27  H   SGN d 304      11.655  -3.788  57.510  0.00  0.00     0.212 HD
ATOM     28  H   SGN d 304       9.746  -3.180  55.007  0.00  0.00     0.089 H 
ATOM     29  H   SGN d 304       9.017   1.013  55.097  0.00  0.00     0.080 H 
ATOM     30  H   SGN d 304      10.657   1.131  55.640  0.00  0.00     0.080 H 
ATOM     31  H   SGN d 304       6.988  -3.539  55.621  0.00  0.00     0.210 HD
ATOM     32  H   SGN d 304      10.035  -7.446  57.494  0.00  0.00     0.231 HD
ATOM     33  H   SGN d 304      10.117  -2.663  58.717  0.00  0.00     0.131 H 
ATOM     34  C4  SGN d 302       1.672   2.221  51.782  0.00  0.00     0.095 C 
ATOM     35  C5  SGN d 302       1.928   0.900  52.496  0.00  0.00     0.091 C 
ATOM     36  C2  SGN d 302       3.477   1.737  50.243  0.00  0.00     0.081 C 
ATOM     37  O1  SGN d 302       4.647   0.295  51.808  0.00  0.00    -0.348 OA
ATOM     38  C3  SGN d 302       2.960   2.751  51.212  0.00  0.00     0.083 C 
ATOM     39  O1S SGN d 302       6.436   2.529  47.904  0.00  0.00    -0.296 OA
ATOM     40  S1  SGN d 302       5.227   1.791  48.228  0.00  0.00     0.156 S 
ATOM     41  O4S SGN d 302      -2.065  -1.144  50.596  0.00  0.00    -0.572 OA
ATOM     42  O3S SGN d 302       5.365   0.354  48.140  0.00  0.00    -0.296 OA
ATOM     43  C6  SGN d 302       0.637   0.306  52.994  0.00  0.00     0.067 C 
ATOM     44  O6S SGN d 302      -1.323  -1.945  52.662  0.00  0.00    -0.572 OA
ATOM     45  O5S SGN d 302      -2.663   0.039  52.510  0.00  0.00    -0.572 OA
ATOM     46  O2S SGN d 302       4.183   2.296  47.403  0.00  0.00    -0.296 OA
ATOM     47  O6  SGN d 302      -0.163   0.178  51.824  0.00  0.00    -0.254 OA
ATOM     48  O4  SGN d 302       1.268   3.186  52.727  0.00  0.00    -0.348 OA
ATOM     49  O3  SGN d 302       2.664   3.964  50.556  0.00  0.00    -0.391 OA
ATOM     50  N   SGN d 302       4.818   2.109  49.907  0.00  0.00    -0.210 NA
ATOM     51  S2  SGN d 302      -1.638  -0.764  51.901  0.00  0.00     0.251 S 
ATOM     52  C1  SGN d 302       3.582   0.381  50.898  0.00  0.00     0.150 C 
ATOM     53  O5  SGN d 302       2.368   0.016  51.514  0.00  0.00    -0.349 OA
ATOM     54  H   SGN d 302       0.937   2.051  51.023  0.00  0.00     0.091 H 
ATOM     55  H   SGN d 302       2.608   1.056  53.306  0.00  0.00     0.090 H 
ATOM     56  H   SGN d 302       2.820   1.698  49.400  0.00  0.00     0.076 H 
ATOM     57  H   SGN d 302       3.698   2.927  51.966  0.00  0.00     0.089 H 
ATOM     58  H   SGN d 302       6.265   3.480  47.986  0.00  0.00     0.231 HD
ATOM     59  H   SGN d 302       6.087   0.063  48.718  0.00  0.00     0.231 HD
ATOM     60  H   SGN d 302       0.170   0.956  53.704  0.00  0.00     0.080 H 
ATOM     61  H   SGN d 302       0.782  -0.628  53.495  0.00  0.00     0.080 H 
ATOM     62  H   SGN d 302       4.133   3.260  47.498  0.00  0.00     0.231 HD
ATOM     63  H   SGN d 302       1.995   3.806  49.872  0.00  0.00     0.210 HD
ATOM     64  H   SGN d 302       5.458   1.583  50.502  0.00  0.00     0.140 HD
ATOM     65  H   SGN d 302       3.789  -0.316  50.112  0.00  0.00     0.131 H 
ATOM     66  O61 IDS d 303       3.307  -2.466  52.982  0.00  0.00    -0.646 OA
ATOM     67  O5  IDS d 303       6.055  -0.470  53.981  0.00  0.00    -0.340 OA
ATOM     68  S   IDS d 303       8.136   2.700  51.796  0.00  0.00     0.252 S 
ATOM     69  C1  IDS d 303       7.417  -0.187  53.637  0.00  0.00     0.161 C 
ATOM     70  C5  IDS d 303       5.433  -1.483  53.168  0.00  0.00     0.152 C 
ATOM     71  C6  IDS d 303       4.033  -1.725  53.667  0.00  0.00     0.206 C 
ATOM     72  O3  IDS d 303       7.411  -1.976  51.076  0.00  0.00    -0.390 OA
ATOM     73  O2S IDS d 303       8.916   2.458  50.604  0.00  0.00    -0.572 OA
ATOM     74  O62 IDS d 303       3.618  -1.022  54.603  0.00  0.00    -0.646 OA
ATOM     75  O1S IDS d 303       7.445   3.953  51.707  0.00  0.00    -0.572 OA
ATOM     76  O2  IDS d 303       6.950   1.473  51.984  0.00  0.00    -0.244 OA
ATOM     77  C4  IDS d 303       5.336  -0.962  51.747  0.00  0.00     0.103 C 
ATOM     78  C2  IDS d 303       7.473   0.201  52.153  0.00  0.00     0.134 C 
ATOM     79  C3  IDS d 303       6.742  -0.753  51.207  0.00  0.00     0.094 C 
ATOM     80  O3S IDS d 303       9.052   2.640  52.861  0.00  0.00    -0.572 OA
ATOM     81  H   IDS d 303       7.743   0.644  54.229  0.00  0.00     0.133 H 
ATOM     82  H   IDS d 303       6.005  -2.386  53.211  0.00  0.00     0.104 H 
ATOM     83  H   IDS d 303       6.917  -2.551  50.470  0.00  0.00     0.210 HD
ATOM     84  H   IDS d 303       4.818  -1.647  51.110  0.00  0.00     0.092 H 
ATOM     85  H   IDS d 303       8.508   0.154  51.891  0.00  0.00     0.097 H 
ATOM     86  H   IDS d 303       6.708  -0.323  50.227  0.00  0.00     0.091 H 
ATOM     87  O1S UAP d 301      -2.551   3.142  55.854  0.00  0.00    -0.572 OA
ATOM     88  O61 UAP d 301       0.408   7.743  50.956  0.00  0.00    -0.642 OA
ATOM     89  C1  UAP d 301      -0.090   3.568  52.722  0.00  0.00     0.167 C 
ATOM     90  O62 UAP d 301      -0.549   6.231  49.734  0.00  0.00    -0.642 OA
ATOM     91  O3S UAP d 301      -1.767   5.198  56.550  0.00  0.00    -0.572 OA
ATOM     92  C6  UAP d 301      -0.006   6.595  50.781  0.00  0.00     0.233 C 
ATOM     93  O3  UAP d 301       1.921   5.243  54.475  0.00  0.00    -0.389 OA
ATOM     94  C3  UAP d 301       0.586   5.518  54.139  0.00  0.00     0.086 C 
ATOM     95  S   UAP d 301      -2.496   4.522  55.513  0.00  0.00     0.252 S 
ATOM     96  O2  UAP d 301      -1.622   4.666  54.019  0.00  0.00    -0.244 OA
ATOM     97  C5  UAP d 301       0.084   5.757  51.794  0.00  0.00     0.147 C 
ATOM     98  O2S UAP d 301      -3.816   5.067  55.300  0.00  0.00    -0.572 OA
ATOM     99  C2  UAP d 301      -0.283   4.260  54.039  0.00  0.00     0.135 C 
ATOM    100  C4  UAP d 301       0.573   6.262  52.919  0.00  0.00    -0.034 C 
ATOM    101  O5  UAP d 301      -0.403   4.498  51.680  0.00  0.00    -0.311 OA
ATOM    102  H   UAP d 301      -0.716   2.714  52.567  0.00  0.00     0.134 H 
ATOM    103  H   UAP d 301       1.949   4.738  55.303  0.00  0.00     0.210 HD
ATOM    104  H   UAP d 301       0.150   6.094  54.928  0.00  0.00     0.093 H 
ATOM    105  H   UAP d 301      -0.024   3.618  54.855  0.00  0.00     0.097 H 
ATOM    106  H   UAP d 301       0.956   7.220  52.913  0.00  0.00     0.085 H 
ENDROOT
TORSDOF 33
ENDMDL
MODEL 24
REMARK VINA RESULT:      -6.5      3.718      6.514
REMARK  0 active torsions:
REMARK  status: ('A' for Active; 'I' for Inactive)
REMARK       I    between atoms: C4_1  and  O4_32 
REMARK       I    between atoms: C2_2  and  N_17 
REMARK       I    between atoms: C4_3  and  O4_45 
REMARK       I    between atoms: C5_5  and  C6_20 
REMARK       I    between atoms: C5_7  and  C6_42 
REMARK       I    between atoms: C2_8  and  N_48 
REMARK       I    between atoms: O1_9  and  C1_58 
REMARK       I    between atoms: O1_9  and  C4_62 
REMARK       I    between atoms: C3_11  and  O3_46 
REMARK       I    between atoms: O1S_13  and  S1_14 
REMARK       I    between atoms: S1_14  and  N_48 
REMARK       I    between atoms: S1_14  and  O2S_39 
REMARK       I    between atoms: S1_14  and  O3S_16 
REMARK       I    between atoms: N_17  and  S1_64 
REMARK       I    between atoms: C1_18  and  O4_45 
REMARK       I    between atoms: C6_20  and  O6_41 
REMARK       I    between atoms: O1S_22  and  S1_64 
REMARK       I    between atoms: O3S_25  and  S1_64 
REMARK       I    between atoms: O1_26  and  C1_61 
REMARK       I    between atoms: S_27  and  O2_57 
REMARK       I    between atoms: O6_29  and  C6_42 
REMARK       I    between atoms: O6_29  and  S2_68 
REMARK       I    between atoms: C6_30  and  C5_54 
REMARK       I    between atoms: C1_31  and  O4_32 
REMARK       I    between atoms: C5_35  and  C6_36 
REMARK       I    between atoms: O3_37  and  C3_38 
REMARK       I    between atoms: C3_40  and  O3_44 
REMARK       I    between atoms: O6_41  and  S2_52 
REMARK       I    between atoms: S_43  and  O2_53 
REMARK       I    between atoms: O3_47  and  C3_69 
REMARK       I    between atoms: O2S_49  and  S1_64 
REMARK       I    between atoms: O2_53  and  C2_59 
REMARK       I    between atoms: O2_57  and  C2_65 
ROOT
ATOM      1  C4  SGN d 304       0.524  -4.436  53.307  0.00  0.00     0.095 C 
ATOM      2  C2  SGN d 304      -1.530  -5.591  54.231  0.00  0.00     0.081 C 
ATOM      3  O5S SGN d 304       3.125  -4.325  57.275  0.00  0.00    -0.572 OA
ATOM      4  C5  SGN d 304       1.251  -5.774  53.515  0.00  0.00     0.091 C 
ATOM      5  N   SGN d 304      -2.861  -6.036  53.825  0.00  0.00    -0.210 NA
ATOM      6  O4S SGN d 304       4.767  -3.882  55.631  0.00  0.00    -0.572 OA
ATOM      7  O1S SGN d 304      -4.315  -6.733  55.890  0.00  0.00    -0.296 OA
ATOM      8  O3S SGN d 304      -4.199  -4.444  55.484  0.00  0.00    -0.296 OA
ATOM      9  O1  SGN d 304      -0.870  -7.940  53.685  0.00  0.00    -0.369 OA
ATOM     10  O6  SGN d 304       3.075  -5.707  55.018  0.00  0.00    -0.254 OA
ATOM     11  O4  SGN d 304       1.011  -3.739  52.129  0.00  0.00    -0.348 OA
ATOM     12  O5  SGN d 304       0.720  -6.443  54.680  0.00  0.00    -0.350 OA
ATOM     13  C3  SGN d 304      -0.947  -4.803  53.067  0.00  0.00     0.083 C 
ATOM     14  C6  SGN d 304       2.753  -5.657  53.633  0.00  0.00     0.067 C 
ATOM     15  O3  SGN d 304      -1.691  -3.631  52.924  0.00  0.00    -0.391 OA
ATOM     16  O2S SGN d 304      -5.478  -5.806  54.081  0.00  0.00    -0.296 OA
ATOM     17  C1  SGN d 304      -0.660  -6.819  54.554  0.00  0.00     0.147 C 
ATOM     18  S1  SGN d 304      -4.282  -5.738  54.867  0.00  0.00     0.156 S 
ATOM     19  O6S SGN d 304       2.518  -3.149  55.338  0.00  0.00    -0.572 OA
ATOM     20  S2  SGN d 304       3.378  -4.183  55.862  0.00  0.00     0.251 S 
ATOM     21  H   SGN d 304       0.675  -3.797  54.151  0.00  0.00     0.091 H 
ATOM     22  H   SGN d 304      -1.570  -4.977  55.106  0.00  0.00     0.076 H 
ATOM     23  H   SGN d 304       1.070  -6.347  52.630  0.00  0.00     0.090 H 
ATOM     24  H   SGN d 304      -2.804  -7.045  53.694  0.00  0.00     0.140 HD
ATOM     25  H   SGN d 304      -3.502  -6.681  56.418  0.00  0.00     0.231 HD
ATOM     26  H   SGN d 304      -3.391  -4.391  56.018  0.00  0.00     0.231 HD
ATOM     27  H   SGN d 304      -1.817  -8.143  53.642  0.00  0.00     0.212 HD
ATOM     28  H   SGN d 304      -0.992  -5.408  52.186  0.00  0.00     0.089 H 
ATOM     29  H   SGN d 304       3.082  -4.729  53.214  0.00  0.00     0.080 H 
ATOM     30  H   SGN d 304       3.237  -6.451  53.103  0.00  0.00     0.080 H 
ATOM     31  H   SGN d 304      -1.630  -3.106  53.738  0.00  0.00     0.210 HD
ATOM     32  H   SGN d 304      -5.540  -6.678  53.661  0.00  0.00     0.231 HD
ATOM     33  H   SGN d 304      -0.987  -7.181  55.506  0.00  0.00     0.131 H 
ATOM     34  C4  SGN d 302       4.231   3.337  53.182  0.00  0.00     0.095 C 
ATOM     35  C5  SGN d 302       2.843   2.813  53.525  0.00  0.00     0.091 C 
ATOM     36  C2  SGN d 302       4.102   2.264  51.016  0.00  0.00     0.081 C 
ATOM     37  O1  SGN d 302       2.536   0.566  51.766  0.00  0.00    -0.348 OA
ATOM     38  C3  SGN d 302       4.927   2.376  52.257  0.00  0.00     0.083 C 
ATOM     39  O1S SGN d 302       5.427   0.449  47.886  0.00  0.00    -0.296 OA
ATOM     40  S1  SGN d 302       4.567   1.431  48.523  0.00  0.00     0.156 S 
ATOM     41  O4S SGN d 302       0.816   7.209  52.988  0.00  0.00    -0.572 OA
ATOM     42  O3S SGN d 302       3.171   1.324  48.161  0.00  0.00    -0.296 OA
ATOM     43  C6  SGN d 302       2.095   3.804  54.375  0.00  0.00     0.067 C 
ATOM     44  O6S SGN d 302      -0.219   5.718  54.460  0.00  0.00    -0.572 OA
ATOM     45  O5S SGN d 302       1.667   7.031  55.148  0.00  0.00    -0.572 OA
ATOM     46  O2S SGN d 302       5.110   2.718  48.249  0.00  0.00    -0.296 OA
ATOM     47  O6  SGN d 302       2.079   4.993  53.594  0.00  0.00    -0.254 OA
ATOM     48  O4  SGN d 302       5.020   3.353  54.351  0.00  0.00    -0.348 OA
ATOM     49  O3  SGN d 302       6.197   2.914  51.965  0.00  0.00    -0.391 OA
ATOM     50  N   SGN d 302       4.611   1.161  50.259  0.00  0.00    -0.210 NA
ATOM     51  S2  SGN d 302       1.034   6.314  54.074  0.00  0.00     0.251 S 
ATOM     52  C1  SGN d 302       2.676   1.901  51.356  0.00  0.00     0.150 C 
ATOM     53  O5  SGN d 302       2.142   2.778  52.321  0.00  0.00    -0.349 OA
ATOM     54  H   SGN d 302       4.120   4.307  52.744  0.00  0.00     0.091 H 
ATOM     55  H   SGN d 302       2.929   1.873  54.028  0.00  0.00     0.090 H 
ATOM     56  H   SGN d 302       4.137   3.196  50.492  0.00  0.00     0.076 H 
ATOM     57  H   SGN d 302       5.044   1.405  52.691  0.00  0.00     0.089 H 
ATOM     58  H   SGN d 302       6.342   0.584  48.176  0.00  0.00     0.231 HD
ATOM     59  H   SGN d 302       2.851   0.431  48.367  0.00  0.00     0.231 HD
ATOM     60  H   SGN d 302       2.601   3.967  55.303  0.00  0.00     0.080 H 
ATOM     61  H   SGN d 302       1.111   3.467  54.627  0.00  0.00     0.080 H 
ATOM     62  H   SGN d 302       6.045   2.736  48.509  0.00  0.00     0.231 HD
ATOM     63  H   SGN d 302       6.092   3.794  51.572  0.00  0.00     0.210 HD
ATOM     64  H   SGN d 302       4.052   0.336  50.473  0.00  0.00     0.140 HD
ATOM     65  H   SGN d 302       2.116   2.007  50.451  0.00  0.00     0.131 H 
ATOM     66  O61 IDS d 303      -0.452   1.320  52.905  0.00  0.00    -0.646 OA
ATOM     67  O5  IDS d 303       1.569  -1.580  53.088  0.00  0.00    -0.340 OA
ATOM     68  S   IDS d 303       5.158  -2.623  50.811  0.00  0.00     0.252 S 
ATOM     69  C1  IDS d 303       1.994  -2.701  52.301  0.00  0.00     0.161 C 
ATOM     70  C5  IDS d 303       0.642  -0.703  52.423  0.00  0.00     0.152 C 
ATOM     71  C6  IDS d 303       0.232   0.393  53.372  0.00  0.00     0.206 C 
ATOM     72  O3  IDS d 303       0.594  -1.721  49.686  0.00  0.00    -0.390 OA
ATOM     73  O2S IDS d 303       5.145  -2.883  49.390  0.00  0.00    -0.572 OA
ATOM     74  O62 IDS d 303       0.763   0.420  54.494  0.00  0.00    -0.646 OA
ATOM     75  O1S IDS d 303       6.359  -1.940  51.193  0.00  0.00    -0.572 OA
ATOM     76  O2  IDS d 303       3.836  -1.615  51.238  0.00  0.00    -0.244 OA
ATOM     77  C4  IDS d 303       1.352  -0.059  51.248  0.00  0.00     0.103 C 
ATOM     78  C2  IDS d 303       2.594  -2.174  50.991  0.00  0.00     0.134 C 
ATOM     79  C3  IDS d 303       1.736  -1.143  50.254  0.00  0.00     0.094 C 
ATOM     80  O3S IDS d 303       5.011  -3.880  51.423  0.00  0.00    -0.572 OA
ATOM     81  H   IDS d 303       2.752  -3.222  52.849  0.00  0.00     0.133 H 
ATOM     82  H   IDS d 303      -0.216  -1.255  52.101  0.00  0.00     0.104 H 
ATOM     83  H   IDS d 303       0.078  -1.038  49.230  0.00  0.00     0.210 HD
ATOM     84  H   IDS d 303       0.731   0.660  50.756  0.00  0.00     0.092 H 
ATOM     85  H   IDS d 303       2.657  -3.028  50.350  0.00  0.00     0.097 H 
ATOM     86  H   IDS d 303       2.298  -0.729  49.444  0.00  0.00     0.091 H 
ATOM     87  O1S UAP d 301       4.259   5.664  58.645  0.00  0.00    -0.572 OA
ATOM     88  O61 UAP d 301       9.712   4.876  53.791  0.00  0.00    -0.642 OA
ATOM     89  C1  UAP d 301       5.302   4.612  54.924  0.00  0.00     0.167 C 
ATOM     90  O62 UAP d 301       8.326   6.217  52.801  0.00  0.00    -0.642 OA
ATOM     91  O3S UAP d 301       6.244   4.692  59.309  0.00  0.00    -0.572 OA
ATOM     92  C6  UAP d 301       8.574   5.315  53.606  0.00  0.00     0.233 C 
ATOM     93  O3  UAP d 301       6.847   2.095  56.022  0.00  0.00    -0.389 OA
ATOM     94  C3  UAP d 301       7.071   3.459  56.269  0.00  0.00     0.086 C 
ATOM     95  S   UAP d 301       5.674   5.759  58.534  0.00  0.00     0.252 S 
ATOM     96  O2  UAP d 301       6.091   5.533  56.864  0.00  0.00    -0.244 OA
ATOM     97  C5  UAP d 301       7.608   4.831  54.361  0.00  0.00     0.147 C 
ATOM     98  O2S UAP d 301       6.149   7.064  58.929  0.00  0.00    -0.572 OA
ATOM     99  C2  UAP d 301       5.783   4.286  56.307  0.00  0.00     0.135 C 
ATOM    100  C4  UAP d 301       7.979   3.950  55.281  0.00  0.00    -0.034 C 
ATOM    101  O5  UAP d 301       6.347   5.313  54.242  0.00  0.00    -0.311 OA
ATOM    102  H   UAP d 301       4.437   5.241  54.885  0.00  0.00     0.134 H 
ATOM    103  H   UAP d 301       6.231   1.744  56.685  0.00  0.00     0.210 HD
ATOM    104  H   UAP d 301       7.496   3.561  57.245  0.00  0.00     0.093 H 
ATOM    105  H   UAP d 301       5.051   3.725  56.850  0.00  0.00     0.097 H 
ATOM    106  H   UAP d 301       8.953   3.609  55.282  0.00  0.00     0.085 H 
ENDROOT
TORSDOF 33
ENDMDL
MODEL 25
REMARK VINA RESULT:      -6.5      3.722     10.975
REMARK  0 active torsions:
REMARK  status: ('A' for Active; 'I' for Inactive)
REMARK       I    between atoms: C4_1  and  O4_32 
REMARK       I    between atoms: C2_2  and  N_17 
REMARK       I    between atoms: C4_3  and  O4_45 
REMARK       I    between atoms: C5_5  and  C6_20 
REMARK       I    between atoms: C5_7  and  C6_42 
REMARK       I    between atoms: C2_8  and  N_48 
REMARK       I    between atoms: O1_9  and  C1_58 
REMARK       I    between atoms: O1_9  and  C4_62 
REMARK       I    between atoms: C3_11  and  O3_46 
REMARK       I    between atoms: O1S_13  and  S1_14 
REMARK       I    between atoms: S1_14  and  N_48 
REMARK       I    between atoms: S1_14  and  O2S_39 
REMARK       I    between atoms: S1_14  and  O3S_16 
REMARK       I    between atoms: N_17  and  S1_64 
REMARK       I    between atoms: C1_18  and  O4_45 
REMARK       I    between atoms: C6_20  and  O6_41 
REMARK       I    between atoms: O1S_22  and  S1_64 
REMARK       I    between atoms: O3S_25  and  S1_64 
REMARK       I    between atoms: O1_26  and  C1_61 
REMARK       I    between atoms: S_27  and  O2_57 
REMARK       I    between atoms: O6_29  and  C6_42 
REMARK       I    between atoms: O6_29  and  S2_68 
REMARK       I    between atoms: C6_30  and  C5_54 
REMARK       I    between atoms: C1_31  and  O4_32 
REMARK       I    between atoms: C5_35  and  C6_36 
REMARK       I    between atoms: O3_37  and  C3_38 
REMARK       I    between atoms: C3_40  and  O3_44 
REMARK       I    between atoms: O6_41  and  S2_52 
REMARK       I    between atoms: S_43  and  O2_53 
REMARK       I    between atoms: O3_47  and  C3_69 
REMARK       I    between atoms: O2S_49  and  S1_64 
REMARK       I    between atoms: O2_53  and  C2_59 
REMARK       I    between atoms: O2_57  and  C2_65 
ROOT
ATOM      1  C4  SGN d 304       4.408   0.383  51.298  0.00  0.00     0.095 C 
ATOM      2  C2  SGN d 304       6.345   1.285  49.942  0.00  0.00     0.081 C 
ATOM      3  O5S SGN d 304       1.121   0.293  47.876  0.00  0.00    -0.572 OA
ATOM      4  C5  SGN d 304       4.539  -0.895  50.456  0.00  0.00     0.091 C 
ATOM      5  N   SGN d 304       7.741   1.691  50.087  0.00  0.00    -0.210 NA
ATOM      6  O4S SGN d 304       0.123  -1.091  49.513  0.00  0.00    -0.572 OA
ATOM      7  O1S SGN d 304       8.606   2.945  47.956  0.00  0.00    -0.296 OA
ATOM      8  O3S SGN d 304       7.356   4.240  49.432  0.00  0.00    -0.296 OA
ATOM      9  O1  SGN d 304       7.330  -0.909  49.262  0.00  0.00    -0.369 OA
ATOM     10  O6  SGN d 304       2.637  -1.452  49.166  0.00  0.00    -0.254 OA
ATOM     11  O4  SGN d 304       4.007   0.088  52.663  0.00  0.00    -0.348 OA
ATOM     12  O5  SGN d 304       4.961  -0.557  49.116  0.00  0.00    -0.350 OA
ATOM     13  C3  SGN d 304       5.815   0.993  51.338  0.00  0.00     0.083 C 
ATOM     14  C6  SGN d 304       3.286  -1.738  50.400  0.00  0.00     0.067 C 
ATOM     15  O3  SGN d 304       5.770   2.197  52.044  0.00  0.00    -0.391 OA
ATOM     16  O2S SGN d 304       9.537   3.622  49.996  0.00  0.00    -0.296 OA
ATOM     17  C1  SGN d 304       6.269   0.032  49.052  0.00  0.00     0.147 C 
ATOM     18  S1  SGN d 304       8.339   3.197  49.336  0.00  0.00     0.156 S 
ATOM     19  O6S SGN d 304       1.526   0.730  50.145  0.00  0.00    -0.572 OA
ATOM     20  S2  SGN d 304       1.286  -0.312  49.175  0.00  0.00     0.251 S 
ATOM     21  H   SGN d 304       3.670   1.032  50.875  0.00  0.00     0.091 H 
ATOM     22  H   SGN d 304       5.758   2.052  49.481  0.00  0.00     0.076 H 
ATOM     23  H   SGN d 304       5.274  -1.497  50.948  0.00  0.00     0.090 H 
ATOM     24  H   SGN d 304       8.306   0.932  49.707  0.00  0.00     0.140 HD
ATOM     25  H   SGN d 304       7.791   2.658  47.516  0.00  0.00     0.231 HD
ATOM     26  H   SGN d 304       6.541   3.958  48.987  0.00  0.00     0.231 HD
ATOM     27  H   SGN d 304       8.183  -0.452  49.207  0.00  0.00     0.212 HD
ATOM     28  H   SGN d 304       6.464   0.285  51.810  0.00  0.00     0.089 H 
ATOM     29  H   SGN d 304       2.641  -1.491  51.217  0.00  0.00     0.080 H 
ATOM     30  H   SGN d 304       3.526  -2.778  50.469  0.00  0.00     0.080 H 
ATOM     31  H   SGN d 304       5.175   2.816  51.591  0.00  0.00     0.210 HD
ATOM     32  H   SGN d 304      10.206   2.922  49.935  0.00  0.00     0.231 HD
ATOM     33  H   SGN d 304       6.428   0.363  48.047  0.00  0.00     0.131 H 
ATOM     34  C4  SGN d 302      -2.769   3.128  55.190  0.00  0.00     0.095 C 
ATOM     35  C5  SGN d 302      -1.517   3.801  54.645  0.00  0.00     0.091 C 
ATOM     36  C2  SGN d 302      -1.395   1.675  56.553  0.00  0.00     0.081 C 
ATOM     37  O1  SGN d 302       0.528   1.835  55.078  0.00  0.00    -0.348 OA
ATOM     38  C3  SGN d 302      -2.475   1.690  55.521  0.00  0.00     0.083 C 
ATOM     39  O1S SGN d 302      -0.418  -1.574  58.382  0.00  0.00    -0.296 OA
ATOM     40  S1  SGN d 302      -0.509  -0.126  58.314  0.00  0.00     0.156 S 
ATOM     41  O4S SGN d 302      -2.271   7.826  57.282  0.00  0.00    -0.572 OA
ATOM     42  O3S SGN d 302       0.733   0.563  58.587  0.00  0.00    -0.296 OA
ATOM     43  C6  SGN d 302      -1.765   5.264  54.396  0.00  0.00     0.067 C 
ATOM     44  O6S SGN d 302      -1.096   8.057  55.276  0.00  0.00    -0.572 OA
ATOM     45  O5S SGN d 302      -3.493   7.980  55.306  0.00  0.00    -0.572 OA
ATOM     46  O2S SGN d 302      -1.564   0.278  59.180  0.00  0.00    -0.296 OA
ATOM     47  O6  SGN d 302      -2.180   5.769  55.659  0.00  0.00    -0.254 OA
ATOM     48  O4  SGN d 302      -3.745   3.075  54.174  0.00  0.00    -0.348 OA
ATOM     49  O3  SGN d 302      -3.660   1.121  56.029  0.00  0.00    -0.391 OA
ATOM     50  N   SGN d 302      -0.930   0.326  56.669  0.00  0.00    -0.210 NA
ATOM     51  S2  SGN d 302      -2.271   7.502  55.895  0.00  0.00     0.251 S 
ATOM     52  C1  SGN d 302      -0.203   2.477  56.089  0.00  0.00     0.150 C 
ATOM     53  O5  SGN d 302      -0.587   3.771  55.682  0.00  0.00    -0.349 OA
ATOM     54  H   SGN d 302      -3.094   3.678  56.049  0.00  0.00     0.091 H 
ATOM     55  H   SGN d 302      -1.210   3.311  53.745  0.00  0.00     0.090 H 
ATOM     56  H   SGN d 302      -1.784   2.073  57.466  0.00  0.00     0.076 H 
ATOM     57  H   SGN d 302      -2.152   1.133  54.665  0.00  0.00     0.089 H 
ATOM     58  H   SGN d 302      -1.285  -1.962  58.188  0.00  0.00     0.231 HD
ATOM     59  H   SGN d 302       1.417   0.252  57.973  0.00  0.00     0.231 HD
ATOM     60  H   SGN d 302      -2.532   5.400  53.662  0.00  0.00     0.080 H 
ATOM     61  H   SGN d 302      -0.900   5.768  54.017  0.00  0.00     0.080 H 
ATOM     62  H   SGN d 302      -2.371  -0.212  58.955  0.00  0.00     0.231 HD
ATOM     63  H   SGN d 302      -3.953   1.625  56.804  0.00  0.00     0.210 HD
ATOM     64  H   SGN d 302      -0.103   0.217  56.082  0.00  0.00     0.140 HD
ATOM     65  H   SGN d 302       0.447   2.565  56.934  0.00  0.00     0.131 H 
ATOM     66  O61 IDS d 303       2.040   4.689  54.477  0.00  0.00    -0.646 OA
ATOM     67  O5  IDS d 303       2.068   1.530  52.882  0.00  0.00    -0.340 OA
ATOM     68  S   IDS d 303       0.610  -2.335  54.329  0.00  0.00     0.252 S 
ATOM     69  C1  IDS d 303       2.616   0.212  53.015  0.00  0.00     0.161 C 
ATOM     70  C5  IDS d 303       2.490   2.457  53.898  0.00  0.00     0.152 C 
ATOM     71  C6  IDS d 303       1.893   3.810  53.611  0.00  0.00     0.206 C 
ATOM     72  O3  IDS d 303       3.949   0.770  55.785  0.00  0.00    -0.390 OA
ATOM     73  O2S IDS d 303       1.208  -3.040  55.440  0.00  0.00    -0.572 OA
ATOM     74  O62 IDS d 303       1.123   3.912  52.642  0.00  0.00    -0.646 OA
ATOM     75  O1S IDS d 303      -0.814  -2.507  54.322  0.00  0.00    -0.572 OA
ATOM     76  O2  IDS d 303       0.923  -0.653  54.461  0.00  0.00    -0.244 OA
ATOM     77  C4  IDS d 303       1.947   1.983  55.232  0.00  0.00     0.103 C 
ATOM     78  C2  IDS d 303       2.267  -0.320  54.411  0.00  0.00     0.134 C 
ATOM     79  C3  IDS d 303       2.573   0.637  55.564  0.00  0.00     0.094 C 
ATOM     80  O3S IDS d 303       1.241  -2.845  53.181  0.00  0.00    -0.572 OA
ATOM     81  H   IDS d 303       2.159  -0.414  52.276  0.00  0.00     0.133 H 
ATOM     82  H   IDS d 303       3.558   2.518  53.914  0.00  0.00     0.104 H 
ATOM     83  H   IDS d 303       4.100   1.384  56.521  0.00  0.00     0.210 HD
ATOM     84  H   IDS d 303       2.172   2.674  56.018  0.00  0.00     0.092 H 
ATOM     85  H   IDS d 303       2.898  -1.173  54.551  0.00  0.00     0.097 H 
ATOM     86  H   IDS d 303       2.160   0.244  56.470  0.00  0.00     0.091 H 
ATOM     87  O1S UAP d 301      -5.795   6.733  51.569  0.00  0.00    -0.572 OA
ATOM     88  O61 UAP d 301      -8.024   0.862  55.374  0.00  0.00    -0.642 OA
ATOM     89  C1  UAP d 301      -4.847   3.950  54.289  0.00  0.00     0.167 C 
ATOM     90  O62 UAP d 301      -7.410   2.269  56.904  0.00  0.00    -0.642 OA
ATOM     91  O3S UAP d 301      -6.974   5.062  50.500  0.00  0.00    -0.572 OA
ATOM     92  C6  UAP d 301      -7.341   1.815  55.759  0.00  0.00     0.233 C 
ATOM     93  O3  UAP d 301      -4.955   1.699  52.087  0.00  0.00    -0.389 OA
ATOM     94  C3  UAP d 301      -5.971   2.556  52.539  0.00  0.00     0.086 C 
ATOM     95  S   UAP d 301      -6.897   5.845  51.703  0.00  0.00     0.252 S 
ATOM     96  O2  UAP d 301      -6.572   4.792  53.044  0.00  0.00    -0.244 OA
ATOM     97  C5  UAP d 301      -6.563   2.400  54.870  0.00  0.00     0.147 C 
ATOM     98  O2S UAP d 301      -8.118   6.558  51.994  0.00  0.00    -0.572 OA
ATOM     99  C2  UAP d 301      -5.461   3.949  52.921  0.00  0.00     0.135 C 
ATOM    100  C4  UAP d 301      -6.637   1.924  53.634  0.00  0.00    -0.034 C 
ATOM    101  O5  UAP d 301      -5.831   3.486  55.219  0.00  0.00    -0.311 OA
ATOM    102  H   UAP d 301      -4.527   4.909  54.638  0.00  0.00     0.134 H 
ATOM    103  H   UAP d 301      -4.491   2.112  51.342  0.00  0.00     0.210 HD
ATOM    104  H   UAP d 301      -6.656   2.721  51.735  0.00  0.00     0.093 H 
ATOM    105  H   UAP d 301      -4.753   4.252  52.178  0.00  0.00     0.097 H 
ATOM    106  H   UAP d 301      -7.192   1.072  53.459  0.00  0.00     0.085 H 
ENDROOT
TORSDOF 33
ENDMDL
MODEL 26
REMARK VINA RESULT:      -6.4      4.404      8.479
REMARK  0 active torsions:
REMARK  status: ('A' for Active; 'I' for Inactive)
REMARK       I    between atoms: C4_1  and  O4_32 
REMARK       I    between atoms: C2_2  and  N_17 
REMARK       I    between atoms: C4_3  and  O4_45 
REMARK       I    between atoms: C5_5  and  C6_20 
REMARK       I    between atoms: C5_7  and  C6_42 
REMARK       I    between atoms: C2_8  and  N_48 
REMARK       I    between atoms: O1_9  and  C1_58 
REMARK       I    between atoms: O1_9  and  C4_62 
REMARK       I    between atoms: C3_11  and  O3_46 
REMARK       I    between atoms: O1S_13  and  S1_14 
REMARK       I    between atoms: S1_14  and  N_48 
REMARK       I    between atoms: S1_14  and  O2S_39 
REMARK       I    between atoms: S1_14  and  O3S_16 
REMARK       I    between atoms: N_17  and  S1_64 
REMARK       I    between atoms: C1_18  and  O4_45 
REMARK       I    between atoms: C6_20  and  O6_41 
REMARK       I    between atoms: O1S_22  and  S1_64 
REMARK       I    between atoms: O3S_25  and  S1_64 
REMARK       I    between atoms: O1_26  and  C1_61 
REMARK       I    between atoms: S_27  and  O2_57 
REMARK       I    between atoms: O6_29  and  C6_42 
REMARK       I    between atoms: O6_29  and  S2_68 
REMARK       I    between atoms: C6_30  and  C5_54 
REMARK       I    between atoms: C1_31  and  O4_32 
REMARK       I    between atoms: C5_35  and  C6_36 
REMARK       I    between atoms: O3_37  and  C3_38 
REMARK       I    between atoms: C3_40  and  O3_44 
REMARK       I    between atoms: O6_41  and  S2_52 
REMARK       I    between atoms: S_43  and  O2_53 
REMARK       I    between atoms: O3_47  and  C3_69 
REMARK       I    between atoms: O2S_49  and  S1_64 
REMARK       I    between atoms: O2_53  and  C2_59 
REMARK       I    between atoms: O2_57  and  C2_65 
ROOT
ATOM      1  C4  SGN d 304       1.668   3.615  52.471  0.00  0.00     0.095 C 
ATOM      2  C2  SGN d 304       0.039   4.704  54.073  0.00  0.00     0.081 C 
ATOM      3  O5S SGN d 304      -0.153  -0.767  52.472  0.00  0.00    -0.572 OA
ATOM      4  C5  SGN d 304       0.489   3.519  51.490  0.00  0.00     0.091 C 
ATOM      5  N   SGN d 304      -0.223   5.982  54.730  0.00  0.00    -0.210 NA
ATOM      6  O4S SGN d 304       1.229  -0.840  50.554  0.00  0.00    -0.572 OA
ATOM      7  O1S SGN d 304      -2.030   5.744  56.612  0.00  0.00    -0.296 OA
ATOM      8  O3S SGN d 304       0.123   5.091  57.212  0.00  0.00    -0.296 OA
ATOM      9  O1  SGN d 304      -1.592   5.544  52.375  0.00  0.00    -0.369 OA
ATOM     10  O6  SGN d 304      -0.113   1.323  50.850  0.00  0.00    -0.254 OA
ATOM     11  O4  SGN d 304       2.924   3.853  51.779  0.00  0.00    -0.348 OA
ATOM     12  O5  SGN d 304      -0.739   3.306  52.221  0.00  0.00    -0.350 OA
ATOM     13  C3  SGN d 304       1.371   4.838  53.349  0.00  0.00     0.083 C 
ATOM     14  C6  SGN d 304       0.644   2.453  50.430  0.00  0.00     0.067 C 
ATOM     15  O3  SGN d 304       2.375   4.963  54.311  0.00  0.00    -0.391 OA
ATOM     16  O2S SGN d 304      -0.375   7.362  56.975  0.00  0.00    -0.296 OA
ATOM     17  C1  SGN d 304      -1.097   4.399  53.082  0.00  0.00     0.147 C 
ATOM     18  S1  SGN d 304      -0.643   6.050  56.465  0.00  0.00     0.156 S 
ATOM     19  O6S SGN d 304       1.824   0.496  52.437  0.00  0.00    -0.572 OA
ATOM     20  S2  SGN d 304       0.742  -0.014  51.628  0.00  0.00     0.251 S 
ATOM     21  H   SGN d 304       1.767   2.704  53.022  0.00  0.00     0.091 H 
ATOM     22  H   SGN d 304       0.085   3.901  54.778  0.00  0.00     0.076 H 
ATOM     23  H   SGN d 304       0.466   4.452  50.966  0.00  0.00     0.090 H 
ATOM     24  H   SGN d 304      -0.998   6.415  54.227  0.00  0.00     0.140 HD
ATOM     25  H   SGN d 304      -2.203   4.855  56.265  0.00  0.00     0.231 HD
ATOM     26  H   SGN d 304      -0.054   4.200  56.872  0.00  0.00     0.231 HD
ATOM     27  H   SGN d 304      -1.815   6.243  53.009  0.00  0.00     0.212 HD
ATOM     28  H   SGN d 304       1.329   5.696  52.710  0.00  0.00     0.089 H 
ATOM     29  H   SGN d 304       1.675   2.185  50.328  0.00  0.00     0.080 H 
ATOM     30  H   SGN d 304       0.298   2.809  49.482  0.00  0.00     0.080 H 
ATOM     31  H   SGN d 304       2.386   4.172  54.872  0.00  0.00     0.210 HD
ATOM     32  H   SGN d 304      -0.889   8.015  56.474  0.00  0.00     0.231 HD
ATOM     33  H   SGN d 304      -1.937   4.089  53.668  0.00  0.00     0.131 H 
ATOM     34  C4  SGN d 302       8.569  -1.537  52.562  0.00  0.00     0.095 C 
ATOM     35  C5  SGN d 302       7.835  -0.705  53.604  0.00  0.00     0.091 C 
ATOM     36  C2  SGN d 302       8.814   0.425  51.167  0.00  0.00     0.081 C 
ATOM     37  O1  SGN d 302       6.860   1.531  52.092  0.00  0.00    -0.348 OA
ATOM     38  C3  SGN d 302       8.311  -0.981  51.188  0.00  0.00     0.083 C 
ATOM     39  O1S SGN d 302       9.066   2.414  47.875  0.00  0.00    -0.296 OA
ATOM     40  S1  SGN d 302       9.483   2.149  49.241  0.00  0.00     0.156 S 
ATOM     41  O4S SGN d 302      11.659  -0.716  56.620  0.00  0.00    -0.572 OA
ATOM     42  O3S SGN d 302       9.476   3.312  50.102  0.00  0.00    -0.296 OA
ATOM     43  C6  SGN d 302       8.155  -1.188  54.993  0.00  0.00     0.067 C 
ATOM     44  O6S SGN d 302       9.536  -0.514  57.574  0.00  0.00    -0.572 OA
ATOM     45  O5S SGN d 302      10.423  -2.658  56.966  0.00  0.00    -0.572 OA
ATOM     46  O2S SGN d 302      10.755   1.513  49.185  0.00  0.00    -0.296 OA
ATOM     47  O6  SGN d 302       9.572  -1.090  55.080  0.00  0.00    -0.254 OA
ATOM     48  O4  SGN d 302       8.021  -2.836  52.538  0.00  0.00    -0.348 OA
ATOM     49  O3  SGN d 302       9.020  -1.780  50.268  0.00  0.00    -0.391 OA
ATOM     50  N   SGN d 302       8.332   1.036  49.966  0.00  0.00    -0.210 NA
ATOM     51  S2  SGN d 302      10.343  -1.259  56.643  0.00  0.00     0.251 S 
ATOM     52  C1  SGN d 302       8.214   1.223  52.299  0.00  0.00     0.150 C 
ATOM     53  O5  SGN d 302       8.393   0.569  53.535  0.00  0.00    -0.349 OA
ATOM     54  H   SGN d 302       9.611  -1.532  52.807  0.00  0.00     0.091 H 
ATOM     55  H   SGN d 302       6.782  -0.750  53.422  0.00  0.00     0.090 H 
ATOM     56  H   SGN d 302       9.882   0.412  51.241  0.00  0.00     0.076 H 
ATOM     57  H   SGN d 302       7.271  -0.987  50.935  0.00  0.00     0.089 H 
ATOM     58  H   SGN d 302       9.097   1.591  47.363  0.00  0.00     0.231 HD
ATOM     59  H   SGN d 302       8.589   3.706  50.104  0.00  0.00     0.231 HD
ATOM     60  H   SGN d 302       7.836  -2.200  55.126  0.00  0.00     0.080 H 
ATOM     61  H   SGN d 302       7.658  -0.617  55.750  0.00  0.00     0.080 H 
ATOM     62  H   SGN d 302      10.706   0.743  48.597  0.00  0.00     0.231 HD
ATOM     63  H   SGN d 302       9.963  -1.776  50.496  0.00  0.00     0.210 HD
ATOM     64  H   SGN d 302       7.478   1.551  50.184  0.00  0.00     0.140 HD
ATOM     65  H   SGN d 302       8.742   2.153  52.325  0.00  0.00     0.131 H 
ATOM     66  O61 IDS d 303       6.648   2.343  55.269  0.00  0.00    -0.646 OA
ATOM     67  O5  IDS d 303       4.271   2.039  52.664  0.00  0.00    -0.340 OA
ATOM     68  S   IDS d 303       4.896   1.736  48.343  0.00  0.00     0.252 S 
ATOM     69  C1  IDS d 303       3.782   2.730  51.506  0.00  0.00     0.161 C 
ATOM     70  C5  IDS d 303       5.291   2.745  53.394  0.00  0.00     0.152 C 
ATOM     71  C6  IDS d 303       5.673   1.944  54.610  0.00  0.00     0.206 C 
ATOM     72  O3  IDS d 303       5.894   5.027  51.672  0.00  0.00    -0.390 OA
ATOM     73  O2S IDS d 303       5.436   2.813  47.545  0.00  0.00    -0.572 OA
ATOM     74  O62 IDS d 303       5.138   0.834  54.767  0.00  0.00    -0.646 OA
ATOM     75  O1S IDS d 303       5.363   0.465  47.868  0.00  0.00    -0.572 OA
ATOM     76  O2  IDS d 303       5.412   1.894  49.972  0.00  0.00    -0.244 OA
ATOM     77  C4  IDS d 303       6.518   2.861  52.509  0.00  0.00     0.103 C 
ATOM     78  C2  IDS d 303       4.974   3.052  50.595  0.00  0.00     0.134 C 
ATOM     79  C3  IDS d 303       6.167   3.707  51.295  0.00  0.00     0.094 C 
ATOM     80  O3S IDS d 303       3.500   1.882  48.272  0.00  0.00    -0.572 OA
ATOM     81  H   IDS d 303       3.112   2.076  50.988  0.00  0.00     0.133 H 
ATOM     82  H   IDS d 303       4.931   3.710  53.682  0.00  0.00     0.104 H 
ATOM     83  H   IDS d 303       6.672   5.405  52.111  0.00  0.00     0.210 HD
ATOM     84  H   IDS d 303       7.336   3.317  53.025  0.00  0.00     0.092 H 
ATOM     85  H   IDS d 303       4.603   3.770  49.894  0.00  0.00     0.097 H 
ATOM     86  H   IDS d 303       6.993   3.752  50.617  0.00  0.00     0.091 H 
ATOM     87  O1S UAP d 301       7.609  -6.159  56.165  0.00  0.00    -0.572 OA
ATOM     88  O61 UAP d 301       9.974  -5.965  49.216  0.00  0.00    -0.642 OA
ATOM     89  C1  UAP d 301       8.795  -3.876  53.095  0.00  0.00     0.167 C 
ATOM     90  O62 UAP d 301      11.522  -4.924  50.320  0.00  0.00    -0.642 OA
ATOM     91  O3S UAP d 301       6.594  -7.492  54.578  0.00  0.00    -0.572 OA
ATOM     92  C6  UAP d 301      10.352  -5.290  50.177  0.00  0.00     0.233 C 
ATOM     93  O3  UAP d 301       6.214  -4.651  51.464  0.00  0.00    -0.389 OA
ATOM     94  C3  UAP d 301       7.248  -5.472  51.943  0.00  0.00     0.086 C 
ATOM     95  S   UAP d 301       7.861  -7.005  55.049  0.00  0.00     0.252 S 
ATOM     96  O2  UAP d 301       8.596  -6.041  53.807  0.00  0.00    -0.244 OA
ATOM     97  C5  UAP d 301       9.464  -5.019  51.113  0.00  0.00     0.147 C 
ATOM     98  O2S UAP d 301       8.784  -8.062  55.386  0.00  0.00    -0.572 OA
ATOM     99  C2  UAP d 301       7.820  -5.000  53.283  0.00  0.00     0.135 C 
ATOM    100  C4  UAP d 301       8.261  -5.550  50.939  0.00  0.00    -0.034 C 
ATOM    101  O5  UAP d 301       9.833  -4.329  52.218  0.00  0.00    -0.311 OA
ATOM    102  H   UAP d 301       9.277  -3.543  53.990  0.00  0.00     0.134 H 
ATOM    103  H   UAP d 301       5.515  -4.586  52.134  0.00  0.00     0.210 HD
ATOM    104  H   UAP d 301       6.845  -6.443  52.140  0.00  0.00     0.093 H 
ATOM    105  H   UAP d 301       7.000  -4.702  53.903  0.00  0.00     0.097 H 
ATOM    106  H   UAP d 301       8.051  -6.033  50.052  0.00  0.00     0.085 H 
ENDROOT
TORSDOF 33
ENDMDL
MODEL 27
REMARK VINA RESULT:      -6.3      3.728     10.077
REMARK  0 active torsions:
REMARK  status: ('A' for Active; 'I' for Inactive)
REMARK       I    between atoms: C4_1  and  O4_32 
REMARK       I    between atoms: C2_2  and  N_17 
REMARK       I    between atoms: C4_3  and  O4_45 
REMARK       I    between atoms: C5_5  and  C6_20 
REMARK       I    between atoms: C5_7  and  C6_42 
REMARK       I    between atoms: C2_8  and  N_48 
REMARK       I    between atoms: O1_9  and  C1_58 
REMARK       I    between atoms: O1_9  and  C4_62 
REMARK       I    between atoms: C3_11  and  O3_46 
REMARK       I    between atoms: O1S_13  and  S1_14 
REMARK       I    between atoms: S1_14  and  N_48 
REMARK       I    between atoms: S1_14  and  O2S_39 
REMARK       I    between atoms: S1_14  and  O3S_16 
REMARK       I    between atoms: N_17  and  S1_64 
REMARK       I    between atoms: C1_18  and  O4_45 
REMARK       I    between atoms: C6_20  and  O6_41 
REMARK       I    between atoms: O1S_22  and  S1_64 
REMARK       I    between atoms: O3S_25  and  S1_64 
REMARK       I    between atoms: O1_26  and  C1_61 
REMARK       I    between atoms: S_27  and  O2_57 
REMARK       I    between atoms: O6_29  and  C6_42 
REMARK       I    between atoms: O6_29  and  S2_68 
REMARK       I    between atoms: C6_30  and  C5_54 
REMARK       I    between atoms: C1_31  and  O4_32 
REMARK       I    between atoms: C5_35  and  C6_36 
REMARK       I    between atoms: O3_37  and  C3_38 
REMARK       I    between atoms: C3_40  and  O3_44 
REMARK       I    between atoms: O6_41  and  S2_52 
REMARK       I    between atoms: S_43  and  O2_53 
REMARK       I    between atoms: O3_47  and  C3_69 
REMARK       I    between atoms: O2S_49  and  S1_64 
REMARK       I    between atoms: O2_53  and  C2_59 
REMARK       I    between atoms: O2_57  and  C2_65 
ROOT
ATOM      1  C4  SGN d 304       6.792   3.604  50.576  0.00  0.00     0.095 C 
ATOM      2  C2  SGN d 304       8.962   4.300  49.475  0.00  0.00     0.081 C 
ATOM      3  O5S SGN d 304       8.402   2.993  54.999  0.00  0.00    -0.572 OA
ATOM      4  C5  SGN d 304       6.852   4.947  51.321  0.00  0.00     0.091 C 
ATOM      5  N   SGN d 304       9.507   4.659  48.168  0.00  0.00    -0.210 NA
ATOM      6  O4S SGN d 304       6.067   3.087  55.364  0.00  0.00    -0.572 OA
ATOM      7  O1S SGN d 304      12.125   4.748  48.208  0.00  0.00    -0.296 OA
ATOM      8  O3S SGN d 304      11.206   2.618  48.009  0.00  0.00    -0.296 OA
ATOM      9  O1  SGN d 304       8.702   6.771  49.750  0.00  0.00    -0.369 OA
ATOM     10  O6  SGN d 304       6.976   4.789  53.677  0.00  0.00    -0.254 OA
ATOM     11  O4  SGN d 304       5.424   3.222  50.269  0.00  0.00    -0.348 OA
ATOM     12  O5  SGN d 304       8.228   5.299  51.585  0.00  0.00    -0.350 OA
ATOM     13  C3  SGN d 304       7.529   3.838  49.251  0.00  0.00     0.083 C 
ATOM     14  C6  SGN d 304       6.059   4.985  52.606  0.00  0.00     0.067 C 
ATOM     15  O3  SGN d 304       7.569   2.641  48.534  0.00  0.00    -0.391 OA
ATOM     16  O2S SGN d 304      11.151   4.079  46.186  0.00  0.00    -0.296 OA
ATOM     17  C1  SGN d 304       9.005   5.529  50.399  0.00  0.00     0.147 C 
ATOM     18  S1  SGN d 304      11.069   3.992  47.614  0.00  0.00     0.156 S 
ATOM     19  O6S SGN d 304       6.950   2.173  53.348  0.00  0.00    -0.572 OA
ATOM     20  S2  SGN d 304       7.112   3.172  54.378  0.00  0.00     0.251 S 
ATOM     21  H   SGN d 304       7.221   2.829  51.176  0.00  0.00     0.091 H 
ATOM     22  H   SGN d 304       9.530   3.520  49.938  0.00  0.00     0.076 H 
ATOM     23  H   SGN d 304       6.393   5.663  50.672  0.00  0.00     0.090 H 
ATOM     24  H   SGN d 304       9.606   5.674  48.163  0.00  0.00     0.140 HD
ATOM     25  H   SGN d 304      12.064   4.685  49.174  0.00  0.00     0.231 HD
ATOM     26  H   SGN d 304      11.152   2.553  48.975  0.00  0.00     0.231 HD
ATOM     27  H   SGN d 304       9.257   6.867  48.961  0.00  0.00     0.212 HD
ATOM     28  H   SGN d 304       7.003   4.600  48.715  0.00  0.00     0.089 H 
ATOM     29  H   SGN d 304       5.325   4.206  52.607  0.00  0.00     0.080 H 
ATOM     30  H   SGN d 304       5.550   5.920  52.710  0.00  0.00     0.080 H 
ATOM     31  H   SGN d 304       8.052   1.972  49.046  0.00  0.00     0.210 HD
ATOM     32  H   SGN d 304      11.059   5.005  45.912  0.00  0.00     0.231 HD
ATOM     33  H   SGN d 304      10.026   5.649  50.698  0.00  0.00     0.131 H 
ATOM     34  C4  SGN d 302       2.764  -3.495  53.325  0.00  0.00     0.095 C 
ATOM     35  C5  SGN d 302       3.949  -3.217  52.410  0.00  0.00     0.091 C 
ATOM     36  C2  SGN d 302       1.384  -2.027  51.984  0.00  0.00     0.081 C 
ATOM     37  O1  SGN d 302       3.264  -0.711  51.191  0.00  0.00    -0.348 OA
ATOM     38  C3  SGN d 302       1.862  -2.292  53.375  0.00  0.00     0.083 C 
ATOM     39  O1S SGN d 302      -1.414   0.528  51.281  0.00  0.00    -0.296 OA
ATOM     40  S1  SGN d 302      -0.650  -0.656  50.930  0.00  0.00     0.156 S 
ATOM     41  O4S SGN d 302       3.661  -7.618  50.344  0.00  0.00    -0.572 OA
ATOM     42  O3S SGN d 302      -0.112  -0.641  49.587  0.00  0.00    -0.296 OA
ATOM     43  C6  SGN d 302       4.815  -4.441  52.273  0.00  0.00     0.067 C 
ATOM     44  O6S SGN d 302       5.758  -6.589  50.398  0.00  0.00    -0.572 OA
ATOM     45  O5S SGN d 302       4.916  -7.785  52.298  0.00  0.00    -0.572 OA
ATOM     46  O2S SGN d 302      -1.475  -1.788  51.180  0.00  0.00    -0.296 OA
ATOM     47  O6  SGN d 302       3.932  -5.440  51.777  0.00  0.00    -0.254 OA
ATOM     48  O4  SGN d 302       3.229  -3.656  54.646  0.00  0.00    -0.348 OA
ATOM     49  O3  SGN d 302       0.781  -2.608  54.223  0.00  0.00    -0.391 OA
ATOM     50  N   SGN d 302       0.754  -0.742  51.984  0.00  0.00    -0.210 NA
ATOM     51  S2  SGN d 302       4.600  -6.944  51.175  0.00  0.00     0.251 S 
ATOM     52  C1  SGN d 302       2.551  -1.909  51.033  0.00  0.00     0.150 C 
ATOM     53  O5  SGN d 302       3.411  -3.020  51.141  0.00  0.00    -0.349 OA
ATOM     54  H   SGN d 302       2.257  -4.362  52.956  0.00  0.00     0.091 H 
ATOM     55  H   SGN d 302       4.515  -2.396  52.796  0.00  0.00     0.090 H 
ATOM     56  H   SGN d 302       0.734  -2.823  51.685  0.00  0.00     0.076 H 
ATOM     57  H   SGN d 302       2.363  -1.422  53.747  0.00  0.00     0.089 H 
ATOM     58  H   SGN d 302      -1.740   0.445  52.190  0.00  0.00     0.231 HD
ATOM     59  H   SGN d 302       0.441   0.147  49.469  0.00  0.00     0.231 HD
ATOM     60  H   SGN d 302       5.218  -4.728  53.222  0.00  0.00     0.080 H 
ATOM     61  H   SGN d 302       5.654  -4.279  51.630  0.00  0.00     0.080 H 
ATOM     62  H   SGN d 302      -1.809  -1.750  52.090  0.00  0.00     0.231 HD
ATOM     63  H   SGN d 302       0.327  -3.396  53.888  0.00  0.00     0.210 HD
ATOM     64  H   SGN d 302       1.434  -0.048  51.674  0.00  0.00     0.140 HD
ATOM     65  H   SGN d 302       2.134  -1.894  50.048  0.00  0.00     0.131 H 
ATOM     66  O61 IDS d 303       5.693  -2.024  49.409  0.00  0.00    -0.646 OA
ATOM     67  O5  IDS d 303       5.357   0.994  51.228  0.00  0.00    -0.340 OA
ATOM     68  S   IDS d 303       1.757   2.889  52.842  0.00  0.00     0.252 S 
ATOM     69  C1  IDS d 303       4.756   2.293  51.142  0.00  0.00     0.161 C 
ATOM     70  C5  IDS d 303       5.159   0.168  50.066  0.00  0.00     0.152 C 
ATOM     71  C6  IDS d 303       5.885  -1.138  50.259  0.00  0.00     0.206 C 
ATOM     72  O3  IDS d 303       3.270   1.709  48.456  0.00  0.00    -0.390 OA
ATOM     73  O2S IDS d 303       0.707   3.429  52.009  0.00  0.00    -0.572 OA
ATOM     74  O62 IDS d 303       6.458  -1.330  51.344  0.00  0.00    -0.646 OA
ATOM     75  O1S IDS d 303       1.212   2.287  54.024  0.00  0.00    -0.572 OA
ATOM     76  O2  IDS d 303       2.613   1.668  51.992  0.00  0.00    -0.244 OA
ATOM     77  C4  IDS d 303       3.679  -0.137  49.943  0.00  0.00     0.103 C 
ATOM     78  C2  IDS d 303       3.260   2.117  50.853  0.00  0.00     0.134 C 
ATOM     79  C3  IDS d 303       2.930   1.164  49.701  0.00  0.00     0.094 C 
ATOM     80  O3S IDS d 303       2.616   3.970  53.109  0.00  0.00    -0.572 OA
ATOM     81  H   IDS d 303       4.875   2.777  52.090  0.00  0.00     0.133 H 
ATOM     82  H   IDS d 303       5.524   0.671  49.195  0.00  0.00     0.104 H 
ATOM     83  H   IDS d 303       3.047   1.077  47.756  0.00  0.00     0.210 HD
ATOM     84  H   IDS d 303       3.479  -0.808  49.134  0.00  0.00     0.092 H 
ATOM     85  H   IDS d 303       2.918   3.085  50.551  0.00  0.00     0.097 H 
ATOM     86  H   IDS d 303       1.875   0.992  49.676  0.00  0.00     0.091 H 
ATOM     87  O1S UAP d 301       6.504  -6.865  56.475  0.00  0.00    -0.572 OA
ATOM     88  O61 UAP d 301      -0.248  -4.476  58.094  0.00  0.00    -0.642 OA
ATOM     89  C1  UAP d 301       3.226  -4.964  55.179  0.00  0.00     0.167 C 
ATOM     90  O62 UAP d 301      -0.547  -5.740  56.359  0.00  0.00    -0.642 OA
ATOM     91  O3S UAP d 301       6.119  -5.823  58.497  0.00  0.00    -0.572 OA
ATOM     92  C6  UAP d 301       0.155  -4.998  57.052  0.00  0.00     0.233 C 
ATOM     93  O3  UAP d 301       3.793  -2.560  57.135  0.00  0.00    -0.389 OA
ATOM     94  C3  UAP d 301       3.541  -3.910  57.428  0.00  0.00     0.086 C 
ATOM     95  S   UAP d 301       5.586  -6.769  57.557  0.00  0.00     0.252 S 
ATOM     96  O2  UAP d 301       4.086  -6.161  56.928  0.00  0.00    -0.244 OA
ATOM     97  C5  UAP d 301       1.414  -4.794  56.719  0.00  0.00     0.147 C 
ATOM     98  O2S UAP d 301       5.322  -8.062  58.142  0.00  0.00    -0.572 OA
ATOM     99  C2  UAP d 301       4.115  -4.872  56.384  0.00  0.00     0.135 C 
ATOM    100  C4  UAP d 301       2.130  -4.080  57.578  0.00  0.00    -0.034 C 
ATOM    101  O5  UAP d 301       1.929  -5.385  55.614  0.00  0.00    -0.311 OA
ATOM    102  H   UAP d 301       3.542  -5.668  54.439  0.00  0.00     0.134 H 
ATOM    103  H   UAP d 301       4.748  -2.425  57.030  0.00  0.00     0.210 HD
ATOM    104  H   UAP d 301       4.043  -4.158  58.339  0.00  0.00     0.093 H 
ATOM    105  H   UAP d 301       5.091  -4.522  56.119  0.00  0.00     0.097 H 
ATOM    106  H   UAP d 301       1.654  -3.636  58.378  0.00  0.00     0.085 H 
ENDROOT
TORSDOF 33
ENDMDL
MODEL 28
REMARK VINA RESULT:      -6.3      3.132      6.879
REMARK  0 active torsions:
REMARK  status: ('A' for Active; 'I' for Inactive)
REMARK       I    between atoms: C4_1  and  O4_32 
REMARK       I    between atoms: C2_2  and  N_17 
REMARK       I    between atoms: C4_3  and  O4_45 
REMARK       I    between atoms: C5_5  and  C6_20 
REMARK       I    between atoms: C5_7  and  C6_42 
REMARK       I    between atoms: C2_8  and  N_48 
REMARK       I    between atoms: O1_9  and  C1_58 
REMARK       I    between atoms: O1_9  and  C4_62 
REMARK       I    between atoms: C3_11  and  O3_46 
REMARK       I    between atoms: O1S_13  and  S1_14 
REMARK       I    between atoms: S1_14  and  N_48 
REMARK       I    between atoms: S1_14  and  O2S_39 
REMARK       I    between atoms: S1_14  and  O3S_16 
REMARK       I    between atoms: N_17  and  S1_64 
REMARK       I    between atoms: C1_18  and  O4_45 
REMARK       I    between atoms: C6_20  and  O6_41 
REMARK       I    between atoms: O1S_22  and  S1_64 
REMARK       I    between atoms: O3S_25  and  S1_64 
REMARK       I    between atoms: O1_26  and  C1_61 
REMARK       I    between atoms: S_27  and  O2_57 
REMARK       I    between atoms: O6_29  and  C6_42 
REMARK       I    between atoms: O6_29  and  S2_68 
REMARK       I    between atoms: C6_30  and  C5_54 
REMARK       I    between atoms: C1_31  and  O4_32 
REMARK       I    between atoms: C5_35  and  C6_36 
REMARK       I    between atoms: O3_37  and  C3_38 
REMARK       I    between atoms: C3_40  and  O3_44 
REMARK       I    between atoms: O6_41  and  S2_52 
REMARK       I    between atoms: S_43  and  O2_53 
REMARK       I    between atoms: O3_47  and  C3_69 
REMARK       I    between atoms: O2S_49  and  S1_64 
REMARK       I    between atoms: O2_53  and  C2_59 
REMARK       I    between atoms: O2_57  and  C2_65 
ROOT
ATOM      1  C4  SGN d 304      -1.528  -0.995  54.049  0.00  0.00     0.095 C 
ATOM      2  C2  SGN d 304      -3.062  -1.213  56.051  0.00  0.00     0.081 C 
ATOM      3  O5S SGN d 304      -0.393  -5.572  53.518  0.00  0.00    -0.572 OA
ATOM      4  C5  SGN d 304      -2.617  -1.734  53.256  0.00  0.00     0.091 C 
ATOM      5  N   SGN d 304      -3.859  -0.398  56.964  0.00  0.00    -0.210 NA
ATOM      6  O4S SGN d 304       0.283  -4.682  51.433  0.00  0.00    -0.572 OA
ATOM      7  O1S SGN d 304      -4.692  -1.791  59.020  0.00  0.00    -0.296 OA
ATOM      8  O3S SGN d 304      -2.496  -1.031  59.159  0.00  0.00    -0.296 OA
ATOM      9  O1  SGN d 304      -5.215  -1.447  54.802  0.00  0.00    -0.369 OA
ATOM     10  O6  SGN d 304      -1.955  -3.802  52.321  0.00  0.00    -0.254 OA
ATOM     11  O4  SGN d 304      -0.848  -0.004  53.232  0.00  0.00    -0.348 OA
ATOM     12  O5  SGN d 304      -3.281  -2.690  54.112  0.00  0.00    -0.350 OA
ATOM     13  C3  SGN d 304      -2.270  -0.257  55.172  0.00  0.00     0.083 C 
ATOM     14  C6  SGN d 304      -2.121  -2.424  52.007  0.00  0.00     0.067 C 
ATOM     15  O3  SGN d 304      -1.338   0.400  55.978  0.00  0.00    -0.391 OA
ATOM     16  O2S SGN d 304      -4.262   0.476  59.422  0.00  0.00    -0.296 OA
ATOM     17  C1  SGN d 304      -3.998  -2.092  55.203  0.00  0.00     0.147 C 
ATOM     18  S1  SGN d 304      -3.824  -0.697  58.725  0.00  0.00     0.156 S 
ATOM     19  O6S SGN d 304       0.403  -3.367  53.419  0.00  0.00    -0.572 OA
ATOM     20  S2  SGN d 304      -0.330  -4.384  52.702  0.00  0.00     0.251 S 
ATOM     21  H   SGN d 304      -0.793  -1.687  54.402  0.00  0.00     0.091 H 
ATOM     22  H   SGN d 304      -2.395  -1.861  56.581  0.00  0.00     0.076 H 
ATOM     23  H   SGN d 304      -3.300  -0.981  52.923  0.00  0.00     0.090 H 
ATOM     24  H   SGN d 304      -4.831  -0.499  56.671  0.00  0.00     0.140 HD
ATOM     25  H   SGN d 304      -4.390  -2.581  58.546  0.00  0.00     0.231 HD
ATOM     26  H   SGN d 304      -2.193  -1.825  58.691  0.00  0.00     0.231 HD
ATOM     27  H   SGN d 304      -5.649  -1.065  55.580  0.00  0.00     0.212 HD
ATOM     28  H   SGN d 304      -2.949   0.433  54.715  0.00  0.00     0.089 H 
ATOM     29  H   SGN d 304      -1.185  -2.003  51.703  0.00  0.00     0.080 H 
ATOM     30  H   SGN d 304      -2.817  -2.300  51.204  0.00  0.00     0.080 H 
ATOM     31  H   SGN d 304      -0.738  -0.251  56.376  0.00  0.00     0.210 HD
ATOM     32  H   SGN d 304      -5.159   0.708  59.133  0.00  0.00     0.231 HD
ATOM     33  H   SGN d 304      -4.336  -2.881  55.842  0.00  0.00     0.131 H 
ATOM     34  C4  SGN d 302       6.872  -0.878  52.150  0.00  0.00     0.095 C 
ATOM     35  C5  SGN d 302       6.056  -0.725  53.426  0.00  0.00     0.091 C 
ATOM     36  C2  SGN d 302       5.597   0.902  51.120  0.00  0.00     0.081 C 
ATOM     37  O1  SGN d 302       3.644   0.536  52.516  0.00  0.00    -0.348 OA
ATOM     38  C3  SGN d 302       6.029  -0.519  50.957  0.00  0.00     0.083 C 
ATOM     39  O1S SGN d 302       3.873   2.812  48.250  0.00  0.00    -0.296 OA
ATOM     40  S1  SGN d 302       4.668   2.781  49.466  0.00  0.00     0.156 S 
ATOM     41  O4S SGN d 302       9.739   1.426  55.778  0.00  0.00    -0.572 OA
ATOM     42  O3S SGN d 302       4.184   3.648  50.517  0.00  0.00    -0.296 OA
ATOM     43  C6  SGN d 302       6.908  -0.989  54.638  0.00  0.00     0.067 C 
ATOM     44  O6S SGN d 302       8.187   0.241  57.062  0.00  0.00    -0.572 OA
ATOM     45  O5S SGN d 302       9.987  -0.883  55.943  0.00  0.00    -0.572 OA
ATOM     46  O2S SGN d 302       6.017   3.055  49.103  0.00  0.00    -0.296 OA
ATOM     47  O6  SGN d 302       7.975  -0.055  54.527  0.00  0.00    -0.254 OA
ATOM     48  O4  SGN d 302       7.196  -2.239  51.971  0.00  0.00    -0.348 OA
ATOM     49  O3  SGN d 302       6.834  -0.668  49.809  0.00  0.00    -0.391 OA
ATOM     50  N   SGN d 302       4.587   1.159  50.138  0.00  0.00    -0.210 NA
ATOM     51  S2  SGN d 302       9.035   0.194  55.899  0.00  0.00     0.251 S 
ATOM     52  C1  SGN d 302       4.926   1.105  52.457  0.00  0.00     0.150 C 
ATOM     53  O5  SGN d 302       5.732   0.628  53.510  0.00  0.00    -0.349 OA
ATOM     54  H   SGN d 302       7.737  -0.254  52.233  0.00  0.00     0.091 H 
ATOM     55  H   SGN d 302       5.219  -1.391  53.400  0.00  0.00     0.090 H 
ATOM     56  H   SGN d 302       6.453   1.536  51.029  0.00  0.00     0.076 H 
ATOM     57  H   SGN d 302       5.164  -1.142  50.867  0.00  0.00     0.089 H 
ATOM     58  H   SGN d 302       4.258   2.208  47.597  0.00  0.00     0.231 HD
ATOM     59  H   SGN d 302       3.264   3.421  50.725  0.00  0.00     0.231 HD
ATOM     60  H   SGN d 302       7.279  -1.992  54.629  0.00  0.00     0.080 H 
ATOM     61  H   SGN d 302       6.363  -0.882  55.553  0.00  0.00     0.080 H 
ATOM     62  H   SGN d 302       6.291   2.448  48.397  0.00  0.00     0.231 HD
ATOM     63  H   SGN d 302       7.619  -0.104  49.890  0.00  0.00     0.210 HD
ATOM     64  H   SGN d 302       3.673   1.034  50.573  0.00  0.00     0.140 HD
ATOM     65  H   SGN d 302       4.801   2.161  52.573  0.00  0.00     0.131 H 
ATOM     66  O61 IDS d 303       3.740   0.873  55.783  0.00  0.00    -0.646 OA
ATOM     67  O5  IDS d 303       1.463  -0.669  53.555  0.00  0.00    -0.340 OA
ATOM     68  S   IDS d 303       1.127  -0.288  49.208  0.00  0.00     0.252 S 
ATOM     69  C1  IDS d 303       0.412  -0.355  52.631  0.00  0.00     0.161 C 
ATOM     70  C5  IDS d 303       2.015   0.470  54.240  0.00  0.00     0.152 C 
ATOM     71  C6  IDS d 303       3.061   0.000  55.216  0.00  0.00     0.206 C 
ATOM     72  O3  IDS d 303       0.756   2.739  52.897  0.00  0.00    -0.390 OA
ATOM     73  O2S IDS d 303       0.736   0.937  48.549  0.00  0.00    -0.572 OA
ATOM     74  O62 IDS d 303       3.326  -1.212  55.245  0.00  0.00    -0.646 OA
ATOM     75  O1S IDS d 303       2.121  -0.983  48.442  0.00  0.00    -0.572 OA
ATOM     76  O2  IDS d 303       1.813   0.060  50.742  0.00  0.00    -0.244 OA
ATOM     77  C4  IDS d 303       2.698   1.357  53.217  0.00  0.00     0.103 C 
ATOM     78  C2  IDS d 303       0.942   0.676  51.626  0.00  0.00     0.134 C 
ATOM     79  C3  IDS d 303       1.652   1.881  52.247  0.00  0.00     0.094 C 
ATOM     80  O3S IDS d 303      -0.062  -1.018  49.376  0.00  0.00    -0.572 OA
ATOM     81  H   IDS d 303       0.150  -1.252  52.109  0.00  0.00     0.133 H 
ATOM     82  H   IDS d 303       1.238   0.998  54.752  0.00  0.00     0.104 H 
ATOM     83  H   IDS d 303       1.244   3.487  53.276  0.00  0.00     0.210 HD
ATOM     84  H   IDS d 303       3.189   2.188  53.680  0.00  0.00     0.092 H 
ATOM     85  H   IDS d 303       0.072   1.058  51.133  0.00  0.00     0.097 H 
ATOM     86  H   IDS d 303       2.112   2.458  51.472  0.00  0.00     0.091 H 
ATOM     87  O1S UAP d 301       9.650  -5.322  54.943  0.00  0.00    -0.572 OA
ATOM     88  O61 UAP d 301       9.773  -3.342  47.874  0.00  0.00    -0.642 OA
ATOM     89  C1  UAP d 301       8.534  -2.622  52.204  0.00  0.00     0.167 C 
ATOM     90  O62 UAP d 301      10.627  -1.637  48.904  0.00  0.00    -0.642 OA
ATOM     91  O3S UAP d 301       9.269  -6.906  53.309  0.00  0.00    -0.572 OA
ATOM     92  C6  UAP d 301       9.896  -2.632  48.874  0.00  0.00     0.233 C 
ATOM     93  O3  UAP d 301       6.598  -4.716  50.865  0.00  0.00    -0.389 OA
ATOM     94  C3  UAP d 301       7.992  -4.763  51.024  0.00  0.00     0.086 C 
ATOM     95  S   UAP d 301      10.081  -5.776  53.667  0.00  0.00     0.252 S 
ATOM     96  O2  UAP d 301       9.805  -4.496  52.526  0.00  0.00    -0.244 OA
ATOM     97  C5  UAP d 301       9.263  -3.009  49.967  0.00  0.00     0.147 C 
ATOM     98  O2S UAP d 301      11.495  -6.070  53.659  0.00  0.00    -0.572 OA
ATOM     99  C2  UAP d 301       8.473  -4.116  52.326  0.00  0.00     0.135 C 
ATOM    100  C4  UAP d 301       8.595  -4.152  49.882  0.00  0.00    -0.034 C 
ATOM    101  O5  UAP d 301       9.404  -2.300  51.113  0.00  0.00    -0.311 OA
ATOM    102  H   UAP d 301       8.923  -2.115  53.062  0.00  0.00     0.134 H 
ATOM    103  H   UAP d 301       6.170  -5.127  51.633  0.00  0.00     0.210 HD
ATOM    104  H   UAP d 301       8.289  -5.787  51.097  0.00  0.00     0.093 H 
ATOM    105  H   UAP d 301       7.804  -4.413  53.106  0.00  0.00     0.097 H 
ATOM    106  H   UAP d 301       8.508  -4.613  48.963  0.00  0.00     0.085 H 
ENDROOT
TORSDOF 33
ENDMDL
MODEL 29
REMARK VINA RESULT:      -6.2      2.617      3.111
REMARK  0 active torsions:
REMARK  status: ('A' for Active; 'I' for Inactive)
REMARK       I    between atoms: C4_1  and  O4_32 
REMARK       I    between atoms: C2_2  and  N_17 
REMARK       I    between atoms: C4_3  and  O4_45 
REMARK       I    between atoms: C5_5  and  C6_20 
REMARK       I    between atoms: C5_7  and  C6_42 
REMARK       I    between atoms: C2_8  and  N_48 
REMARK       I    between atoms: O1_9  and  C1_58 
REMARK       I    between atoms: O1_9  and  C4_62 
REMARK       I    between atoms: C3_11  and  O3_46 
REMARK       I    between atoms: O1S_13  and  S1_14 
REMARK       I    between atoms: S1_14  and  N_48 
REMARK       I    between atoms: S1_14  and  O2S_39 
REMARK       I    between atoms: S1_14  and  O3S_16 
REMARK       I    between atoms: N_17  and  S1_64 
REMARK       I    between atoms: C1_18  and  O4_45 
REMARK       I    between atoms: C6_20  and  O6_41 
REMARK       I    between atoms: O1S_22  and  S1_64 
REMARK       I    between atoms: O3S_25  and  S1_64 
REMARK       I    between atoms: O1_26  and  C1_61 
REMARK       I    between atoms: S_27  and  O2_57 
REMARK       I    between atoms: O6_29  and  C6_42 
REMARK       I    between atoms: O6_29  and  S2_68 
REMARK       I    between atoms: C6_30  and  C5_54 
REMARK       I    between atoms: C1_31  and  O4_32 
REMARK       I    between atoms: C5_35  and  C6_36 
REMARK       I    between atoms: O3_37  and  C3_38 
REMARK       I    between atoms: C3_40  and  O3_44 
REMARK       I    between atoms: O6_41  and  S2_52 
REMARK       I    between atoms: S_43  and  O2_53 
REMARK       I    between atoms: O3_47  and  C3_69 
REMARK       I    between atoms: O2S_49  and  S1_64 
REMARK       I    between atoms: O2_53  and  C2_59 
REMARK       I    between atoms: O2_57  and  C2_65 
ROOT
ATOM      1  C4  SGN d 304      -3.239   2.627  54.473  0.00  0.00     0.095 C 
ATOM      2  C2  SGN d 304      -5.075   4.229  53.789  0.00  0.00     0.081 C 
ATOM      3  O5S SGN d 304      -0.480   5.674  56.845  0.00  0.00    -0.572 OA
ATOM      4  C5  SGN d 304      -3.747   2.810  55.911  0.00  0.00     0.091 C 
ATOM      5  N   SGN d 304      -6.320   4.269  53.025  0.00  0.00    -0.210 NA
ATOM      6  O4S SGN d 304       0.373   3.599  57.591  0.00  0.00    -0.572 OA
ATOM      7  O1S SGN d 304      -7.132   6.729  52.637  0.00  0.00    -0.296 OA
ATOM      8  O3S SGN d 304      -5.461   5.994  51.191  0.00  0.00    -0.296 OA
ATOM      9  O1  SGN d 304      -6.594   3.852  55.738  0.00  0.00    -0.369 OA
ATOM     10  O6  SGN d 304      -2.181   3.731  57.424  0.00  0.00    -0.254 OA
ATOM     11  O4  SGN d 304      -2.755   1.276  54.243  0.00  0.00    -0.348 OA
ATOM     12  O5  SGN d 304      -4.239   4.157  56.088  0.00  0.00    -0.350 OA
ATOM     13  C3  SGN d 304      -4.462   2.852  53.575  0.00  0.00     0.083 C 
ATOM     14  C6  SGN d 304      -2.727   2.494  56.980  0.00  0.00     0.067 C 
ATOM     15  O3  SGN d 304      -4.069   2.758  52.238  0.00  0.00    -0.391 OA
ATOM     16  O2S SGN d 304      -7.643   5.198  50.939  0.00  0.00    -0.296 OA
ATOM     17  C1  SGN d 304      -5.383   4.467  55.277  0.00  0.00     0.147 C 
ATOM     18  S1  SGN d 304      -6.655   5.608  51.892  0.00  0.00     0.156 S 
ATOM     19  O6S SGN d 304      -0.508   3.835  55.389  0.00  0.00    -0.572 OA
ATOM     20  S2  SGN d 304      -0.620   4.241  56.770  0.00  0.00     0.251 S 
ATOM     21  H   SGN d 304      -2.432   3.300  54.277  0.00  0.00     0.091 H 
ATOM     22  H   SGN d 304      -4.392   4.987  53.469  0.00  0.00     0.076 H 
ATOM     23  H   SGN d 304      -4.535   2.097  56.038  0.00  0.00     0.090 H 
ATOM     24  H   SGN d 304      -7.079   4.267  53.706  0.00  0.00     0.140 HD
ATOM     25  H   SGN d 304      -6.458   7.001  53.279  0.00  0.00     0.231 HD
ATOM     26  H   SGN d 304      -4.787   6.273  51.831  0.00  0.00     0.231 HD
ATOM     27  H   SGN d 304      -7.325   4.099  55.152  0.00  0.00     0.212 HD
ATOM     28  H   SGN d 304      -5.191   2.109  53.823  0.00  0.00     0.089 H 
ATOM     29  H   SGN d 304      -1.952   1.877  56.575  0.00  0.00     0.080 H 
ATOM     30  H   SGN d 304      -3.181   1.967  57.793  0.00  0.00     0.080 H 
ATOM     31  H   SGN d 304      -3.411   3.443  52.045  0.00  0.00     0.210 HD
ATOM     32  H   SGN d 304      -8.452   4.936  51.405  0.00  0.00     0.231 HD
ATOM     33  H   SGN d 304      -5.582   5.513  55.382  0.00  0.00     0.131 H 
ATOM     34  C4  SGN d 302       4.774   0.418  52.215  0.00  0.00     0.095 C 
ATOM     35  C5  SGN d 302       3.646   1.197  51.552  0.00  0.00     0.091 C 
ATOM     36  C2  SGN d 302       3.283  -1.460  52.546  0.00  0.00     0.081 C 
ATOM     37  O1  SGN d 302       1.283  -0.082  52.560  0.00  0.00    -0.348 OA
ATOM     38  C3  SGN d 302       4.210  -0.521  53.247  0.00  0.00     0.083 C 
ATOM     39  O1S SGN d 302       1.835  -4.552  54.334  0.00  0.00    -0.296 OA
ATOM     40  S1  SGN d 302       2.235  -3.845  53.130  0.00  0.00     0.156 S 
ATOM     41  O4S SGN d 302       5.576   0.635  47.115  0.00  0.00    -0.572 OA
ATOM     42  O3S SGN d 302       1.217  -3.792  52.104  0.00  0.00    -0.296 OA
ATOM     43  C6  SGN d 302       4.180   2.074  50.452  0.00  0.00     0.067 C 
ATOM     44  O6S SGN d 302       4.253   2.525  47.483  0.00  0.00    -0.572 OA
ATOM     45  O5S SGN d 302       6.561   2.481  48.136  0.00  0.00    -0.572 OA
ATOM     46  O2S SGN d 302       3.448  -4.433  52.671  0.00  0.00    -0.296 OA
ATOM     47  O6  SGN d 302       4.842   1.170  49.574  0.00  0.00    -0.254 OA
ATOM     48  O4  SGN d 302       5.587   1.311  52.941  0.00  0.00    -0.348 OA
ATOM     49  O3  SGN d 302       5.292  -1.221  53.818  0.00  0.00    -0.391 OA
ATOM     50  N   SGN d 302       2.549  -2.168  53.550  0.00  0.00    -0.210 NA
ATOM     51  S2  SGN d 302       5.341   1.732  47.992  0.00  0.00     0.251 S 
ATOM     52  C1  SGN d 302       2.252  -0.696  51.751  0.00  0.00     0.150 C 
ATOM     53  O5  SGN d 302       2.862   0.248  50.900  0.00  0.00    -0.349 OA
ATOM     54  H   SGN d 302       5.312  -0.103  51.450  0.00  0.00     0.091 H 
ATOM     55  H   SGN d 302       3.134   1.782  52.287  0.00  0.00     0.090 H 
ATOM     56  H   SGN d 302       3.855  -2.097  51.905  0.00  0.00     0.076 H 
ATOM     57  H   SGN d 302       3.675  -0.006  54.017  0.00  0.00     0.089 H 
ATOM     58  H   SGN d 302       2.566  -4.545  54.971  0.00  0.00     0.231 HD
ATOM     59  H   SGN d 302       0.414  -3.385  52.467  0.00  0.00     0.231 HD
ATOM     60  H   SGN d 302       4.866   2.796  50.841  0.00  0.00     0.080 H 
ATOM     61  H   SGN d 302       3.409   2.630  49.961  0.00  0.00     0.080 H 
ATOM     62  H   SGN d 302       4.095  -4.444  53.394  0.00  0.00     0.231 HD
ATOM     63  H   SGN d 302       5.779  -1.688  53.121  0.00  0.00     0.210 HD
ATOM     64  H   SGN d 302       1.654  -1.697  53.690  0.00  0.00     0.140 HD
ATOM     65  H   SGN d 302       1.741  -1.418  51.149  0.00  0.00     0.131 H 
ATOM     66  O61 IDS d 303       0.378   1.717  49.963  0.00  0.00    -0.646 OA
ATOM     67  O5  IDS d 303      -0.534   1.737  53.383  0.00  0.00    -0.340 OA
ATOM     68  S   IDS d 303       0.194  -1.270  56.479  0.00  0.00     0.252 S 
ATOM     69  C1  IDS d 303      -1.340   1.027  54.332  0.00  0.00     0.161 C 
ATOM     70  C5  IDS d 303      -0.618   1.237  52.036  0.00  0.00     0.152 C 
ATOM     71  C6  IDS d 303       0.225   2.101  51.135  0.00  0.00     0.206 C 
ATOM     72  O3  IDS d 303      -2.181  -1.214  52.323  0.00  0.00    -0.390 OA
ATOM     73  O2S IDS d 303      -0.409  -2.583  56.463  0.00  0.00    -0.572 OA
ATOM     74  O62 IDS d 303       0.878   3.020  51.655  0.00  0.00    -0.646 OA
ATOM     75  O1S IDS d 303       1.534  -1.330  56.987  0.00  0.00    -0.572 OA
ATOM     76  O2  IDS d 303       0.279  -0.641  54.884  0.00  0.00    -0.244 OA
ATOM     77  C4  IDS d 303      -0.040  -0.165  52.010  0.00  0.00     0.103 C 
ATOM     78  C2  IDS d 303      -0.955  -0.458  54.281  0.00  0.00     0.134 C 
ATOM     79  C3  IDS d 303      -0.903  -1.066  52.878  0.00  0.00     0.094 C 
ATOM     80  O3S IDS d 303      -0.664  -0.474  57.257  0.00  0.00    -0.572 OA
ATOM     81  H   IDS d 303      -1.123   1.412  55.307  0.00  0.00     0.133 H 
ATOM     82  H   IDS d 303      -1.637   1.242  51.710  0.00  0.00     0.104 H 
ATOM     83  H   IDS d 303      -2.105  -1.601  51.437  0.00  0.00     0.210 HD
ATOM     84  H   IDS d 303      -0.013  -0.562  51.017  0.00  0.00     0.092 H 
ATOM     85  H   IDS d 303      -1.737  -0.967  54.803  0.00  0.00     0.097 H 
ATOM     86  H   IDS d 303      -0.484  -2.049  52.934  0.00  0.00     0.091 H 
ATOM     87  O1S UAP d 301       8.073   5.288  51.400  0.00  0.00    -0.572 OA
ATOM     88  O61 UAP d 301       9.382  -0.718  55.416  0.00  0.00    -0.642 OA
ATOM     89  C1  UAP d 301       6.861   1.606  52.409  0.00  0.00     0.167 C 
ATOM     90  O62 UAP d 301       9.279  -1.466  53.385  0.00  0.00    -0.642 OA
ATOM     91  O3S UAP d 301       8.719   5.509  53.604  0.00  0.00    -0.572 OA
ATOM     92  C6  UAP d 301       8.978  -0.643  54.254  0.00  0.00     0.233 C 
ATOM     93  O3  UAP d 301       6.209   2.575  55.335  0.00  0.00    -0.389 OA
ATOM     94  C3  UAP d 301       7.436   2.559  54.652  0.00  0.00     0.086 C 
ATOM     95  S   UAP d 301       8.960   4.781  52.389  0.00  0.00     0.252 S 
ATOM     96  O2  UAP d 301       8.570   3.108  52.645  0.00  0.00    -0.244 OA
ATOM     97  C5  UAP d 301       8.249   0.408  53.933  0.00  0.00     0.147 C 
ATOM     98  O2S UAP d 301      10.334   4.847  51.951  0.00  0.00    -0.572 OA
ATOM     99  C2  UAP d 301       7.294   2.835  53.152  0.00  0.00     0.135 C 
ATOM    100  C4  UAP d 301       8.069   1.302  54.896  0.00  0.00    -0.034 C 
ATOM    101  O5  UAP d 301       7.821   0.574  52.658  0.00  0.00    -0.311 OA
ATOM    102  H   UAP d 301       6.804   1.718  51.347  0.00  0.00     0.134 H 
ATOM    103  H   UAP d 301       5.763   3.423  55.181  0.00  0.00     0.210 HD
ATOM    104  H   UAP d 301       8.041   3.358  55.025  0.00  0.00     0.093 H 
ATOM    105  H   UAP d 301       6.588   3.630  53.030  0.00  0.00     0.097 H 
ATOM    106  H   UAP d 301       8.398   1.084  55.849  0.00  0.00     0.085 H 
ENDROOT
TORSDOF 33
ENDMDL
MODEL 30
REMARK VINA RESULT:      -6.2      2.654     10.888
REMARK  0 active torsions:
REMARK  status: ('A' for Active; 'I' for Inactive)
REMARK       I    between atoms: C4_1  and  O4_32 
REMARK       I    between atoms: C2_2  and  N_17 
REMARK       I    between atoms: C4_3  and  O4_45 
REMARK       I    between atoms: C5_5  and  C6_20 
REMARK       I    between atoms: C5_7  and  C6_42 
REMARK       I    between atoms: C2_8  and  N_48 
REMARK       I    between atoms: O1_9  and  C1_58 
REMARK       I    between atoms: O1_9  and  C4_62 
REMARK       I    between atoms: C3_11  and  O3_46 
REMARK       I    between atoms: O1S_13  and  S1_14 
REMARK       I    between atoms: S1_14  and  N_48 
REMARK       I    between atoms: S1_14  and  O2S_39 
REMARK       I    between atoms: S1_14  and  O3S_16 
REMARK       I    between atoms: N_17  and  S1_64 
REMARK       I    between atoms: C1_18  and  O4_45 
REMARK       I    between atoms: C6_20  and  O6_41 
REMARK       I    between atoms: O1S_22  and  S1_64 
REMARK       I    between atoms: O3S_25  and  S1_64 
REMARK       I    between atoms: O1_26  and  C1_61 
REMARK       I    between atoms: S_27  and  O2_57 
REMARK       I    between atoms: O6_29  and  C6_42 
REMARK       I    between atoms: O6_29  and  S2_68 
REMARK       I    between atoms: C6_30  and  C5_54 
REMARK       I    between atoms: C1_31  and  O4_32 
REMARK       I    between atoms: C5_35  and  C6_36 
REMARK       I    between atoms: O3_37  and  C3_38 
REMARK       I    between atoms: C3_40  and  O3_44 
REMARK       I    between atoms: O6_41  and  S2_52 
REMARK       I    between atoms: S_43  and  O2_53 
REMARK       I    between atoms: O3_47  and  C3_69 
REMARK       I    between atoms: O2S_49  and  S1_64 
REMARK       I    between atoms: O2_53  and  C2_59 
REMARK       I    between atoms: O2_57  and  C2_65 
ROOT
ATOM      1  C4  SGN d 304       5.731   1.101  52.185  0.00  0.00     0.095 C 
ATOM      2  C2  SGN d 304       7.377   2.975  51.755  0.00  0.00     0.081 C 
ATOM      3  O5S SGN d 304       3.375   1.262  48.068  0.00  0.00    -0.572 OA
ATOM      4  C5  SGN d 304       6.485   0.319  51.099  0.00  0.00     0.091 C 
ATOM      5  N   SGN d 304       8.463   3.704  52.406  0.00  0.00    -0.210 NA
ATOM      6  O4S SGN d 304       2.717  -0.853  48.896  0.00  0.00    -0.572 OA
ATOM      7  O1S SGN d 304       9.136   5.842  51.052  0.00  0.00    -0.296 OA
ATOM      8  O3S SGN d 304       7.249   6.071  52.397  0.00  0.00    -0.296 OA
ATOM      9  O1  SGN d 304       9.230   1.586  50.813  0.00  0.00    -0.369 OA
ATOM     10  O6  SGN d 304       5.196  -0.282  49.210  0.00  0.00    -0.254 OA
ATOM     11  O4  SGN d 304       5.245   0.225  53.237  0.00  0.00    -0.348 OA
ATOM     12  O5  SGN d 304       6.970   1.230  50.087  0.00  0.00    -0.350 OA
ATOM     13  C3  SGN d 304       6.767   2.051  52.799  0.00  0.00     0.083 C 
ATOM     14  C6  SGN d 304       5.681  -0.784  50.450  0.00  0.00     0.067 C 
ATOM     15  O3  SGN d 304       6.143   2.844  53.764  0.00  0.00    -0.391 OA
ATOM     16  O2S SGN d 304       9.368   5.984  53.378  0.00  0.00    -0.296 OA
ATOM     17  C1  SGN d 304       7.942   2.170  50.572  0.00  0.00     0.147 C 
ATOM     18  S1  SGN d 304       8.558   5.485  52.307  0.00  0.00     0.156 S 
ATOM     19  O6S SGN d 304       3.183   0.949  50.385  0.00  0.00    -0.572 OA
ATOM     20  S2  SGN d 304       3.532   0.309  49.139  0.00  0.00     0.251 S 
ATOM     21  H   SGN d 304       4.886   1.602  51.761  0.00  0.00     0.091 H 
ATOM     22  H   SGN d 304       6.630   3.639  51.373  0.00  0.00     0.076 H 
ATOM     23  H   SGN d 304       7.299  -0.166  51.597  0.00  0.00     0.090 H 
ATOM     24  H   SGN d 304       9.332   3.344  52.012  0.00  0.00     0.140 HD
ATOM     25  H   SGN d 304       8.582   5.501  50.332  0.00  0.00     0.231 HD
ATOM     26  H   SGN d 304       6.695   5.736  51.674  0.00  0.00     0.231 HD
ATOM     27  H   SGN d 304       9.838   2.267  51.137  0.00  0.00     0.212 HD
ATOM     28  H   SGN d 304       7.546   1.453  53.225  0.00  0.00     0.089 H 
ATOM     29  H   SGN d 304       4.861  -1.058  51.080  0.00  0.00     0.080 H 
ATOM     30  H   SGN d 304       6.286  -1.653  50.296  0.00  0.00     0.080 H 
ATOM     31  H   SGN d 304       5.444   3.372  53.347  0.00  0.00     0.210 HD
ATOM     32  H   SGN d 304      10.254   5.592  53.324  0.00  0.00     0.231 HD
ATOM     33  H   SGN d 304       8.133   2.873  49.789  0.00  0.00     0.131 H 
ATOM     34  C4  SGN d 302      -2.505  -0.067  54.419  0.00  0.00     0.095 C 
ATOM     35  C5  SGN d 302      -1.533   1.104  54.469  0.00  0.00     0.091 C 
ATOM     36  C2  SGN d 302      -0.936  -1.424  55.667  0.00  0.00     0.081 C 
ATOM     37  O1  SGN d 302       1.002  -0.165  54.919  0.00  0.00    -0.348 OA
ATOM     38  C3  SGN d 302      -1.744  -1.364  54.411  0.00  0.00     0.083 C 
ATOM     39  O1S SGN d 302       0.880  -4.652  56.731  0.00  0.00    -0.296 OA
ATOM     40  S1  SGN d 302       0.254  -3.379  57.041  0.00  0.00     0.156 S 
ATOM     41  O4S SGN d 302      -4.215   3.468  57.776  0.00  0.00    -0.572 OA
ATOM     42  O3S SGN d 302       1.069  -2.494  57.843  0.00  0.00    -0.296 OA
ATOM     43  C6  SGN d 302      -2.276   2.409  54.573  0.00  0.00     0.067 C 
ATOM     44  O6S SGN d 302      -2.891   4.755  56.344  0.00  0.00    -0.572 OA
ATOM     45  O5S SGN d 302      -5.042   3.949  55.654  0.00  0.00    -0.572 OA
ATOM     46  O2S SGN d 302      -1.008  -3.657  57.638  0.00  0.00    -0.296 OA
ATOM     47  O6  SGN d 302      -3.064   2.271  55.749  0.00  0.00    -0.254 OA
ATOM     48  O4  SGN d 302      -3.195  -0.041  53.190  0.00  0.00    -0.348 OA
ATOM     49  O3  SGN d 302      -2.689  -2.410  54.375  0.00  0.00    -0.391 OA
ATOM     50  N   SGN d 302      -0.017  -2.513  55.536  0.00  0.00    -0.210 NA
ATOM     51  S2  SGN d 302      -3.852   3.685  56.417  0.00  0.00     0.251 S 
ATOM     52  C1  SGN d 302      -0.083  -0.186  55.810  0.00  0.00     0.150 C 
ATOM     53  O5  SGN d 302      -0.857   0.985  55.682  0.00  0.00    -0.349 OA
ATOM     54  H   SGN d 302      -3.159   0.009  55.263  0.00  0.00     0.091 H 
ATOM     55  H   SGN d 302      -0.911   1.092  53.599  0.00  0.00     0.090 H 
ATOM     56  H   SGN d 302      -1.600  -1.521  56.500  0.00  0.00     0.076 H 
ATOM     57  H   SGN d 302      -1.090  -1.448  53.567  0.00  0.00     0.089 H 
ATOM     58  H   SGN d 302       0.275  -5.187  56.193  0.00  0.00     0.231 HD
ATOM     59  H   SGN d 302       1.915  -2.338  57.393  0.00  0.00     0.231 HD
ATOM     60  H   SGN d 302      -2.897   2.560  53.715  0.00  0.00     0.080 H 
ATOM     61  H   SGN d 302      -1.618   3.252  54.617  0.00  0.00     0.080 H 
ATOM     62  H   SGN d 302      -1.514  -4.252  57.063  0.00  0.00     0.231 HD
ATOM     63  H   SGN d 302      -3.282  -2.335  55.139  0.00  0.00     0.210 HD
ATOM     64  H   SGN d 302       0.877  -2.146  55.209  0.00  0.00     0.140 HD
ATOM     65  H   SGN d 302       0.328  -0.218  56.797  0.00  0.00     0.131 H 
ATOM     66  O61 IDS d 303       1.383   3.028  55.596  0.00  0.00    -0.646 OA
ATOM     67  O5  IDS d 303       2.895   0.828  53.271  0.00  0.00    -0.340 OA
ATOM     68  S   IDS d 303       2.804  -3.544  53.106  0.00  0.00     0.252 S 
ATOM     69  C1  IDS d 303       3.875  -0.215  53.189  0.00  0.00     0.161 C 
ATOM     70  C5  IDS d 303       2.747   1.406  54.580  0.00  0.00     0.152 C 
ATOM     71  C6  IDS d 303       1.737   2.521  54.517  0.00  0.00     0.206 C 
ATOM     72  O3  IDS d 303       4.391  -0.320  56.269  0.00  0.00    -0.390 OA
ATOM     73  O2S IDS d 303       3.424  -4.386  54.104  0.00  0.00    -0.572 OA
ATOM     74  O62 IDS d 303       1.166   2.728  53.434  0.00  0.00    -0.646 OA
ATOM     75  O1S IDS d 303       1.580  -4.126  52.638  0.00  0.00    -0.572 OA
ATOM     76  O2  IDS d 303       2.420  -2.014  53.782  0.00  0.00    -0.244 OA
ATOM     77  C4  IDS d 303       2.206   0.341  55.514  0.00  0.00     0.103 C 
ATOM     78  C2  IDS d 303       3.521  -1.295  54.219  0.00  0.00     0.134 C 
ATOM     79  C3  IDS d 303       3.232  -0.776  55.629  0.00  0.00     0.094 C 
ATOM     80  O3S IDS d 303       3.770  -3.387  52.097  0.00  0.00    -0.572 OA
ATOM     81  H   IDS d 303       3.827  -0.639  52.207  0.00  0.00     0.133 H 
ATOM     82  H   IDS d 303       3.690   1.778  54.923  0.00  0.00     0.104 H 
ATOM     83  H   IDS d 303       4.167  -0.000  57.156  0.00  0.00     0.210 HD
ATOM     84  H   IDS d 303       2.009   0.733  56.490  0.00  0.00     0.092 H 
ATOM     85  H   IDS d 303       4.396  -1.906  54.296  0.00  0.00     0.097 H 
ATOM     86  H   IDS d 303       2.852  -1.576  56.230  0.00  0.00     0.091 H 
ATOM     87  O1S UAP d 301      -6.007   3.503  51.216  0.00  0.00    -0.572 OA
ATOM     88  O61 UAP d 301      -6.435  -3.726  52.434  0.00  0.00    -0.642 OA
ATOM     89  C1  UAP d 301      -4.550   0.353  53.215  0.00  0.00     0.167 C 
ATOM     90  O62 UAP d 301      -6.682  -2.853  54.402  0.00  0.00    -0.642 OA
ATOM     91  O3S UAP d 301      -6.251   2.059  49.433  0.00  0.00    -0.572 OA
ATOM     92  C6  UAP d 301      -6.248  -2.818  53.247  0.00  0.00     0.233 C 
ATOM     93  O3  UAP d 301      -3.404  -0.867  50.546  0.00  0.00    -0.389 OA
ATOM     94  C3  UAP d 301      -4.733  -0.584  50.901  0.00  0.00     0.086 C 
ATOM     95  S   UAP d 301      -6.689   2.337  50.773  0.00  0.00     0.252 S 
ATOM     96  O2  UAP d 301      -6.222   1.022  51.806  0.00  0.00    -0.244 OA
ATOM     97  C5  UAP d 301      -5.613  -1.744  52.822  0.00  0.00     0.147 C 
ATOM     98  O2S UAP d 301      -8.121   2.489  50.881  0.00  0.00    -0.572 OA
ATOM     99  C2  UAP d 301      -4.870   0.661  51.783  0.00  0.00     0.135 C 
ATOM    100  C4  UAP d 301      -5.284  -1.739  51.537  0.00  0.00    -0.034 C 
ATOM    101  O5  UAP d 301      -5.425  -0.692  53.653  0.00  0.00    -0.311 OA
ATOM    102  H   UAP d 301      -4.687   1.169  53.893  0.00  0.00     0.134 H 
ATOM    103  H   UAP d 301      -3.013  -0.092  50.113  0.00  0.00     0.210 HD
ATOM    104  H   UAP d 301      -5.279  -0.355  50.011  0.00  0.00     0.093 H 
ATOM    105  H   UAP d 301      -4.216   1.412  51.393  0.00  0.00     0.097 H 
ATOM    106  H   UAP d 301      -5.430  -2.595  50.979  0.00  0.00     0.085 H 
ENDROOT
TORSDOF 33
ENDMDL
MODEL 31
REMARK VINA RESULT:      -6.1      3.027      6.531
REMARK  0 active torsions:
REMARK  status: ('A' for Active; 'I' for Inactive)
REMARK       I    between atoms: C4_1  and  O4_32 
REMARK       I    between atoms: C2_2  and  N_17 
REMARK       I    between atoms: C4_3  and  O4_45 
REMARK       I    between atoms: C5_5  and  C6_20 
REMARK       I    between atoms: C5_7  and  C6_42 
REMARK       I    between atoms: C2_8  and  N_48 
REMARK       I    between atoms: O1_9  and  C1_58 
REMARK       I    between atoms: O1_9  and  C4_62 
REMARK       I    between atoms: C3_11  and  O3_46 
REMARK       I    between atoms: O1S_13  and  S1_14 
REMARK       I    between atoms: S1_14  and  N_48 
REMARK       I    between atoms: S1_14  and  O2S_39 
REMARK       I    between atoms: S1_14  and  O3S_16 
REMARK       I    between atoms: N_17  and  S1_64 
REMARK       I    between atoms: C1_18  and  O4_45 
REMARK       I    between atoms: C6_20  and  O6_41 
REMARK       I    between atoms: O1S_22  and  S1_64 
REMARK       I    between atoms: O3S_25  and  S1_64 
REMARK       I    between atoms: O1_26  and  C1_61 
REMARK       I    between atoms: S_27  and  O2_57 
REMARK       I    between atoms: O6_29  and  C6_42 
REMARK       I    between atoms: O6_29  and  S2_68 
REMARK       I    between atoms: C6_30  and  C5_54 
REMARK       I    between atoms: C1_31  and  O4_32 
REMARK       I    between atoms: C5_35  and  C6_36 
REMARK       I    between atoms: O3_37  and  C3_38 
REMARK       I    between atoms: C3_40  and  O3_44 
REMARK       I    between atoms: O6_41  and  S2_52 
REMARK       I    between atoms: S_43  and  O2_53 
REMARK       I    between atoms: O3_47  and  C3_69 
REMARK       I    between atoms: O2S_49  and  S1_64 
REMARK       I    between atoms: O2_53  and  C2_59 
REMARK       I    between atoms: O2_57  and  C2_65 
ROOT
ATOM      1  C4  SGN d 304      -1.242   1.435  52.240  0.00  0.00     0.095 C 
ATOM      2  C2  SGN d 304      -3.453   2.054  53.305  0.00  0.00     0.081 C 
ATOM      3  O5S SGN d 304      -0.340  -2.514  54.713  0.00  0.00    -0.572 OA
ATOM      4  C5  SGN d 304      -1.982   0.234  51.630  0.00  0.00     0.091 C 
ATOM      5  N   SGN d 304      -4.481   3.091  53.264  0.00  0.00    -0.210 NA
ATOM      6  O4S SGN d 304       1.169  -2.743  52.906  0.00  0.00    -0.572 OA
ATOM      7  O1S SGN d 304      -6.162   2.859  55.260  0.00  0.00    -0.296 OA
ATOM      8  O3S SGN d 304      -4.148   3.908  55.773  0.00  0.00    -0.296 OA
ATOM      9  O1  SGN d 304      -4.949   0.877  51.684  0.00  0.00    -0.369 OA
ATOM     10  O6  SGN d 304      -1.163  -1.888  52.276  0.00  0.00    -0.254 OA
ATOM     11  O4  SGN d 304      -0.221   1.948  51.341  0.00  0.00    -0.348 OA
ATOM     12  O5  SGN d 304      -3.000  -0.228  52.545  0.00  0.00    -0.350 OA
ATOM     13  C3  SGN d 304      -2.308   2.524  52.419  0.00  0.00     0.083 C 
ATOM     14  C6  SGN d 304      -1.087  -0.918  51.238  0.00  0.00     0.067 C 
ATOM     15  O3  SGN d 304      -1.723   3.638  53.025  0.00  0.00    -0.391 OA
ATOM     16  O2S SGN d 304      -5.754   5.039  54.509  0.00  0.00    -0.296 OA
ATOM     17  C1  SGN d 304      -4.042   0.731  52.786  0.00  0.00     0.147 C 
ATOM     18  S1  SGN d 304      -5.167   3.759  54.772  0.00  0.00     0.156 S 
ATOM     19  O6S SGN d 304       0.595  -0.589  53.750  0.00  0.00    -0.572 OA
ATOM     20  S2  SGN d 304       0.130  -1.929  53.481  0.00  0.00     0.251 S 
ATOM     21  H   SGN d 304      -0.761   1.150  53.151  0.00  0.00     0.091 H 
ATOM     22  H   SGN d 304      -3.100   1.888  54.302  0.00  0.00     0.076 H 
ATOM     23  H   SGN d 304      -2.419   0.589  50.720  0.00  0.00     0.090 H 
ATOM     24  H   SGN d 304      -5.263   2.704  52.736  0.00  0.00     0.140 HD
ATOM     25  H   SGN d 304      -5.757   1.995  55.437  0.00  0.00     0.231 HD
ATOM     26  H   SGN d 304      -3.746   3.044  55.956  0.00  0.00     0.231 HD
ATOM     27  H   SGN d 304      -5.625   1.536  51.907  0.00  0.00     0.212 HD
ATOM     28  H   SGN d 304      -2.698   2.762  51.452  0.00  0.00     0.089 H 
ATOM     29  H   SGN d 304      -0.078  -0.578  51.129  0.00  0.00     0.080 H 
ATOM     30  H   SGN d 304      -1.398  -1.338  50.304  0.00  0.00     0.080 H 
ATOM     31  H   SGN d 304      -1.381   3.390  53.898  0.00  0.00     0.210 HD
ATOM     32  H   SGN d 304      -6.443   4.946  53.832  0.00  0.00     0.231 HD
ATOM     33  H   SGN d 304      -4.663   0.347  53.567  0.00  0.00     0.131 H 
ATOM     34  C4  SGN d 302       7.208   1.842  53.856  0.00  0.00     0.095 C 
ATOM     35  C5  SGN d 302       5.969   2.507  54.438  0.00  0.00     0.091 C 
ATOM     36  C2  SGN d 302       6.582   2.607  51.647  0.00  0.00     0.081 C 
ATOM     37  O1  SGN d 302       4.215   2.723  52.176  0.00  0.00    -0.348 OA
ATOM     38  C3  SGN d 302       6.935   1.394  52.446  0.00  0.00     0.083 C 
ATOM     39  O1S SGN d 302       6.282   2.458  47.808  0.00  0.00    -0.296 OA
ATOM     40  S1  SGN d 302       6.527   3.184  49.041  0.00  0.00     0.156 S 
ATOM     41  O4S SGN d 302       8.576   6.104  56.435  0.00  0.00    -0.572 OA
ATOM     42  O3S SGN d 302       5.735   4.385  49.193  0.00  0.00    -0.296 OA
ATOM     43  C6  SGN d 302       6.251   3.046  55.815  0.00  0.00     0.067 C 
ATOM     44  O6S SGN d 302       6.559   5.535  57.468  0.00  0.00    -0.572 OA
ATOM     45  O5S SGN d 302       8.563   4.287  57.890  0.00  0.00    -0.572 OA
ATOM     46  O2S SGN d 302       7.927   3.434  49.119  0.00  0.00    -0.296 OA
ATOM     47  O6  SGN d 302       7.342   3.938  55.626  0.00  0.00    -0.254 OA
ATOM     48  O4  SGN d 302       7.472   0.655  54.570  0.00  0.00    -0.348 OA
ATOM     49  O3  SGN d 302       8.114   0.797  51.955  0.00  0.00    -0.391 OA
ATOM     50  N   SGN d 302       6.065   2.158  50.390  0.00  0.00    -0.210 NA
ATOM     51  S2  SGN d 302       7.791   5.023  56.926  0.00  0.00     0.251 S 
ATOM     52  C1  SGN d 302       5.456   3.368  52.303  0.00  0.00     0.150 C 
ATOM     53  O5  SGN d 302       5.742   3.638  53.656  0.00  0.00    -0.349 OA
ATOM     54  H   SGN d 302       8.016   2.543  53.905  0.00  0.00     0.091 H 
ATOM     55  H   SGN d 302       5.163   1.805  54.465  0.00  0.00     0.090 H 
ATOM     56  H   SGN d 302       7.451   3.225  51.556  0.00  0.00     0.076 H 
ATOM     57  H   SGN d 302       6.131   0.690  52.390  0.00  0.00     0.089 H 
ATOM     58  H   SGN d 302       6.847   1.670  47.779  0.00  0.00     0.231 HD
ATOM     59  H   SGN d 302       4.793   4.160  49.131  0.00  0.00     0.231 HD
ATOM     60  H   SGN d 302       6.518   2.255  56.484  0.00  0.00     0.080 H 
ATOM     61  H   SGN d 302       5.399   3.527  56.249  0.00  0.00     0.080 H 
ATOM     62  H   SGN d 302       8.410   2.600  49.012  0.00  0.00     0.231 HD
ATOM     63  H   SGN d 302       8.843   1.434  52.005  0.00  0.00     0.210 HD
ATOM     64  H   SGN d 302       5.047   2.138  50.448  0.00  0.00     0.140 HD
ATOM     65  H   SGN d 302       5.376   4.297  51.779  0.00  0.00     0.131 H 
ATOM     66  O61 IDS d 303       3.039   4.717  54.508  0.00  0.00    -0.646 OA
ATOM     67  O5  IDS d 303       1.717   1.913  52.800  0.00  0.00    -0.340 OA
ATOM     68  S   IDS d 303       3.155  -0.075  49.176  0.00  0.00     0.252 S 
ATOM     69  C1  IDS d 303       1.143   1.536  51.542  0.00  0.00     0.161 C 
ATOM     70  C5  IDS d 303       2.038   3.311  52.914  0.00  0.00     0.152 C 
ATOM     71  C6  IDS d 303       2.575   3.584  54.294  0.00  0.00     0.206 C 
ATOM     72  O3  IDS d 303       1.588   4.328  50.212  0.00  0.00    -0.390 OA
ATOM     73  O2S IDS d 303       3.149   0.553  47.875  0.00  0.00    -0.572 OA
ATOM     74  O62 IDS d 303       2.715   2.621  55.065  0.00  0.00    -0.646 OA
ATOM     75  O1S IDS d 303       4.314  -0.904  49.338  0.00  0.00    -0.572 OA
ATOM     76  O2  IDS d 303       3.203   1.120  50.407  0.00  0.00    -0.244 OA
ATOM     77  C4  IDS d 303       3.135   3.632  51.917  0.00  0.00     0.103 C 
ATOM     78  C2  IDS d 303       2.103   1.962  50.424  0.00  0.00     0.134 C 
ATOM     79  C3  IDS d 303       2.600   3.407  50.512  0.00  0.00     0.094 C 
ATOM     80  O3S IDS d 303       1.944  -0.785  49.254  0.00  0.00    -0.572 OA
ATOM     81  H   IDS d 303       1.042   0.470  51.529  0.00  0.00     0.133 H 
ATOM     82  H   IDS d 303       1.165   3.902  52.731  0.00  0.00     0.104 H 
ATOM     83  H   IDS d 303       1.942   5.229  50.279  0.00  0.00     0.210 HD
ATOM     84  H   IDS d 303       3.465   4.646  52.004  0.00  0.00     0.092 H 
ATOM     85  H   IDS d 303       1.531   1.893  49.523  0.00  0.00     0.097 H 
ATOM     86  H   IDS d 303       3.371   3.560  49.786  0.00  0.00     0.091 H 
ATOM     87  O1S UAP d 301       8.312  -0.016  59.387  0.00  0.00    -0.572 OA
ATOM     88  O61 UAP d 301      11.366  -2.002  53.012  0.00  0.00    -0.642 OA
ATOM     89  C1  UAP d 301       8.577   0.660  55.449  0.00  0.00     0.167 C 
ATOM     90  O62 UAP d 301      11.870   0.097  53.197  0.00  0.00    -0.642 OA
ATOM     91  O3S UAP d 301       8.488  -2.255  58.857  0.00  0.00    -0.572 OA
ATOM     92  C6  UAP d 301      11.138  -0.867  53.436  0.00  0.00     0.233 C 
ATOM     93  O3  UAP d 301       7.173  -2.094  54.838  0.00  0.00    -0.389 OA
ATOM     94  C3  UAP d 301       8.384  -1.836  55.501  0.00  0.00     0.086 C 
ATOM     95  S   UAP d 301       9.176  -0.994  58.823  0.00  0.00     0.252 S 
ATOM     96  O2  UAP d 301       9.471  -0.553  57.170  0.00  0.00    -0.244 OA
ATOM     97  C5  UAP d 301      10.098  -0.715  54.231  0.00  0.00     0.147 C 
ATOM     98  O2S UAP d 301      10.451  -1.027  59.500  0.00  0.00    -0.572 OA
ATOM     99  C2  UAP d 301       8.359  -0.542  56.320  0.00  0.00     0.135 C 
ATOM    100  C4  UAP d 301       9.433  -1.822  54.531  0.00  0.00    -0.034 C 
ATOM    101  O5  UAP d 301       9.828   0.498  54.771  0.00  0.00    -0.311 OA
ATOM    102  H   UAP d 301       8.632   1.591  55.972  0.00  0.00     0.134 H 
ATOM    103  H   UAP d 301       6.448  -2.106  55.481  0.00  0.00     0.210 HD
ATOM    104  H   UAP d 301       8.550  -2.613  56.216  0.00  0.00     0.093 H 
ATOM    105  H   UAP d 301       7.416  -0.490  56.822  0.00  0.00     0.097 H 
ATOM    106  H   UAP d 301       9.681  -2.701  54.050  0.00  0.00     0.085 H 
ENDROOT
TORSDOF 33
ENDMDL
MODEL 32
REMARK VINA RESULT:      -6.1      4.567      7.193
REMARK  0 active torsions:
REMARK  status: ('A' for Active; 'I' for Inactive)
REMARK       I    between atoms: C4_1  and  O4_32 
REMARK       I    between atoms: C2_2  and  N_17 
REMARK       I    between atoms: C4_3  and  O4_45 
REMARK       I    between atoms: C5_5  and  C6_20 
REMARK       I    between atoms: C5_7  and  C6_42 
REMARK       I    between atoms: C2_8  and  N_48 
REMARK       I    between atoms: O1_9  and  C1_58 
REMARK       I    between atoms: O1_9  and  C4_62 
REMARK       I    between atoms: C3_11  and  O3_46 
REMARK       I    between atoms: O1S_13  and  S1_14 
REMARK       I    between atoms: S1_14  and  N_48 
REMARK       I    between atoms: S1_14  and  O2S_39 
REMARK       I    between atoms: S1_14  and  O3S_16 
REMARK       I    between atoms: N_17  and  S1_64 
REMARK       I    between atoms: C1_18  and  O4_45 
REMARK       I    between atoms: C6_20  and  O6_41 
REMARK       I    between atoms: O1S_22  and  S1_64 
REMARK       I    between atoms: O3S_25  and  S1_64 
REMARK       I    between atoms: O1_26  and  C1_61 
REMARK       I    between atoms: S_27  and  O2_57 
REMARK       I    between atoms: O6_29  and  C6_42 
REMARK       I    between atoms: O6_29  and  S2_68 
REMARK       I    between atoms: C6_30  and  C5_54 
REMARK       I    between atoms: C1_31  and  O4_32 
REMARK       I    between atoms: C5_35  and  C6_36 
REMARK       I    between atoms: O3_37  and  C3_38 
REMARK       I    between atoms: C3_40  and  O3_44 
REMARK       I    between atoms: O6_41  and  S2_52 
REMARK       I    between atoms: S_43  and  O2_53 
REMARK       I    between atoms: O3_47  and  C3_69 
REMARK       I    between atoms: O2S_49  and  S1_64 
REMARK       I    between atoms: O2_53  and  C2_59 
REMARK       I    between atoms: O2_57  and  C2_65 
ROOT
ATOM      1  C4  SGN d 304      -2.647   4.954  53.481  0.00  0.00     0.095 C 
ATOM      2  C2  SGN d 304      -4.818   4.087  52.511  0.00  0.00     0.081 C 
ATOM      3  O5S SGN d 304      -0.951   7.116  49.611  0.00  0.00    -0.572 OA
ATOM      4  C5  SGN d 304      -3.254   6.358  53.335  0.00  0.00     0.091 C 
ATOM      5  N   SGN d 304      -5.988   3.293  52.879  0.00  0.00    -0.210 NA
ATOM      6  O4S SGN d 304       0.405   8.062  51.302  0.00  0.00    -0.572 OA
ATOM      7  O1S SGN d 304      -7.426   2.670  50.780  0.00  0.00    -0.296 OA
ATOM      8  O3S SGN d 304      -5.551   1.336  51.130  0.00  0.00    -0.296 OA
ATOM      9  O1  SGN d 304      -6.266   6.025  53.143  0.00  0.00    -0.369 OA
ATOM     10  O6  SGN d 304      -2.076   7.822  51.900  0.00  0.00    -0.254 OA
ATOM     11  O4  SGN d 304      -1.799   4.856  54.657  0.00  0.00    -0.348 OA
ATOM     12  O5  SGN d 304      -4.106   6.404  52.168  0.00  0.00    -0.350 OA
ATOM     13  C3  SGN d 304      -3.841   4.010  53.675  0.00  0.00     0.083 C 
ATOM     14  C6  SGN d 304      -2.239   7.475  53.270  0.00  0.00     0.067 C 
ATOM     15  O3  SGN d 304      -3.373   2.697  53.760  0.00  0.00    -0.391 OA
ATOM     16  O2S SGN d 304      -7.415   1.102  52.519  0.00  0.00    -0.296 OA
ATOM     17  C1  SGN d 304      -5.251   5.541  52.253  0.00  0.00     0.147 C 
ATOM     18  S1  SGN d 304      -6.624   2.038  51.777  0.00  0.00     0.156 S 
ATOM     19  O6S SGN d 304      -0.401   5.827  51.493  0.00  0.00    -0.572 OA
ATOM     20  S2  SGN d 304      -0.687   7.164  51.028  0.00  0.00     0.251 S 
ATOM     21  H   SGN d 304      -2.048   4.720  52.627  0.00  0.00     0.091 H 
ATOM     22  H   SGN d 304      -4.356   3.719  51.620  0.00  0.00     0.076 H 
ATOM     23  H   SGN d 304      -3.820   6.528  54.227  0.00  0.00     0.090 H 
ATOM     24  H   SGN d 304      -6.749   3.952  53.038  0.00  0.00     0.140 HD
ATOM     25  H   SGN d 304      -6.885   3.302  50.281  0.00  0.00     0.231 HD
ATOM     26  H   SGN d 304      -5.011   1.965  50.626  0.00  0.00     0.231 HD
ATOM     27  H   SGN d 304      -7.008   5.402  53.155  0.00  0.00     0.212 HD
ATOM     28  H   SGN d 304      -4.348   4.306  54.570  0.00  0.00     0.089 H 
ATOM     29  H   SGN d 304      -1.306   7.145  53.677  0.00  0.00     0.080 H 
ATOM     30  H   SGN d 304      -2.568   8.320  53.838  0.00  0.00     0.080 H 
ATOM     31  H   SGN d 304      -2.920   2.460  52.936  0.00  0.00     0.210 HD
ATOM     32  H   SGN d 304      -8.142   1.569  52.960  0.00  0.00     0.231 HD
ATOM     33  H   SGN d 304      -5.735   5.549  51.299  0.00  0.00     0.131 H 
ATOM     34  C4  SGN d 302       5.763   3.095  53.541  0.00  0.00     0.095 C 
ATOM     35  C5  SGN d 302       4.497   2.340  53.160  0.00  0.00     0.091 C 
ATOM     36  C2  SGN d 302       4.832   3.554  55.728  0.00  0.00     0.081 C 
ATOM     37  O1  SGN d 302       2.532   3.398  54.964  0.00  0.00    -0.348 OA
ATOM     38  C3  SGN d 302       5.431   4.192  54.516  0.00  0.00     0.083 C 
ATOM     39  O1S SGN d 302       4.208   5.571  58.952  0.00  0.00    -0.296 OA
ATOM     40  S1  SGN d 302       4.455   4.320  58.257  0.00  0.00     0.156 S 
ATOM     41  O4S SGN d 302       6.717  -1.982  53.506  0.00  0.00    -0.572 OA
ATOM     42  O3S SGN d 302       3.512   3.269  58.570  0.00  0.00    -0.296 OA
ATOM     43  C6  SGN d 302       4.821   1.179  52.258  0.00  0.00     0.067 C 
ATOM     44  O6S SGN d 302       4.909  -1.815  52.036  0.00  0.00    -0.572 OA
ATOM     45  O5S SGN d 302       7.106  -1.104  51.385  0.00  0.00    -0.572 OA
ATOM     46  O2S SGN d 302       5.803   3.945  58.517  0.00  0.00    -0.296 OA
ATOM     47  O6  SGN d 302       5.748   0.401  53.006  0.00  0.00    -0.254 OA
ATOM     48  O4  SGN d 302       6.263   3.760  52.402  0.00  0.00    -0.348 OA
ATOM     49  O3  SGN d 302       6.635   4.849  54.841  0.00  0.00    -0.391 OA
ATOM     50  N   SGN d 302       4.274   4.599  56.531  0.00  0.00    -0.210 NA
ATOM     51  S2  SGN d 302       6.148  -1.211  52.453  0.00  0.00     0.251 S 
ATOM     52  C1  SGN d 302       3.670   2.670  55.344  0.00  0.00     0.150 C 
ATOM     53  O5  SGN d 302       4.036   1.754  54.337  0.00  0.00    -0.349 OA
ATOM     54  H   SGN d 302       6.459   2.393  53.949  0.00  0.00     0.091 H 
ATOM     55  H   SGN d 302       3.810   3.007  52.685  0.00  0.00     0.090 H 
ATOM     56  H   SGN d 302       5.588   2.986  56.228  0.00  0.00     0.076 H 
ATOM     57  H   SGN d 302       4.738   4.901  54.112  0.00  0.00     0.089 H 
ATOM     58  H   SGN d 302       4.878   6.223  58.692  0.00  0.00     0.231 HD
ATOM     59  H   SGN d 302       2.612   3.575  58.375  0.00  0.00     0.231 HD
ATOM     60  H   SGN d 302       5.263   1.521  51.345  0.00  0.00     0.080 H 
ATOM     61  H   SGN d 302       3.951   0.623  51.978  0.00  0.00     0.080 H 
ATOM     62  H   SGN d 302       6.393   4.681  58.292  0.00  0.00     0.231 HD
ATOM     63  H   SGN d 302       7.264   4.208  55.207  0.00  0.00     0.210 HD
ATOM     64  H   SGN d 302       3.279   4.675  56.319  0.00  0.00     0.140 HD
ATOM     65  H   SGN d 302       3.407   2.122  56.225  0.00  0.00     0.131 H 
ATOM     66  O61 IDS d 303       1.293   0.632  53.695  0.00  0.00    -0.646 OA
ATOM     67  O5  IDS d 303       0.248   4.014  53.664  0.00  0.00    -0.340 OA
ATOM     68  S   IDS d 303       1.626   7.378  56.099  0.00  0.00     0.252 S 
ATOM     69  C1  IDS d 303      -0.377   5.001  54.495  0.00  0.00     0.161 C 
ATOM     70  C5  IDS d 303       0.369   2.714  54.270  0.00  0.00     0.152 C 
ATOM     71  C6  IDS d 303       0.983   1.762  53.279  0.00  0.00     0.206 C 
ATOM     72  O3  IDS d 303      -0.471   3.178  57.030  0.00  0.00    -0.390 OA
ATOM     73  O2S IDS d 303       1.410   7.463  57.526  0.00  0.00    -0.572 OA
ATOM     74  O62 IDS d 303       1.333   2.214  52.177  0.00  0.00    -0.646 OA
ATOM     75  O1S IDS d 303       2.905   7.923  55.745  0.00  0.00    -0.572 OA
ATOM     76  O2  IDS d 303       1.610   5.737  55.597  0.00  0.00    -0.244 OA
ATOM     77  C4  IDS d 303       1.311   2.825  55.454  0.00  0.00     0.103 C 
ATOM     78  C2  IDS d 303       0.404   5.091  55.813  0.00  0.00     0.134 C 
ATOM     79  C3  IDS d 303       0.688   3.748  56.490  0.00  0.00     0.094 C 
ATOM     80  O3S IDS d 303       0.546   8.062  55.516  0.00  0.00    -0.572 OA
ATOM     81  H   IDS d 303      -0.320   5.944  53.990  0.00  0.00     0.133 H 
ATOM     82  H   IDS d 303      -0.595   2.363  54.575  0.00  0.00     0.104 H 
ATOM     83  H   IDS d 303      -0.249   2.331  57.448  0.00  0.00     0.210 HD
ATOM     84  H   IDS d 303       1.494   1.872  55.904  0.00  0.00     0.092 H 
ATOM     85  H   IDS d 303      -0.232   5.636  56.478  0.00  0.00     0.097 H 
ATOM     86  H   IDS d 303       1.359   3.900  57.309  0.00  0.00     0.091 H 
ATOM     87  O1S UAP d 301       7.629   1.937  48.024  0.00  0.00    -0.572 OA
ATOM     88  O61 UAP d 301      10.348   6.496  53.097  0.00  0.00    -0.642 OA
ATOM     89  C1  UAP d 301       7.431   3.235  51.807  0.00  0.00     0.167 C 
ATOM     90  O62 UAP d 301      10.551   4.536  53.999  0.00  0.00    -0.642 OA
ATOM     91  O3S UAP d 301       8.083   4.127  47.460  0.00  0.00    -0.572 OA
ATOM     92  C6  UAP d 301       9.994   5.322  53.227  0.00  0.00     0.233 C 
ATOM     93  O3  UAP d 301       6.398   6.048  50.833  0.00  0.00    -0.389 OA
ATOM     94  C3  UAP d 301       7.613   5.399  50.560  0.00  0.00     0.086 C 
ATOM     95  S   UAP d 301       8.573   2.988  48.185  0.00  0.00     0.252 S 
ATOM     96  O2  UAP d 301       8.647   3.380  49.875  0.00  0.00    -0.244 OA
ATOM     97  C5  UAP d 301       9.020   4.892  52.450  0.00  0.00     0.147 C 
ATOM     98  O2S UAP d 301       9.895   2.579  47.774  0.00  0.00    -0.572 OA
ATOM     99  C2  UAP d 301       7.473   3.877  50.452  0.00  0.00     0.135 C 
ATOM    100  C4  UAP d 301       8.556   5.768  51.568  0.00  0.00    -0.034 C 
ATOM    101  O5  UAP d 301       8.625   3.598  52.509  0.00  0.00    -0.311 OA
ATOM    102  H   UAP d 301       7.395   2.166  51.798  0.00  0.00     0.134 H 
ATOM    103  H   UAP d 301       5.744   5.809  50.158  0.00  0.00     0.210 HD
ATOM    104  H   UAP d 301       7.956   5.715  49.598  0.00  0.00     0.093 H 
ATOM    105  H   UAP d 301       6.582   3.669  49.897  0.00  0.00     0.097 H 
ATOM    106  H   UAP d 301       8.885   6.744  51.612  0.00  0.00     0.085 H 
ENDROOT
TORSDOF 33
ENDMDL
MODEL 33
REMARK VINA RESULT:      -6.1      2.772     10.738
REMARK  0 active torsions:
REMARK  status: ('A' for Active; 'I' for Inactive)
REMARK       I    between atoms: C4_1  and  O4_32 
REMARK       I    between atoms: C2_2  and  N_17 
REMARK       I    between atoms: C4_3  and  O4_45 
REMARK       I    between atoms: C5_5  and  C6_20 
REMARK       I    between atoms: C5_7  and  C6_42 
REMARK       I    between atoms: C2_8  and  N_48 
REMARK       I    between atoms: O1_9  and  C1_58 
REMARK       I    between atoms: O1_9  and  C4_62 
REMARK       I    between atoms: C3_11  and  O3_46 
REMARK       I    between atoms: O1S_13  and  S1_14 
REMARK       I    between atoms: S1_14  and  N_48 
REMARK       I    between atoms: S1_14  and  O2S_39 
REMARK       I    between atoms: S1_14  and  O3S_16 
REMARK       I    between atoms: N_17  and  S1_64 
REMARK       I    between atoms: C1_18  and  O4_45 
REMARK       I    between atoms: C6_20  and  O6_41 
REMARK       I    between atoms: O1S_22  and  S1_64 
REMARK       I    between atoms: O3S_25  and  S1_64 
REMARK       I    between atoms: O1_26  and  C1_61 
REMARK       I    between atoms: S_27  and  O2_57 
REMARK       I    between atoms: O6_29  and  C6_42 
REMARK       I    between atoms: O6_29  and  S2_68 
REMARK       I    between atoms: C6_30  and  C5_54 
REMARK       I    between atoms: C1_31  and  O4_32 
REMARK       I    between atoms: C5_35  and  C6_36 
REMARK       I    between atoms: O3_37  and  C3_38 
REMARK       I    between atoms: C3_40  and  O3_44 
REMARK       I    between atoms: O6_41  and  S2_52 
REMARK       I    between atoms: S_43  and  O2_53 
REMARK       I    between atoms: O3_47  and  C3_69 
REMARK       I    between atoms: O2S_49  and  S1_64 
REMARK       I    between atoms: O2_53  and  C2_59 
REMARK       I    between atoms: O2_57  and  C2_65 
ROOT
ATOM      1  C4  SGN d 304       7.641   1.549  50.463  0.00  0.00     0.095 C 
ATOM      2  C2  SGN d 304       9.079   3.622  50.265  0.00  0.00     0.081 C 
ATOM      3  O5S SGN d 304       4.156   2.812  47.500  0.00  0.00    -0.572 OA
ATOM      4  C5  SGN d 304       8.035   1.254  49.007  0.00  0.00     0.091 C 
ATOM      5  N   SGN d 304      10.310   4.204  50.795  0.00  0.00    -0.210 NA
ATOM      6  O4S SGN d 304       3.780   0.485  47.692  0.00  0.00    -0.572 OA
ATOM      7  O1S SGN d 304      10.541   6.729  50.136  0.00  0.00    -0.296 OA
ATOM      8  O3S SGN d 304       9.147   6.299  51.950  0.00  0.00    -0.296 OA
ATOM      9  O1  SGN d 304      10.564   2.826  48.418  0.00  0.00    -0.369 OA
ATOM     10  O6  SGN d 304       6.238   1.179  47.472  0.00  0.00    -0.254 OA
ATOM     11  O4  SGN d 304       7.495   0.327  51.237  0.00  0.00    -0.348 OA
ATOM     12  O5  SGN d 304       8.192   2.494  48.283  0.00  0.00    -0.350 OA
ATOM     13  C3  SGN d 304       8.813   2.346  51.050  0.00  0.00     0.083 C 
ATOM     14  C6  SGN d 304       7.074   0.349  48.271  0.00  0.00     0.067 C 
ATOM     15  O3  SGN d 304       8.507   2.704  52.365  0.00  0.00    -0.391 OA
ATOM     16  O2S SGN d 304      11.463   6.118  52.200  0.00  0.00    -0.296 OA
ATOM     17  C1  SGN d 304       9.263   3.317  48.768  0.00  0.00     0.147 C 
ATOM     18  S1  SGN d 304      10.368   5.917  51.298  0.00  0.00     0.156 S 
ATOM     19  O6S SGN d 304       4.669   1.732  49.518  0.00  0.00    -0.572 OA
ATOM     20  S2  SGN d 304       4.628   1.581  48.083  0.00  0.00     0.251 S 
ATOM     21  H   SGN d 304       6.707   2.069  50.496  0.00  0.00     0.091 H 
ATOM     22  H   SGN d 304       8.251   4.292  50.364  0.00  0.00     0.076 H 
ATOM     23  H   SGN d 304       8.961   0.720  49.056  0.00  0.00     0.090 H 
ATOM     24  H   SGN d 304      11.021   4.089  50.073  0.00  0.00     0.140 HD
ATOM     25  H   SGN d 304       9.797   6.589  49.529  0.00  0.00     0.231 HD
ATOM     26  H   SGN d 304       8.401   6.166  51.343  0.00  0.00     0.231 HD
ATOM     27  H   SGN d 304      11.241   3.422  48.773  0.00  0.00     0.212 HD
ATOM     28  H   SGN d 304       9.684   1.727  51.005  0.00  0.00     0.089 H 
ATOM     29  H   SGN d 304       6.481  -0.202  48.970  0.00  0.00     0.080 H 
ATOM     30  H   SGN d 304       7.606  -0.351  47.661  0.00  0.00     0.080 H 
ATOM     31  H   SGN d 304       7.714   3.264  52.372  0.00  0.00     0.210 HD
ATOM     32  H   SGN d 304      12.291   5.861  51.767  0.00  0.00     0.231 HD
ATOM     33  H   SGN d 304       9.209   4.256  48.258  0.00  0.00     0.131 H 
ATOM     34  C4  SGN d 302       0.460  -1.154  54.376  0.00  0.00     0.095 C 
ATOM     35  C5  SGN d 302       1.401   0.029  54.554  0.00  0.00     0.091 C 
ATOM     36  C2  SGN d 302       2.333  -2.674  54.579  0.00  0.00     0.081 C 
ATOM     37  O1  SGN d 302       3.955  -1.042  53.802  0.00  0.00    -0.348 OA
ATOM     38  C3  SGN d 302       1.185  -2.288  53.704  0.00  0.00     0.083 C 
ATOM     39  O1S SGN d 302       4.388  -5.862  53.899  0.00  0.00    -0.296 OA
ATOM     40  S1  SGN d 302       3.883  -4.837  54.795  0.00  0.00     0.156 S 
ATOM     41  O4S SGN d 302      -0.166   0.870  59.088  0.00  0.00    -0.572 OA
ATOM     42  O3S SGN d 302       4.901  -4.186  55.590  0.00  0.00    -0.296 OA
ATOM     43  C6  SGN d 302       0.722   1.141  55.308  0.00  0.00     0.067 C 
ATOM     44  O6S SGN d 302       0.664   2.690  57.881  0.00  0.00    -0.572 OA
ATOM     45  O5S SGN d 302      -1.594   1.936  57.589  0.00  0.00    -0.572 OA
ATOM     46  O2S SGN d 302       2.860  -5.428  55.588  0.00  0.00    -0.296 OA
ATOM     47  O6  SGN d 302       0.324   0.539  56.535  0.00  0.00    -0.254 OA
ATOM     48  O4  SGN d 302      -0.568  -0.797  53.480  0.00  0.00    -0.348 OA
ATOM     49  O3  SGN d 302       0.274  -3.357  53.575  0.00  0.00    -0.391 OA
ATOM     50  N   SGN d 302       3.171  -3.555  53.825  0.00  0.00    -0.210 NA
ATOM     51  S2  SGN d 302      -0.229   1.561  57.845  0.00  0.00     0.251 S 
ATOM     52  C1  SGN d 302       3.188  -1.471  54.896  0.00  0.00     0.150 C 
ATOM     53  O5  SGN d 302       2.410  -0.412  55.406  0.00  0.00    -0.349 OA
ATOM     54  H   SGN d 302       0.089  -1.431  55.342  0.00  0.00     0.091 H 
ATOM     55  H   SGN d 302       1.732   0.371  53.596  0.00  0.00     0.090 H 
ATOM     56  H   SGN d 302       1.951  -3.111  55.478  0.00  0.00     0.076 H 
ATOM     57  H   SGN d 302       1.555  -2.019  52.736  0.00  0.00     0.089 H 
ATOM     58  H   SGN d 302       3.651  -6.250  53.403  0.00  0.00     0.231 HD
ATOM     59  H   SGN d 302       5.572  -3.801  55.003  0.00  0.00     0.231 HD
ATOM     60  H   SGN d 302      -0.129   1.501  54.769  0.00  0.00     0.080 H 
ATOM     61  H   SGN d 302       1.361   1.986  55.456  0.00  0.00     0.080 H 
ATOM     62  H   SGN d 302       2.205  -5.849  55.009  0.00  0.00     0.231 HD
ATOM     63  H   SGN d 302      -0.062  -3.601  54.451  0.00  0.00     0.210 HD
ATOM     64  H   SGN d 302       3.925  -3.008  53.408  0.00  0.00     0.140 HD
ATOM     65  H   SGN d 302       3.877  -1.783  55.653  0.00  0.00     0.131 H 
ATOM     66  O61 IDS d 303       4.518   1.769  55.408  0.00  0.00    -0.646 OA
ATOM     67  O5  IDS d 303       5.263   0.634  52.139  0.00  0.00    -0.340 OA
ATOM     68  S   IDS d 303       5.133  -3.421  50.499  0.00  0.00     0.252 S 
ATOM     69  C1  IDS d 303       6.174  -0.213  51.427  0.00  0.00     0.161 C 
ATOM     70  C5  IDS d 303       5.515   0.728  53.552  0.00  0.00     0.152 C 
ATOM     71  C6  IDS d 303       4.531   1.687  54.167  0.00  0.00     0.206 C 
ATOM     72  O3  IDS d 303       7.593  -1.276  54.000  0.00  0.00    -0.390 OA
ATOM     73  O2S IDS d 303       6.025  -4.475  50.925  0.00  0.00    -0.572 OA
ATOM     74  O62 IDS d 303       3.661   2.180  53.431  0.00  0.00    -0.646 OA
ATOM     75  O1S IDS d 303       3.824  -3.941  50.224  0.00  0.00    -0.572 OA
ATOM     76  O2  IDS d 303       4.968  -2.250  51.743  0.00  0.00    -0.244 OA
ATOM     77  C4  IDS d 303       5.281  -0.637  54.170  0.00  0.00     0.103 C 
ATOM     78  C2  IDS d 303       6.148  -1.605  52.074  0.00  0.00     0.134 C 
ATOM     79  C3  IDS d 303       6.296  -1.614  53.597  0.00  0.00     0.094 C 
ATOM     80  O3S IDS d 303       5.750  -2.838  49.379  0.00  0.00    -0.572 OA
ATOM     81  H   IDS d 303       5.834  -0.291  50.415  0.00  0.00     0.133 H 
ATOM     82  H   IDS d 303       6.517   1.062  53.722  0.00  0.00     0.104 H 
ATOM     83  H   IDS d 303       7.646  -1.293  54.968  0.00  0.00     0.210 HD
ATOM     84  H   IDS d 303       5.387  -0.612  55.235  0.00  0.00     0.092 H 
ATOM     85  H   IDS d 303       7.006  -2.110  51.684  0.00  0.00     0.097 H 
ATOM     86  H   IDS d 303       6.115  -2.603  53.963  0.00  0.00     0.091 H 
ATOM     87  O1S UAP d 301      -3.848   2.883  53.737  0.00  0.00    -0.572 OA
ATOM     88  O61 UAP d 301      -3.881  -4.344  52.438  0.00  0.00    -0.642 OA
ATOM     89  C1  UAP d 301      -1.853  -0.578  54.021  0.00  0.00     0.167 C 
ATOM     90  O62 UAP d 301      -3.526  -4.202  54.571  0.00  0.00    -0.642 OA
ATOM     91  O3S UAP d 301      -4.615   2.093  51.709  0.00  0.00    -0.572 OA
ATOM     92  C6  UAP d 301      -3.459  -3.741  53.428  0.00  0.00     0.233 C 
ATOM     93  O3  UAP d 301      -1.562  -0.719  50.888  0.00  0.00    -0.389 OA
ATOM     94  C3  UAP d 301      -2.723  -0.711  51.678  0.00  0.00     0.086 C 
ATOM     95  S   UAP d 301      -4.631   1.864  53.127  0.00  0.00     0.252 S 
ATOM     96  O2  UAP d 301      -3.873   0.339  53.464  0.00  0.00    -0.244 OA
ATOM     97  C5  UAP d 301      -2.983  -2.527  53.240  0.00  0.00     0.147 C 
ATOM     98  O2S UAP d 301      -5.964   1.821  53.680  0.00  0.00    -0.572 OA
ATOM     99  C2  UAP d 301      -2.590   0.150  52.937  0.00  0.00     0.135 C 
ATOM    100  C4  UAP d 301      -3.055  -2.063  52.000  0.00  0.00    -0.034 C 
ATOM    101  O5  UAP d 301      -2.555  -1.795  54.297  0.00  0.00    -0.311 OA
ATOM    102  H   UAP d 301      -1.781  -0.051  54.950  0.00  0.00     0.134 H 
ATOM    103  H   UAP d 301      -1.320   0.192  50.658  0.00  0.00     0.210 HD
ATOM    104  H   UAP d 301      -3.512  -0.259  51.115  0.00  0.00     0.093 H 
ATOM    105  H   UAP d 301      -2.084   1.053  52.664  0.00  0.00     0.097 H 
ATOM    106  H   UAP d 301      -3.362  -2.696  51.246  0.00  0.00     0.085 H 
ENDROOT
TORSDOF 33
ENDMDL
MODEL 34
REMARK VINA RESULT:      -6.1      3.376      7.191
REMARK  0 active torsions:
REMARK  status: ('A' for Active; 'I' for Inactive)
REMARK       I    between atoms: C4_1  and  O4_32 
REMARK       I    between atoms: C2_2  and  N_17 
REMARK       I    between atoms: C4_3  and  O4_45 
REMARK       I    between atoms: C5_5  and  C6_20 
REMARK       I    between atoms: C5_7  and  C6_42 
REMARK       I    between atoms: C2_8  and  N_48 
REMARK       I    between atoms: O1_9  and  C1_58 
REMARK       I    between atoms: O1_9  and  C4_62 
REMARK       I    between atoms: C3_11  and  O3_46 
REMARK       I    between atoms: O1S_13  and  S1_14 
REMARK       I    between atoms: S1_14  and  N_48 
REMARK       I    between atoms: S1_14  and  O2S_39 
REMARK       I    between atoms: S1_14  and  O3S_16 
REMARK       I    between atoms: N_17  and  S1_64 
REMARK       I    between atoms: C1_18  and  O4_45 
REMARK       I    between atoms: C6_20  and  O6_41 
REMARK       I    between atoms: O1S_22  and  S1_64 
REMARK       I    between atoms: O3S_25  and  S1_64 
REMARK       I    between atoms: O1_26  and  C1_61 
REMARK       I    between atoms: S_27  and  O2_57 
REMARK       I    between atoms: O6_29  and  C6_42 
REMARK       I    between atoms: O6_29  and  S2_68 
REMARK       I    between atoms: C6_30  and  C5_54 
REMARK       I    between atoms: C1_31  and  O4_32 
REMARK       I    between atoms: C5_35  and  C6_36 
REMARK       I    between atoms: O3_37  and  C3_38 
REMARK       I    between atoms: C3_40  and  O3_44 
REMARK       I    between atoms: O6_41  and  S2_52 
REMARK       I    between atoms: S_43  and  O2_53 
REMARK       I    between atoms: O3_47  and  C3_69 
REMARK       I    between atoms: O2S_49  and  S1_64 
REMARK       I    between atoms: O2_53  and  C2_59 
REMARK       I    between atoms: O2_57  and  C2_65 
ROOT
ATOM      1  C4  SGN d 304      -0.886   2.259  53.230  0.00  0.00     0.095 C 
ATOM      2  C2  SGN d 304      -2.218   3.592  54.919  0.00  0.00     0.081 C 
ATOM      3  O5S SGN d 304      -2.184  -2.102  54.579  0.00  0.00    -0.572 OA
ATOM      4  C5  SGN d 304      -2.238   1.880  52.606  0.00  0.00     0.091 C 
ATOM      5  N   SGN d 304      -2.460   4.970  55.342  0.00  0.00    -0.210 NA
ATOM      6  O4S SGN d 304      -1.269  -2.531  52.440  0.00  0.00    -0.572 OA
ATOM      7  O1S SGN d 304      -3.761   5.065  57.614  0.00  0.00    -0.296 OA
ATOM      8  O3S SGN d 304      -1.472   4.682  57.794  0.00  0.00    -0.296 OA
ATOM      9  O1  SGN d 304      -4.270   3.937  53.533  0.00  0.00    -0.369 OA
ATOM     10  O6  SGN d 304      -2.732  -0.433  52.600  0.00  0.00    -0.254 OA
ATOM     11  O4  SGN d 304       0.149   2.402  52.220  0.00  0.00    -0.348 OA
ATOM     12  O5  SGN d 304      -3.240   1.772  53.641  0.00  0.00    -0.350 OA
ATOM     13  C3  SGN d 304      -1.106   3.631  53.882  0.00  0.00     0.083 C 
ATOM     14  C6  SGN d 304      -2.214   0.612  51.784  0.00  0.00     0.067 C 
ATOM     15  O3  SGN d 304       0.070   4.024  54.524  0.00  0.00    -0.391 OA
ATOM     16  O2S SGN d 304      -2.249   6.810  57.222  0.00  0.00    -0.296 OA
ATOM     17  C1  SGN d 304      -3.509   3.009  54.319  0.00  0.00     0.147 C 
ATOM     18  S1  SGN d 304      -2.483   5.404  57.074  0.00  0.00     0.156 S 
ATOM     19  O6S SGN d 304      -0.411  -0.774  53.804  0.00  0.00    -0.572 OA
ATOM     20  S2  SGN d 304      -1.587  -1.511  53.406  0.00  0.00     0.251 S 
ATOM     21  H   SGN d 304      -0.570   1.503  53.917  0.00  0.00     0.091 H 
ATOM     22  H   SGN d 304      -1.930   2.972  55.742  0.00  0.00     0.076 H 
ATOM     23  H   SGN d 304      -2.478   2.668  51.923  0.00  0.00     0.090 H 
ATOM     24  H   SGN d 304      -3.370   5.234  54.963  0.00  0.00     0.140 HD
ATOM     25  H   SGN d 304      -3.913   4.112  57.511  0.00  0.00     0.231 HD
ATOM     26  H   SGN d 304      -1.625   3.729  57.698  0.00  0.00     0.231 HD
ATOM     27  H   SGN d 304      -4.418   4.748  54.043  0.00  0.00     0.212 HD
ATOM     28  H   SGN d 304      -1.381   4.318  53.109  0.00  0.00     0.089 H 
ATOM     29  H   SGN d 304      -1.210   0.385  51.492  0.00  0.00     0.080 H 
ATOM     30  H   SGN d 304      -2.800   0.726  50.896  0.00  0.00     0.080 H 
ATOM     31  H   SGN d 304       0.291   3.382  55.217  0.00  0.00     0.210 HD
ATOM     32  H   SGN d 304      -2.928   7.304  56.737  0.00  0.00     0.231 HD
ATOM     33  H   SGN d 304      -4.158   2.795  55.142  0.00  0.00     0.131 H 
ATOM     34  C4  SGN d 302       6.366  -2.358  52.705  0.00  0.00     0.095 C 
ATOM     35  C5  SGN d 302       5.801  -1.353  53.699  0.00  0.00     0.091 C 
ATOM     36  C2  SGN d 302       6.081  -0.751  50.917  0.00  0.00     0.081 C 
ATOM     37  O1  SGN d 302       4.279   0.427  52.040  0.00  0.00    -0.348 OA
ATOM     38  C3  SGN d 302       5.747  -2.142  51.350  0.00  0.00     0.083 C 
ATOM     39  O1S SGN d 302       5.373   0.453  47.325  0.00  0.00    -0.296 OA
ATOM     40  S1  SGN d 302       6.112   0.527  48.574  0.00  0.00     0.156 S 
ATOM     41  O4S SGN d 302      10.185  -0.475  55.631  0.00  0.00    -0.572 OA
ATOM     42  O3S SGN d 302       6.175   1.851  49.151  0.00  0.00    -0.296 OA
ATOM     43  C6  SGN d 302       6.475  -1.492  55.037  0.00  0.00     0.067 C 
ATOM     44  O6S SGN d 302       8.322  -0.179  57.009  0.00  0.00    -0.572 OA
ATOM     45  O5S SGN d 302       9.271  -2.354  56.660  0.00  0.00    -0.572 OA
ATOM     46  O2S SGN d 302       7.399  -0.035  48.343  0.00  0.00    -0.296 OA
ATOM     47  O6  SGN d 302       7.856  -1.301  54.755  0.00  0.00    -0.254 OA
ATOM     48  O4  SGN d 302       5.967  -3.656  53.084  0.00  0.00    -0.348 OA
ATOM     49  O3  SGN d 302       6.312  -3.088  50.470  0.00  0.00    -0.391 OA
ATOM     50  N   SGN d 302       5.278  -0.454  49.770  0.00  0.00    -0.210 NA
ATOM     51  S2  SGN d 302       8.973  -1.070  56.084  0.00  0.00     0.251 S 
ATOM     52  C1  SGN d 302       5.669   0.248  51.972  0.00  0.00     0.150 C 
ATOM     53  O5  SGN d 302       6.191  -0.099  53.234  0.00  0.00    -0.349 OA
ATOM     54  H   SGN d 302       7.430  -2.242  52.683  0.00  0.00     0.091 H 
ATOM     55  H   SGN d 302       4.745  -1.495  53.792  0.00  0.00     0.090 H 
ATOM     56  H   SGN d 302       7.133  -0.690  50.732  0.00  0.00     0.076 H 
ATOM     57  H   SGN d 302       4.684  -2.261  51.364  0.00  0.00     0.089 H 
ATOM     58  H   SGN d 302       5.375  -0.461  47.002  0.00  0.00     0.231 HD
ATOM     59  H   SGN d 302       5.275   2.188  49.287  0.00  0.00     0.231 HD
ATOM     60  H   SGN d 302       6.303  -2.464  55.450  0.00  0.00     0.080 H 
ATOM     61  H   SGN d 302       6.104  -0.793  55.757  0.00  0.00     0.080 H 
ATOM     62  H   SGN d 302       7.301  -0.920  47.956  0.00  0.00     0.231 HD
ATOM     63  H   SGN d 302       7.276  -2.981  50.457  0.00  0.00     0.210 HD
ATOM     64  H   SGN d 302       4.446   0.049  50.078  0.00  0.00     0.140 HD
ATOM     65  H   SGN d 302       6.088   1.187  51.675  0.00  0.00     0.131 H 
ATOM     66  O61 IDS d 303       4.702   1.924  54.935  0.00  0.00    -0.646 OA
ATOM     67  O5  IDS d 303       1.846   0.911  53.106  0.00  0.00    -0.340 OA
ATOM     68  S   IDS d 303       1.511  -0.326  48.922  0.00  0.00     0.252 S 
ATOM     69  C1  IDS d 303       1.039   1.295  51.985  0.00  0.00     0.161 C 
ATOM     70  C5  IDS d 303       2.924   1.817  53.404  0.00  0.00     0.152 C 
ATOM     71  C6  IDS d 303       3.652   1.333  54.630  0.00  0.00     0.206 C 
ATOM     72  O3  IDS d 303       2.878   3.681  51.155  0.00  0.00    -0.390 OA
ATOM     73  O2S IDS d 303       1.740   0.570  47.811  0.00  0.00    -0.572 OA
ATOM     74  O62 IDS d 303       3.287   0.260  55.138  0.00  0.00    -0.646 OA
ATOM     75  O1S IDS d 303       1.991  -1.644  48.621  0.00  0.00    -0.572 OA
ATOM     76  O2  IDS d 303       2.360   0.224  50.308  0.00  0.00    -0.244 OA
ATOM     77  C4  IDS d 303       3.900   1.796  52.244  0.00  0.00     0.103 C 
ATOM     78  C2  IDS d 303       1.954   1.467  50.765  0.00  0.00     0.134 C 
ATOM     79  C3  IDS d 303       3.197   2.326  51.004  0.00  0.00     0.094 C 
ATOM     80  O3S IDS d 303       0.128  -0.276  49.163  0.00  0.00    -0.572 OA
ATOM     81  H   IDS d 303       0.342   0.505  51.792  0.00  0.00     0.133 H 
ATOM     82  H   IDS d 303       2.537   2.802  53.566  0.00  0.00     0.104 H 
ATOM     83  H   IDS d 303       3.690   4.190  51.304  0.00  0.00     0.210 HD
ATOM     84  H   IDS d 303       4.760   2.401  52.441  0.00  0.00     0.092 H 
ATOM     85  H   IDS d 303       1.361   1.987  50.043  0.00  0.00     0.097 H 
ATOM     86  H   IDS d 303       3.840   2.262  50.151  0.00  0.00     0.091 H 
ATOM     87  O1S UAP d 301       6.737  -6.093  57.307  0.00  0.00    -0.572 OA
ATOM     88  O61 UAP d 301       7.444  -7.345  50.106  0.00  0.00    -0.642 OA
ATOM     89  C1  UAP d 301       6.953  -4.501  53.638  0.00  0.00     0.167 C 
ATOM     90  O62 UAP d 301       9.080  -5.999  50.562  0.00  0.00    -0.642 OA
ATOM     91  O3S UAP d 301       5.538  -7.802  56.325  0.00  0.00    -0.572 OA
ATOM     92  C6  UAP d 301       7.954  -6.451  50.786  0.00  0.00     0.233 C 
ATOM     93  O3  UAP d 301       4.168  -5.763  52.879  0.00  0.00    -0.389 OA
ATOM     94  C3  UAP d 301       5.364  -6.396  53.252  0.00  0.00     0.086 C 
ATOM     95  S   UAP d 301       6.820  -7.153  56.364  0.00  0.00     0.252 S 
ATOM     96  O2  UAP d 301       7.150  -6.457  54.808  0.00  0.00    -0.244 OA
ATOM     97  C5  UAP d 301       7.276  -6.024  51.833  0.00  0.00     0.147 C 
ATOM     98  O2S UAP d 301       7.902  -8.056  56.677  0.00  0.00    -0.572 OA
ATOM     99  C2  UAP d 301       6.171  -5.604  54.285  0.00  0.00     0.135 C 
ATOM    100  C4  UAP d 301       6.128  -6.644  52.070  0.00  0.00    -0.034 C 
ATOM    101  O5  UAP d 301       7.809  -5.083  52.649  0.00  0.00    -0.311 OA
ATOM    102  H   UAP d 301       7.586  -3.949  54.301  0.00  0.00     0.134 H 
ATOM    103  H   UAP d 301       3.635  -5.586  53.670  0.00  0.00     0.210 HD
ATOM    104  H   UAP d 301       5.122  -7.318  53.736  0.00  0.00     0.093 H 
ATOM    105  H   UAP d 301       5.484  -5.219  55.010  0.00  0.00     0.097 H 
ATOM    106  H   UAP d 301       5.776  -7.326  51.381  0.00  0.00     0.085 H 
ENDROOT
TORSDOF 33
ENDMDL
MODEL 35
REMARK VINA RESULT:      -6.1      2.899      3.680
REMARK  0 active torsions:
REMARK  status: ('A' for Active; 'I' for Inactive)
REMARK       I    between atoms: C4_1  and  O4_32 
REMARK       I    between atoms: C2_2  and  N_17 
REMARK       I    between atoms: C4_3  and  O4_45 
REMARK       I    between atoms: C5_5  and  C6_20 
REMARK       I    between atoms: C5_7  and  C6_42 
REMARK       I    between atoms: C2_8  and  N_48 
REMARK       I    between atoms: O1_9  and  C1_58 
REMARK       I    between atoms: O1_9  and  C4_62 
REMARK       I    between atoms: C3_11  and  O3_46 
REMARK       I    between atoms: O1S_13  and  S1_14 
REMARK       I    between atoms: S1_14  and  N_48 
REMARK       I    between atoms: S1_14  and  O2S_39 
REMARK       I    between atoms: S1_14  and  O3S_16 
REMARK       I    between atoms: N_17  and  S1_64 
REMARK       I    between atoms: C1_18  and  O4_45 
REMARK       I    between atoms: C6_20  and  O6_41 
REMARK       I    between atoms: O1S_22  and  S1_64 
REMARK       I    between atoms: O3S_25  and  S1_64 
REMARK       I    between atoms: O1_26  and  C1_61 
REMARK       I    between atoms: S_27  and  O2_57 
REMARK       I    between atoms: O6_29  and  C6_42 
REMARK       I    between atoms: O6_29  and  S2_68 
REMARK       I    between atoms: C6_30  and  C5_54 
REMARK       I    between atoms: C1_31  and  O4_32 
REMARK       I    between atoms: C5_35  and  C6_36 
REMARK       I    between atoms: O3_37  and  C3_38 
REMARK       I    between atoms: C3_40  and  O3_44 
REMARK       I    between atoms: O6_41  and  S2_52 
REMARK       I    between atoms: S_43  and  O2_53 
REMARK       I    between atoms: O3_47  and  C3_69 
REMARK       I    between atoms: O2S_49  and  S1_64 
REMARK       I    between atoms: O2_53  and  C2_59 
REMARK       I    between atoms: O2_57  and  C2_65 
ROOT
ATOM      1  C4  SGN d 304      -2.553   2.241  55.526  0.00  0.00     0.095 C 
ATOM      2  C2  SGN d 304      -3.977   4.332  55.615  0.00  0.00     0.081 C 
ATOM      3  O5S SGN d 304       1.056   3.719  58.231  0.00  0.00    -0.572 OA
ATOM      4  C5  SGN d 304      -2.887   2.066  57.016  0.00  0.00     0.091 C 
ATOM      5  N   SGN d 304      -5.227   4.877  55.092  0.00  0.00    -0.210 NA
ATOM      6  O4S SGN d 304       1.417   1.381  58.212  0.00  0.00    -0.572 OA
ATOM      7  O1S SGN d 304      -5.425   7.448  55.554  0.00  0.00    -0.296 OA
ATOM      8  O3S SGN d 304      -4.108   6.865  53.724  0.00  0.00    -0.296 OA
ATOM      9  O1  SGN d 304      -5.386   3.696  57.580  0.00  0.00    -0.369 OA
ATOM     10  O6  SGN d 304      -1.028   2.105  58.476  0.00  0.00    -0.254 OA
ATOM     11  O4  SGN d 304      -2.443   0.961  54.848  0.00  0.00    -0.348 OA
ATOM     12  O5  SGN d 304      -3.010   3.362  57.644  0.00  0.00    -0.350 OA
ATOM     13  C3  SGN d 304      -3.747   2.995  54.925  0.00  0.00     0.083 C 
ATOM     14  C6  SGN d 304      -1.899   1.219  57.782  0.00  0.00     0.067 C 
ATOM     15  O3  SGN d 304      -3.495   3.245  53.574  0.00  0.00    -0.391 OA
ATOM     16  O2S SGN d 304      -6.433   6.677  53.585  0.00  0.00    -0.296 OA
ATOM     17  C1  SGN d 304      -4.099   4.150  57.138  0.00  0.00     0.147 C 
ATOM     18  S1  SGN d 304      -5.302   6.544  54.455  0.00  0.00     0.156 S 
ATOM     19  O6S SGN d 304       0.455   2.483  56.329  0.00  0.00    -0.572 OA
ATOM     20  S2  SGN d 304       0.556   2.447  57.769  0.00  0.00     0.251 S 
ATOM     21  H   SGN d 304      -1.621   2.752  55.413  0.00  0.00     0.091 H 
ATOM     22  H   SGN d 304      -3.152   4.987  55.428  0.00  0.00     0.076 H 
ATOM     23  H   SGN d 304      -3.815   1.536  57.048  0.00  0.00     0.090 H 
ATOM     24  H   SGN d 304      -5.908   4.824  55.849  0.00  0.00     0.140 HD
ATOM     25  H   SGN d 304      -4.656   7.352  56.138  0.00  0.00     0.231 HD
ATOM     26  H   SGN d 304      -3.338   6.777  54.308  0.00  0.00     0.231 HD
ATOM     27  H   SGN d 304      -6.075   4.266  57.206  0.00  0.00     0.212 HD
ATOM     28  H   SGN d 304      -4.617   2.387  55.057  0.00  0.00     0.089 H 
ATOM     29  H   SGN d 304      -1.337   0.609  57.106  0.00  0.00     0.080 H 
ATOM     30  H   SGN d 304      -2.406   0.572  58.468  0.00  0.00     0.080 H 
ATOM     31  H   SGN d 304      -2.702   3.798  53.490  0.00  0.00     0.210 HD
ATOM     32  H   SGN d 304      -7.243   6.461  54.072  0.00  0.00     0.231 HD
ATOM     33  H   SGN d 304      -4.022   5.126  57.568  0.00  0.00     0.131 H 
ATOM     34  C4  SGN d 302       4.452  -0.810  51.550  0.00  0.00     0.095 C 
ATOM     35  C5  SGN d 302       3.507   0.361  51.317  0.00  0.00     0.091 C 
ATOM     36  C2  SGN d 302       2.568  -2.330  51.548  0.00  0.00     0.081 C 
ATOM     37  O1  SGN d 302       0.984  -0.632  52.258  0.00  0.00    -0.348 OA
ATOM     38  C3  SGN d 302       3.752  -1.882  52.341  0.00  0.00     0.083 C 
ATOM     39  O1S SGN d 302       0.535  -5.441  52.568  0.00  0.00    -0.296 OA
ATOM     40  S1  SGN d 302       1.005  -4.494  51.572  0.00  0.00     0.156 S 
ATOM     41  O4S SGN d 302       4.886   0.825  46.668  0.00  0.00    -0.572 OA
ATOM     42  O3S SGN d 302      -0.044  -3.903  50.770  0.00  0.00    -0.296 OA
ATOM     43  C6  SGN d 302       4.157   1.404  50.447  0.00  0.00     0.067 C 
ATOM     44  O6S SGN d 302       4.111   2.741  47.758  0.00  0.00    -0.572 OA
ATOM     45  O5S SGN d 302       6.377   1.999  48.016  0.00  0.00    -0.572 OA
ATOM     46  O2S SGN d 302       1.993  -5.153  50.787  0.00  0.00    -0.296 OA
ATOM     47  O6  SGN d 302       4.502   0.703  49.258  0.00  0.00    -0.254 OA
ATOM     48  O4  SGN d 302       5.516  -0.388  52.371  0.00  0.00    -0.348 OA
ATOM     49  O3  SGN d 302       4.665  -2.942  52.518  0.00  0.00    -0.391 OA
ATOM     50  N   SGN d 302       1.760  -3.143  52.405  0.00  0.00    -0.210 NA
ATOM     51  S2  SGN d 302       5.002   1.613  47.848  0.00  0.00     0.251 S 
ATOM     52  C1  SGN d 302       1.703  -1.152  51.170  0.00  0.00     0.150 C 
ATOM     53  O5  SGN d 302       2.462  -0.142  50.545  0.00  0.00    -0.349 OA
ATOM     54  H   SGN d 302       4.781  -1.166  50.596  0.00  0.00     0.091 H 
ATOM     55  H   SGN d 302       3.217   0.781  52.257  0.00  0.00     0.090 H 
ATOM     56  H   SGN d 302       2.911  -2.840  50.672  0.00  0.00     0.076 H 
ATOM     57  H   SGN d 302       3.424  -1.534  53.298  0.00  0.00     0.089 H 
ATOM     58  H   SGN d 302       1.291  -5.792  53.062  0.00  0.00     0.231 HD
ATOM     59  H   SGN d 302      -0.689  -3.469  51.351  0.00  0.00     0.231 HD
ATOM     60  H   SGN d 302       5.030   1.802  50.920  0.00  0.00     0.080 H 
ATOM     61  H   SGN d 302       3.514   2.239  50.259  0.00  0.00     0.080 H 
ATOM     62  H   SGN d 302       2.670  -5.530  51.370  0.00  0.00     0.231 HD
ATOM     63  H   SGN d 302       4.964  -3.258  51.651  0.00  0.00     0.210 HD
ATOM     64  H   SGN d 302       1.026  -2.560  52.807  0.00  0.00     0.140 HD
ATOM     65  H   SGN d 302       0.983  -1.520  50.470  0.00  0.00     0.131 H 
ATOM     66  O61 IDS d 303       0.361   2.044  50.455  0.00  0.00    -0.646 OA
ATOM     67  O5  IDS d 303      -0.250   1.181  53.833  0.00  0.00    -0.340 OA
ATOM     68  S   IDS d 303      -0.061  -2.730  55.787  0.00  0.00     0.252 S 
ATOM     69  C1  IDS d 303      -1.133   0.398  54.647  0.00  0.00     0.161 C 
ATOM     70  C5  IDS d 303      -0.560   1.162  52.428  0.00  0.00     0.152 C 
ATOM     71  C6  IDS d 303       0.399   2.063  51.697  0.00  0.00     0.206 C 
ATOM     72  O3  IDS d 303      -2.660  -0.860  52.230  0.00  0.00    -0.390 OA
ATOM     73  O2S IDS d 303      -0.973  -3.810  55.485  0.00  0.00    -0.572 OA
ATOM     74  O62 IDS d 303       1.301   2.608  52.354  0.00  0.00    -0.646 OA
ATOM     75  O1S IDS d 303       1.256  -3.234  56.049  0.00  0.00    -0.572 OA
ATOM     76  O2  IDS d 303       0.055  -1.664  54.447  0.00  0.00    -0.244 OA
ATOM     77  C4  IDS d 303      -0.356  -0.250  51.913  0.00  0.00     0.103 C 
ATOM     78  C2  IDS d 303      -1.137  -1.041  54.115  0.00  0.00     0.134 C 
ATOM     79  C3  IDS d 303      -1.348  -1.172  52.605  0.00  0.00     0.094 C 
ATOM     80  O3S IDS d 303      -0.630  -2.055  56.881  0.00  0.00    -0.572 OA
ATOM     81  H   IDS d 303      -0.751   0.401  55.648  0.00  0.00     0.133 H 
ATOM     82  H   IDS d 303      -1.568   1.487  52.273  0.00  0.00     0.104 H 
ATOM     83  H   IDS d 303      -2.753  -0.954  51.269  0.00  0.00     0.210 HD
ATOM     84  H   IDS d 303      -0.505  -0.310  50.855  0.00  0.00     0.092 H 
ATOM     85  H   IDS d 303      -1.979  -1.508  54.579  0.00  0.00     0.097 H 
ATOM     86  H   IDS d 303      -1.185  -2.188  52.312  0.00  0.00     0.091 H 
ATOM     87  O1S UAP d 301       8.792   3.240  51.683  0.00  0.00    -0.572 OA
ATOM     88  O61 UAP d 301       8.862  -3.859  53.559  0.00  0.00    -0.642 OA
ATOM     89  C1  UAP d 301       6.778  -0.221  51.762  0.00  0.00     0.167 C 
ATOM     90  O62 UAP d 301       8.418  -3.887  51.438  0.00  0.00    -0.642 OA
ATOM     91  O3S UAP d 301       9.642   2.612  53.734  0.00  0.00    -0.572 OA
ATOM     92  C6  UAP d 301       8.400  -3.335  52.542  0.00  0.00     0.233 C 
ATOM     93  O3  UAP d 301       6.618  -0.107  54.906  0.00  0.00    -0.389 OA
ATOM     94  C3  UAP d 301       7.745  -0.169  54.070  0.00  0.00     0.086 C 
ATOM     95  S   UAP d 301       9.597   2.269  52.340  0.00  0.00     0.252 S 
ATOM     96  O2  UAP d 301       8.822   0.726  52.159  0.00  0.00    -0.244 OA
ATOM     97  C5  UAP d 301       7.935  -2.107  52.650  0.00  0.00     0.147 C 
ATOM     98  O2S UAP d 301      10.906   2.174  51.738  0.00  0.00    -0.572 OA
ATOM     99  C2  UAP d 301       7.562   0.588  52.752  0.00  0.00     0.135 C 
ATOM    100  C4  UAP d 301       8.061  -1.545  53.845  0.00  0.00    -0.034 C 
ATOM    101  O5  UAP d 301       7.466  -1.460  51.556  0.00  0.00    -0.311 OA
ATOM    102  H   UAP d 301       6.669   0.230  50.798  0.00  0.00     0.134 H 
ATOM    103  H   UAP d 301       6.388   0.821  55.071  0.00  0.00     0.210 HD
ATOM    104  H   UAP d 301       8.558   0.321  54.562  0.00  0.00     0.093 H 
ATOM    105  H   UAP d 301       7.070   1.513  52.972  0.00  0.00     0.097 H 
ATOM    106  H   UAP d 301       8.396  -2.117  54.634  0.00  0.00     0.085 H 
ENDROOT
TORSDOF 33
ENDMDL
MODEL 36
REMARK VINA RESULT:      -6.0      2.807      3.626
REMARK  0 active torsions:
REMARK  status: ('A' for Active; 'I' for Inactive)
REMARK       I    between atoms: C4_1  and  O4_32 
REMARK       I    between atoms: C2_2  and  N_17 
REMARK       I    between atoms: C4_3  and  O4_45 
REMARK       I    between atoms: C5_5  and  C6_20 
REMARK       I    between atoms: C5_7  and  C6_42 
REMARK       I    between atoms: C2_8  and  N_48 
REMARK       I    between atoms: O1_9  and  C1_58 
REMARK       I    between atoms: O1_9  and  C4_62 
REMARK       I    between atoms: C3_11  and  O3_46 
REMARK       I    between atoms: O1S_13  and  S1_14 
REMARK       I    between atoms: S1_14  and  N_48 
REMARK       I    between atoms: S1_14  and  O2S_39 
REMARK       I    between atoms: S1_14  and  O3S_16 
REMARK       I    between atoms: N_17  and  S1_64 
REMARK       I    between atoms: C1_18  and  O4_45 
REMARK       I    between atoms: C6_20  and  O6_41 
REMARK       I    between atoms: O1S_22  and  S1_64 
REMARK       I    between atoms: O3S_25  and  S1_64 
REMARK       I    between atoms: O1_26  and  C1_61 
REMARK       I    between atoms: S_27  and  O2_57 
REMARK       I    between atoms: O6_29  and  C6_42 
REMARK       I    between atoms: O6_29  and  S2_68 
REMARK       I    between atoms: C6_30  and  C5_54 
REMARK       I    between atoms: C1_31  and  O4_32 
REMARK       I    between atoms: C5_35  and  C6_36 
REMARK       I    between atoms: O3_37  and  C3_38 
REMARK       I    between atoms: C3_40  and  O3_44 
REMARK       I    between atoms: O6_41  and  S2_52 
REMARK       I    between atoms: S_43  and  O2_53 
REMARK       I    between atoms: O3_47  and  C3_69 
REMARK       I    between atoms: O2S_49  and  S1_64 
REMARK       I    between atoms: O2_53  and  C2_59 
REMARK       I    between atoms: O2_57  and  C2_65 
ROOT
ATOM      1  C4  SGN d 304      -4.772   1.999  53.483  0.00  0.00     0.095 C 
ATOM      2  C2  SGN d 304      -5.997   4.125  52.864  0.00  0.00     0.081 C 
ATOM      3  O5S SGN d 304      -2.543   3.568  57.369  0.00  0.00    -0.572 OA
ATOM      4  C5  SGN d 304      -5.702   1.933  54.705  0.00  0.00     0.091 C 
ATOM      5  N   SGN d 304      -6.889   4.664  51.839  0.00  0.00    -0.210 NA
ATOM      6  O4S SGN d 304      -2.323   1.227  57.622  0.00  0.00    -0.572 OA
ATOM      7  O1S SGN d 304      -7.132   7.264  52.044  0.00  0.00    -0.296 OA
ATOM      8  O3S SGN d 304      -5.205   6.528  50.964  0.00  0.00    -0.296 OA
ATOM      9  O1  SGN d 304      -8.125   3.656  54.090  0.00  0.00    -0.369 OA
ATOM     10  O6  SGN d 304      -4.617   2.025  56.804  0.00  0.00    -0.254 OA
ATOM     11  O4  SGN d 304      -4.453   0.674  52.980  0.00  0.00    -0.348 OA
ATOM     12  O5  SGN d 304      -6.010   3.270  55.157  0.00  0.00    -0.350 OA
ATOM     13  C3  SGN d 304      -5.569   2.740  52.402  0.00  0.00     0.083 C 
ATOM     14  C6  SGN d 304      -5.165   1.115  55.856  0.00  0.00     0.067 C 
ATOM     15  O3  SGN d 304      -4.767   2.892  51.269  0.00  0.00    -0.391 OA
ATOM     16  O2S SGN d 304      -7.268   6.388  49.877  0.00  0.00    -0.296 OA
ATOM     17  C1  SGN d 304      -6.750   4.049  54.204  0.00  0.00     0.147 C 
ATOM     18  S1  SGN d 304      -6.609   6.286  51.145  0.00  0.00     0.156 S 
ATOM     19  O6S SGN d 304      -2.360   2.222  55.456  0.00  0.00    -0.572 OA
ATOM     20  S2  SGN d 304      -2.868   2.281  56.806  0.00  0.00     0.251 S 
ATOM     21  H   SGN d 304      -3.852   2.479  53.744  0.00  0.00     0.091 H 
ATOM     22  H   SGN d 304      -5.138   4.746  53.005  0.00  0.00     0.076 H 
ATOM     23  H   SGN d 304      -6.586   1.429  54.374  0.00  0.00     0.090 H 
ATOM     24  H   SGN d 304      -7.824   4.678  52.245  0.00  0.00     0.140 HD
ATOM     25  H   SGN d 304      -6.681   7.189  52.900  0.00  0.00     0.231 HD
ATOM     26  H   SGN d 304      -4.753   6.461  51.820  0.00  0.00     0.231 HD
ATOM     27  H   SGN d 304      -8.568   4.217  53.435  0.00  0.00     0.212 HD
ATOM     28  H   SGN d 304      -6.444   2.163  52.189  0.00  0.00     0.089 H 
ATOM     29  H   SGN d 304      -4.404   0.448  55.508  0.00  0.00     0.080 H 
ATOM     30  H   SGN d 304      -5.943   0.529  56.299  0.00  0.00     0.080 H 
ATOM     31  H   SGN d 304      -3.984   3.419  51.495  0.00  0.00     0.210 HD
ATOM     32  H   SGN d 304      -8.218   6.224  49.991  0.00  0.00     0.231 HD
ATOM     33  H   SGN d 304      -6.809   5.050  54.577  0.00  0.00     0.131 H 
ATOM     34  C4  SGN d 302       3.090  -1.480  52.956  0.00  0.00     0.095 C 
ATOM     35  C5  SGN d 302       2.387  -0.305  52.291  0.00  0.00     0.091 C 
ATOM     36  C2  SGN d 302       1.304  -2.951  52.245  0.00  0.00     0.081 C 
ATOM     37  O1  SGN d 302      -0.345  -1.171  52.142  0.00  0.00    -0.348 OA
ATOM     38  C3  SGN d 302       2.073  -2.479  53.437  0.00  0.00     0.083 C 
ATOM     39  O1S SGN d 302      -1.122  -5.937  52.481  0.00  0.00    -0.296 OA
ATOM     40  S1  SGN d 302      -0.234  -5.070  51.725  0.00  0.00     0.156 S 
ATOM     41  O4S SGN d 302       5.592  -0.188  48.625  0.00  0.00    -0.572 OA
ATOM     42  O3S SGN d 302      -0.825  -4.509  50.530  0.00  0.00    -0.296 OA
ATOM     43  C6  SGN d 302       3.390   0.661  51.720  0.00  0.00     0.067 C 
ATOM     44  O6S SGN d 302       4.532   1.815  49.192  0.00  0.00    -0.572 OA
ATOM     45  O5S SGN d 302       6.446   1.038  50.411  0.00  0.00    -0.572 OA
ATOM     46  O2S SGN d 302       0.956  -5.804  51.459  0.00  0.00    -0.296 OA
ATOM     47  O6  SGN d 302       4.162  -0.126  50.821  0.00  0.00    -0.254 OA
ATOM     48  O4  SGN d 302       3.737  -1.029  54.124  0.00  0.00    -0.348 OA
ATOM     49  O3  SGN d 302       2.776  -3.546  54.032  0.00  0.00    -0.391 OA
ATOM     50  N   SGN d 302       0.173  -3.685  52.727  0.00  0.00    -0.210 NA
ATOM     51  S2  SGN d 302       5.247   0.675  49.704  0.00  0.00     0.251 S 
ATOM     52  C1  SGN d 302       0.734  -1.780  51.482  0.00  0.00     0.150 C 
ATOM     53  O5  SGN d 302       1.733  -0.833  51.180  0.00  0.00    -0.349 OA
ATOM     54  H   SGN d 302       3.767  -1.907  52.246  0.00  0.00     0.091 H 
ATOM     55  H   SGN d 302       1.754   0.184  53.001  0.00  0.00     0.090 H 
ATOM     56  H   SGN d 302       1.953  -3.527  51.620  0.00  0.00     0.076 H 
ATOM     57  H   SGN d 302       1.394  -2.059  54.150  0.00  0.00     0.089 H 
ATOM     58  H   SGN d 302      -0.658  -6.272  53.263  0.00  0.00     0.231 HD
ATOM     59  H   SGN d 302      -1.630  -4.022  50.765  0.00  0.00     0.231 HD
ATOM     60  H   SGN d 302       4.007   1.069  52.493  0.00  0.00     0.080 H 
ATOM     61  H   SGN d 302       2.926   1.497  51.238  0.00  0.00     0.080 H 
ATOM     62  H   SGN d 302       1.310  -6.157  52.290  0.00  0.00     0.231 HD
ATOM     63  H   SGN d 302       3.391  -3.928  53.387  0.00  0.00     0.210 HD
ATOM     64  H   SGN d 302      -0.632  -3.059  52.756  0.00  0.00     0.140 HD
ATOM     65  H   SGN d 302       0.351  -2.177  50.565  0.00  0.00     0.131 H 
ATOM     66  O61 IDS d 303      -0.029   1.392  50.109  0.00  0.00    -0.646 OA
ATOM     67  O5  IDS d 303      -2.029   0.772  52.963  0.00  0.00    -0.340 OA
ATOM     68  S   IDS d 303      -2.864  -3.002  55.015  0.00  0.00     0.252 S 
ATOM     69  C1  IDS d 303      -3.209   0.068  53.374  0.00  0.00     0.161 C 
ATOM     70  C5  IDS d 303      -1.729   0.666  51.560  0.00  0.00     0.152 C 
ATOM     71  C6  IDS d 303      -0.509   1.493  51.251  0.00  0.00     0.206 C 
ATOM     72  O3  IDS d 303      -3.655  -1.312  50.606  0.00  0.00    -0.390 OA
ATOM     73  O2S IDS d 303      -3.621  -4.077  54.415  0.00  0.00    -0.572 OA
ATOM     74  O62 IDS d 303       0.064   2.059  52.196  0.00  0.00    -0.646 OA
ATOM     75  O1S IDS d 303      -1.802  -3.518  55.828  0.00  0.00    -0.572 OA
ATOM     76  O2  IDS d 303      -2.150  -2.032  53.793  0.00  0.00    -0.244 OA
ATOM     77  C4  IDS d 303      -1.400  -0.781  51.250  0.00  0.00     0.103 C 
ATOM     78  C2  IDS d 303      -3.063  -1.403  52.962  0.00  0.00     0.134 C 
ATOM     79  C3  IDS d 303      -2.634  -1.630  51.511  0.00  0.00     0.094 C 
ATOM     80  O3S IDS d 303      -3.802  -2.241  55.735  0.00  0.00    -0.572 OA
ATOM     81  H   IDS d 303      -3.277   0.128  54.440  0.00  0.00     0.133 H 
ATOM     82  H   IDS d 303      -2.563   1.005  50.982  0.00  0.00     0.104 H 
ATOM     83  H   IDS d 303      -3.345  -1.469  49.701  0.00  0.00     0.210 HD
ATOM     84  H   IDS d 303      -1.100  -0.909  50.231  0.00  0.00     0.092 H 
ATOM     85  H   IDS d 303      -4.044  -1.818  53.056  0.00  0.00     0.097 H 
ATOM     86  H   IDS d 303      -2.415  -2.667  51.365  0.00  0.00     0.091 H 
ATOM     87  O1S UAP d 301       7.179   2.465  54.682  0.00  0.00    -0.572 OA
ATOM     88  O61 UAP d 301       6.110  -4.492  56.775  0.00  0.00    -0.642 OA
ATOM     89  C1  UAP d 301       5.145  -0.934  54.089  0.00  0.00     0.167 C 
ATOM     90  O62 UAP d 301       6.586  -4.652  54.667  0.00  0.00    -0.642 OA
ATOM     91  O3S UAP d 301       7.068   1.955  56.930  0.00  0.00    -0.572 OA
ATOM     92  C6  UAP d 301       6.139  -4.027  55.633  0.00  0.00     0.233 C 
ATOM     93  O3  UAP d 301       3.700  -0.605  56.869  0.00  0.00    -0.389 OA
ATOM     94  C3  UAP d 301       5.067  -0.751  56.585  0.00  0.00     0.086 C 
ATOM     95  S   UAP d 301       7.590   1.521  55.664  0.00  0.00     0.252 S 
ATOM     96  O2  UAP d 301       6.884  -0.012  55.255  0.00  0.00    -0.244 OA
ATOM     97  C5  UAP d 301       5.733  -2.783  55.474  0.00  0.00     0.147 C 
ATOM     98  O2S UAP d 301       9.024   1.353  55.669  0.00  0.00    -0.572 OA
ATOM     99  C2  UAP d 301       5.486  -0.079  55.274  0.00  0.00     0.135 C 
ATOM    100  C4  UAP d 301       5.379  -2.145  56.582  0.00  0.00    -0.034 C 
ATOM    101  O5  UAP d 301       5.793  -2.201  54.253  0.00  0.00    -0.311 OA
ATOM    102  H   UAP d 301       5.468  -0.546  53.146  0.00  0.00     0.134 H 
ATOM    103  H   UAP d 301       3.469   0.337  56.876  0.00  0.00     0.210 HD
ATOM    104  H   UAP d 301       5.626  -0.248  57.345  0.00  0.00     0.093 H 
ATOM    105  H   UAP d 301       4.994   0.869  55.221  0.00  0.00     0.097 H 
ATOM    106  H   UAP d 301       5.327  -2.672  57.468  0.00  0.00     0.085 H 
ENDROOT
TORSDOF 33
ENDMDL
MODEL 37
REMARK VINA RESULT:      -6.0      3.649      7.901
REMARK  0 active torsions:
REMARK  status: ('A' for Active; 'I' for Inactive)
REMARK       I    between atoms: C4_1  and  O4_32 
REMARK       I    between atoms: C2_2  and  N_17 
REMARK       I    between atoms: C4_3  and  O4_45 
REMARK       I    between atoms: C5_5  and  C6_20 
REMARK       I    between atoms: C5_7  and  C6_42 
REMARK       I    between atoms: C2_8  and  N_48 
REMARK       I    between atoms: O1_9  and  C1_58 
REMARK       I    between atoms: O1_9  and  C4_62 
REMARK       I    between atoms: C3_11  and  O3_46 
REMARK       I    between atoms: O1S_13  and  S1_14 
REMARK       I    between atoms: S1_14  and  N_48 
REMARK       I    between atoms: S1_14  and  O2S_39 
REMARK       I    between atoms: S1_14  and  O3S_16 
REMARK       I    between atoms: N_17  and  S1_64 
REMARK       I    between atoms: C1_18  and  O4_45 
REMARK       I    between atoms: C6_20  and  O6_41 
REMARK       I    between atoms: O1S_22  and  S1_64 
REMARK       I    between atoms: O3S_25  and  S1_64 
REMARK       I    between atoms: O1_26  and  C1_61 
REMARK       I    between atoms: S_27  and  O2_57 
REMARK       I    between atoms: O6_29  and  C6_42 
REMARK       I    between atoms: O6_29  and  S2_68 
REMARK       I    between atoms: C6_30  and  C5_54 
REMARK       I    between atoms: C1_31  and  O4_32 
REMARK       I    between atoms: C5_35  and  C6_36 
REMARK       I    between atoms: O3_37  and  C3_38 
REMARK       I    between atoms: C3_40  and  O3_44 
REMARK       I    between atoms: O6_41  and  S2_52 
REMARK       I    between atoms: S_43  and  O2_53 
REMARK       I    between atoms: O3_47  and  C3_69 
REMARK       I    between atoms: O2S_49  and  S1_64 
REMARK       I    between atoms: O2_53  and  C2_59 
REMARK       I    between atoms: O2_57  and  C2_65 
ROOT
ATOM      1  C4  SGN d 304       0.317  -0.478  53.858  0.00  0.00     0.095 C 
ATOM      2  C2  SGN d 304      -1.156  -1.551  55.616  0.00  0.00     0.081 C 
ATOM      3  O5S SGN d 304       0.548  -4.109  50.810  0.00  0.00    -0.572 OA
ATOM      4  C5  SGN d 304      -0.920  -0.499  52.947  0.00  0.00     0.091 C 
ATOM      5  N   SGN d 304      -1.751  -1.273  56.920  0.00  0.00    -0.210 NA
ATOM      6  O4S SGN d 304       1.303  -2.320  49.459  0.00  0.00    -0.572 OA
ATOM      7  O1S SGN d 304      -2.757  -3.438  58.000  0.00  0.00    -0.296 OA
ATOM      8  O3S SGN d 304      -0.453  -3.191  58.228  0.00  0.00    -0.296 OA
ATOM      9  O1  SGN d 304      -3.358  -0.757  54.738  0.00  0.00    -0.369 OA
ATOM     10  O6  SGN d 304      -0.695  -1.777  50.970  0.00  0.00    -0.254 OA
ATOM     11  O4  SGN d 304       1.141   0.694  53.617  0.00  0.00    -0.348 OA
ATOM     12  O5  SGN d 304      -1.721  -1.666  53.237  0.00  0.00    -0.350 OA
ATOM     13  C3  SGN d 304      -0.230  -0.388  55.289  0.00  0.00     0.083 C 
ATOM     14  C6  SGN d 304      -0.609  -0.447  51.469  0.00  0.00     0.067 C 
ATOM     15  O3  SGN d 304       0.838  -0.420  56.188  0.00  0.00    -0.391 OA
ATOM     16  O2S SGN d 304      -1.892  -1.853  59.491  0.00  0.00    -0.296 OA
ATOM     17  C1  SGN d 304      -2.271  -1.677  54.564  0.00  0.00     0.147 C 
ATOM     18  S1  SGN d 304      -1.709  -2.494  58.223  0.00  0.00     0.156 S 
ATOM     19  O6S SGN d 304       1.741  -2.349  51.802  0.00  0.00    -0.572 OA
ATOM     20  S2  SGN d 304       0.804  -2.690  50.758  0.00  0.00     0.251 S 
ATOM     21  H   SGN d 304       0.921  -1.343  53.683  0.00  0.00     0.091 H 
ATOM     22  H   SGN d 304      -0.604  -2.467  55.621  0.00  0.00     0.076 H 
ATOM     23  H   SGN d 304      -1.460   0.398  53.165  0.00  0.00     0.090 H 
ATOM     24  H   SGN d 304      -2.735  -1.061  56.752  0.00  0.00     0.140 HD
ATOM     25  H   SGN d 304      -2.626  -3.868  57.140  0.00  0.00     0.231 HD
ATOM     26  H   SGN d 304      -0.323  -3.628  57.372  0.00  0.00     0.231 HD
ATOM     27  H   SGN d 304      -3.684  -0.812  55.649  0.00  0.00     0.212 HD
ATOM     28  H   SGN d 304      -0.784   0.525  55.369  0.00  0.00     0.089 H 
ATOM     29  H   SGN d 304       0.378  -0.062  51.317  0.00  0.00     0.080 H 
ATOM     30  H   SGN d 304      -1.298   0.194  50.960  0.00  0.00     0.080 H 
ATOM     31  H   SGN d 304       1.317  -1.258  56.091  0.00  0.00     0.210 HD
ATOM     32  H   SGN d 304      -2.738  -1.379  59.495  0.00  0.00     0.231 HD
ATOM     33  H   SGN d 304      -2.729  -2.631  54.718  0.00  0.00     0.131 H 
ATOM     34  C4  SGN d 302       8.513  -0.493  51.211  0.00  0.00     0.095 C 
ATOM     35  C5  SGN d 302       7.788  -0.958  52.467  0.00  0.00     0.091 C 
ATOM     36  C2  SGN d 302       7.560   1.716  51.478  0.00  0.00     0.081 C 
ATOM     37  O1  SGN d 302       5.625   0.914  52.707  0.00  0.00    -0.348 OA
ATOM     38  C3  SGN d 302       7.710   0.576  50.522  0.00  0.00     0.083 C 
ATOM     39  O1S SGN d 302       6.125   5.107  50.341  0.00  0.00    -0.296 OA
ATOM     40  S1  SGN d 302       6.943   4.301  51.230  0.00  0.00     0.156 S 
ATOM     41  O4S SGN d 302      11.894  -0.992  55.086  0.00  0.00    -0.572 OA
ATOM     42  O3S SGN d 302       6.670   4.503  52.636  0.00  0.00    -0.296 OA
ATOM     43  C6  SGN d 302       8.618  -1.961  53.221  0.00  0.00     0.067 C 
ATOM     44  O6S SGN d 302      10.195  -2.461  55.729  0.00  0.00    -0.572 OA
ATOM     45  O5S SGN d 302      11.708  -3.017  53.952  0.00  0.00    -0.572 OA
ATOM     46  O2S SGN d 302       8.305   4.541  50.894  0.00  0.00    -0.296 OA
ATOM     47  O6  SGN d 302       9.838  -1.278  53.486  0.00  0.00    -0.254 OA
ATOM     48  O4  SGN d 302       8.568  -1.558  50.289  0.00  0.00    -0.348 OA
ATOM     49  O3  SGN d 302       8.430   0.975  49.378  0.00  0.00    -0.391 OA
ATOM     50  N   SGN d 302       6.582   2.607  50.932  0.00  0.00    -0.210 NA
ATOM     51  S2  SGN d 302      10.975  -1.975  54.621  0.00  0.00     0.251 S 
ATOM     52  C1  SGN d 302       6.989   1.238  52.791  0.00  0.00     0.150 C 
ATOM     53  O5  SGN d 302       7.729   0.154  53.305  0.00  0.00    -0.349 OA
ATOM     54  H   SGN d 302       9.483  -0.144  51.499  0.00  0.00     0.091 H 
ATOM     55  H   SGN d 302       6.840  -1.377  52.200  0.00  0.00     0.090 H 
ATOM     56  H   SGN d 302       8.517   2.170  51.627  0.00  0.00     0.076 H 
ATOM     57  H   SGN d 302       6.740   0.232  50.229  0.00  0.00     0.089 H 
ATOM     58  H   SGN d 302       6.365   4.917  49.420  0.00  0.00     0.231 HD
ATOM     59  H   SGN d 302       5.732   4.327  52.812  0.00  0.00     0.231 HD
ATOM     60  H   SGN d 302       8.793  -2.833  52.626  0.00  0.00     0.080 H 
ATOM     61  H   SGN d 302       8.138  -2.302  54.114  0.00  0.00     0.080 H 
ATOM     62  H   SGN d 302       8.434   4.393  49.944  0.00  0.00     0.231 HD
ATOM     63  H   SGN d 302       9.310   1.287  49.642  0.00  0.00     0.210 HD
ATOM     64  H   SGN d 302       5.677   2.391  51.351  0.00  0.00     0.140 HD
ATOM     65  H   SGN d 302       7.071   2.060  53.470  0.00  0.00     0.131 H 
ATOM     66  O61 IDS d 303       5.903  -0.623  55.598  0.00  0.00    -0.646 OA
ATOM     67  O5  IDS d 303       3.296  -0.350  53.220  0.00  0.00    -0.340 OA
ATOM     68  S   IDS d 303       2.880   2.406  49.846  0.00  0.00     0.252 S 
ATOM     69  C1  IDS d 303       2.290   0.562  52.759  0.00  0.00     0.161 C 
ATOM     70  C5  IDS d 303       4.078   0.134  54.327  0.00  0.00     0.152 C 
ATOM     71  C6  IDS d 303       5.051  -0.935  54.749  0.00  0.00     0.206 C 
ATOM     72  O3  IDS d 303       3.222   2.915  54.593  0.00  0.00    -0.390 OA
ATOM     73  O2S IDS d 303       2.703   3.831  50.006  0.00  0.00    -0.572 OA
ATOM     74  O62 IDS d 303       5.084  -1.986  54.088  0.00  0.00    -0.646 OA
ATOM     75  O1S IDS d 303       3.696   2.119  48.702  0.00  0.00    -0.572 OA
ATOM     76  O2  IDS d 303       3.675   1.753  51.219  0.00  0.00    -0.244 OA
ATOM     77  C4  IDS d 303       4.879   1.333  53.859  0.00  0.00     0.103 C 
ATOM     78  C2  IDS d 303       2.968   1.892  52.402  0.00  0.00     0.134 C 
ATOM     79  C3  IDS d 303       3.915   2.443  53.470  0.00  0.00     0.094 C 
ATOM     80  O3S IDS d 303       1.581   1.876  49.753  0.00  0.00    -0.572 OA
ATOM     81  H   IDS d 303       1.845   0.148  51.878  0.00  0.00     0.133 H 
ATOM     82  H   IDS d 303       3.434   0.393  55.142  0.00  0.00     0.104 H 
ATOM     83  H   IDS d 303       3.855   3.254  55.244  0.00  0.00     0.210 HD
ATOM     84  H   IDS d 303       5.534   1.694  54.624  0.00  0.00     0.092 H 
ATOM     85  H   IDS d 303       2.169   2.598  52.313  0.00  0.00     0.097 H 
ATOM     86  H   IDS d 303       4.447   3.282  53.072  0.00  0.00     0.091 H 
ATOM     87  O1S UAP d 301      10.502  -6.072  50.785  0.00  0.00    -0.572 OA
ATOM     88  O61 UAP d 301      10.739  -0.563  45.937  0.00  0.00    -0.642 OA
ATOM     89  C1  UAP d 301       9.817  -2.187  50.098  0.00  0.00     0.167 C 
ATOM     90  O62 UAP d 301      11.936   0.154  47.596  0.00  0.00    -0.642 OA
ATOM     91  O3S UAP d 301       9.770  -6.423  48.626  0.00  0.00    -0.572 OA
ATOM     92  C6  UAP d 301      11.030  -0.547  47.136  0.00  0.00     0.233 C 
ATOM     93  O3  UAP d 301       7.473  -2.905  48.121  0.00  0.00    -0.389 OA
ATOM     94  C3  UAP d 301       8.838  -3.223  48.041  0.00  0.00     0.086 C 
ATOM     95  S   UAP d 301      10.793  -5.802  49.420  0.00  0.00     0.252 S 
ATOM     96  O2  UAP d 301      10.722  -4.082  49.192  0.00  0.00    -0.244 OA
ATOM     97  C5  UAP d 301      10.378  -1.373  47.929  0.00  0.00     0.147 C 
ATOM     98  O2S UAP d 301      12.125  -6.234  49.067  0.00  0.00    -0.572 OA
ATOM     99  C2  UAP d 301       9.480  -3.475  49.408  0.00  0.00     0.135 C 
ATOM    100  C4  UAP d 301       9.503  -2.174  47.335  0.00  0.00    -0.034 C 
ATOM    101  O5  UAP d 301      10.691  -1.440  49.245  0.00  0.00    -0.311 OA
ATOM    102  H   UAP d 301      10.325  -2.296  51.034  0.00  0.00     0.134 H 
ATOM    103  H   UAP d 301       7.004  -3.607  48.598  0.00  0.00     0.210 HD
ATOM    104  H   UAP d 301       8.939  -4.147  47.513  0.00  0.00     0.093 H 
ATOM    105  H   UAP d 301       8.795  -4.057  49.989  0.00  0.00     0.097 H 
ATOM    106  H   UAP d 301       9.297  -2.035  46.334  0.00  0.00     0.085 H 
ENDROOT
TORSDOF 33
ENDMDL
MODEL 38
REMARK VINA RESULT:      -6.0      3.481      6.853
REMARK  0 active torsions:
REMARK  status: ('A' for Active; 'I' for Inactive)
REMARK       I    between atoms: C4_1  and  O4_32 
REMARK       I    between atoms: C2_2  and  N_17 
REMARK       I    between atoms: C4_3  and  O4_45 
REMARK       I    between atoms: C5_5  and  C6_20 
REMARK       I    between atoms: C5_7  and  C6_42 
REMARK       I    between atoms: C2_8  and  N_48 
REMARK       I    between atoms: O1_9  and  C1_58 
REMARK       I    between atoms: O1_9  and  C4_62 
REMARK       I    between atoms: C3_11  and  O3_46 
REMARK       I    between atoms: O1S_13  and  S1_14 
REMARK       I    between atoms: S1_14  and  N_48 
REMARK       I    between atoms: S1_14  and  O2S_39 
REMARK       I    between atoms: S1_14  and  O3S_16 
REMARK       I    between atoms: N_17  and  S1_64 
REMARK       I    between atoms: C1_18  and  O4_45 
REMARK       I    between atoms: C6_20  and  O6_41 
REMARK       I    between atoms: O1S_22  and  S1_64 
REMARK       I    between atoms: O3S_25  and  S1_64 
REMARK       I    between atoms: O1_26  and  C1_61 
REMARK       I    between atoms: S_27  and  O2_57 
REMARK       I    between atoms: O6_29  and  C6_42 
REMARK       I    between atoms: O6_29  and  S2_68 
REMARK       I    between atoms: C6_30  and  C5_54 
REMARK       I    between atoms: C1_31  and  O4_32 
REMARK       I    between atoms: C5_35  and  C6_36 
REMARK       I    between atoms: O3_37  and  C3_38 
REMARK       I    between atoms: C3_40  and  O3_44 
REMARK       I    between atoms: O6_41  and  S2_52 
REMARK       I    between atoms: S_43  and  O2_53 
REMARK       I    between atoms: O3_47  and  C3_69 
REMARK       I    between atoms: O2S_49  and  S1_64 
REMARK       I    between atoms: O2_53  and  C2_59 
REMARK       I    between atoms: O2_57  and  C2_65 
ROOT
ATOM      1  C4  SGN d 304       0.537  -1.981  52.549  0.00  0.00     0.095 C 
ATOM      2  C2  SGN d 304      -0.454  -4.101  51.586  0.00  0.00     0.081 C 
ATOM      3  O5S SGN d 304       0.470   0.684  48.622  0.00  0.00    -0.572 OA
ATOM      4  C5  SGN d 304      -0.851  -1.354  52.344  0.00  0.00     0.091 C 
ATOM      5  N   SGN d 304      -0.798  -5.469  51.969  0.00  0.00    -0.210 NA
ATOM      6  O4S SGN d 304       0.779   2.329  50.293  0.00  0.00    -0.572 OA
ATOM      7  O1S SGN d 304      -1.373  -6.938  49.877  0.00  0.00    -0.296 OA
ATOM      8  O3S SGN d 304       0.899  -6.656  50.299  0.00  0.00    -0.296 OA
ATOM      9  O1  SGN d 304      -2.849  -3.630  52.128  0.00  0.00    -0.369 OA
ATOM     10  O6  SGN d 304      -0.915   0.494  50.869  0.00  0.00    -0.254 OA
ATOM     11  O4  SGN d 304       1.190  -1.460  53.738  0.00  0.00    -0.348 OA
ATOM     12  O5  SGN d 304      -1.472  -1.915  51.166  0.00  0.00    -0.350 OA
ATOM     13  C3  SGN d 304       0.282  -3.478  52.763  0.00  0.00     0.083 C 
ATOM     14  C6  SGN d 304      -0.848   0.154  52.250  0.00  0.00     0.067 C 
ATOM     15  O3  SGN d 304       1.507  -4.134  52.903  0.00  0.00    -0.391 OA
ATOM     16  O2S SGN d 304      -0.369  -8.056  51.674  0.00  0.00    -0.296 OA
ATOM     17  C1  SGN d 304      -1.742  -3.322  51.269  0.00  0.00     0.147 C 
ATOM     18  S1  SGN d 304      -0.388  -6.846  50.907  0.00  0.00     0.156 S 
ATOM     19  O6S SGN d 304       1.679   0.137  50.557  0.00  0.00    -0.572 OA
ATOM     20  S2  SGN d 304       0.585   0.925  50.039  0.00  0.00     0.251 S 
ATOM     21  H   SGN d 304       1.167  -1.768  51.711  0.00  0.00     0.091 H 
ATOM     22  H   SGN d 304       0.166  -4.080  50.714  0.00  0.00     0.076 H 
ATOM     23  H   SGN d 304      -1.413  -1.591  53.222  0.00  0.00     0.090 H 
ATOM     24  H   SGN d 304      -1.810  -5.490  52.095  0.00  0.00     0.140 HD
ATOM     25  H   SGN d 304      -1.380  -6.115  49.362  0.00  0.00     0.231 HD
ATOM     26  H   SGN d 304       0.893  -5.837  49.778  0.00  0.00     0.231 HD
ATOM     27  H   SGN d 304      -2.979  -4.590  52.155  0.00  0.00     0.212 HD
ATOM     28  H   SGN d 304      -0.322  -3.584  53.640  0.00  0.00     0.089 H 
ATOM     29  H   SGN d 304       0.051   0.546  52.680  0.00  0.00     0.080 H 
ATOM     30  H   SGN d 304      -1.678   0.568  52.783  0.00  0.00     0.080 H 
ATOM     31  H   SGN d 304       2.029  -4.020  52.093  0.00  0.00     0.210 HD
ATOM     32  H   SGN d 304      -1.236  -8.191  52.088  0.00  0.00     0.231 HD
ATOM     33  H   SGN d 304      -2.074  -3.660  50.310  0.00  0.00     0.131 H 
ATOM     34  C4  SGN d 302       8.006   2.303  52.777  0.00  0.00     0.095 C 
ATOM     35  C5  SGN d 302       7.590   0.885  52.410  0.00  0.00     0.091 C 
ATOM     36  C2  SGN d 302       6.936   2.058  54.934  0.00  0.00     0.081 C 
ATOM     37  O1  SGN d 302       5.364   0.381  54.150  0.00  0.00    -0.348 OA
ATOM     38  C3  SGN d 302       6.991   2.909  53.707  0.00  0.00     0.083 C 
ATOM     39  O1S SGN d 302       5.010   3.193  58.074  0.00  0.00    -0.296 OA
ATOM     40  S1  SGN d 302       6.057   2.420  57.429  0.00  0.00     0.156 S 
ATOM     41  O4S SGN d 302      12.125  -0.812  52.941  0.00  0.00    -0.572 OA
ATOM     42  O3S SGN d 302       6.055   1.014  57.769  0.00  0.00    -0.296 OA
ATOM     43  C6  SGN d 302       8.640   0.227  51.555  0.00  0.00     0.067 C 
ATOM     44  O6S SGN d 302      10.724  -1.933  51.445  0.00  0.00    -0.572 OA
ATOM     45  O5S SGN d 302      11.894   0.058  50.794  0.00  0.00    -0.572 OA
ATOM     46  O2S SGN d 302       7.298   3.054  57.719  0.00  0.00    -0.296 OA
ATOM     47  O6  SGN d 302       9.823   0.289  52.342  0.00  0.00    -0.254 OA
ATOM     48  O4  SGN d 302       7.968   3.109  51.621  0.00  0.00    -0.348 OA
ATOM     49  O3  SGN d 302       7.429   4.212  54.022  0.00  0.00    -0.391 OA
ATOM     50  N   SGN d 302       5.794   2.471  55.692  0.00  0.00    -0.210 NA
ATOM     51  S2  SGN d 302      11.222  -0.645  51.854  0.00  0.00     0.251 S 
ATOM     52  C1  SGN d 302       6.683   0.615  54.570  0.00  0.00     0.150 C 
ATOM     53  O5  SGN d 302       7.603   0.165  53.602  0.00  0.00    -0.349 OA
ATOM     54  H   SGN d 302       8.980   2.259  53.219  0.00  0.00     0.091 H 
ATOM     55  H   SGN d 302       6.649   0.907  51.902  0.00  0.00     0.090 H 
ATOM     56  H   SGN d 302       7.860   2.156  55.464  0.00  0.00     0.076 H 
ATOM     57  H   SGN d 302       6.015   2.959  53.269  0.00  0.00     0.089 H 
ATOM     58  H   SGN d 302       5.077   4.120  57.798  0.00  0.00     0.231 HD
ATOM     59  H   SGN d 302       5.190   0.631  57.553  0.00  0.00     0.231 HD
ATOM     60  H   SGN d 302       8.768   0.759  50.635  0.00  0.00     0.080 H 
ATOM     61  H   SGN d 302       8.380  -0.775  51.285  0.00  0.00     0.080 H 
ATOM     62  H   SGN d 302       7.247   3.991  57.474  0.00  0.00     0.231 HD
ATOM     63  H   SGN d 302       8.313   4.168  54.418  0.00  0.00     0.210 HD
ATOM     64  H   SGN d 302       5.014   1.854  55.465  0.00  0.00     0.140 HD
ATOM     65  H   SGN d 302       6.827   0.050  55.467  0.00  0.00     0.131 H 
ATOM     66  O61 IDS d 303       6.349  -2.524  52.969  0.00  0.00    -0.646 OA
ATOM     67  O5  IDS d 303       3.304  -0.726  52.801  0.00  0.00    -0.340 OA
ATOM     68  S   IDS d 303       1.981   2.738  55.126  0.00  0.00     0.252 S 
ATOM     69  C1  IDS d 303       2.151  -0.399  53.587  0.00  0.00     0.161 C 
ATOM     70  C5  IDS d 303       4.247  -1.594  53.456  0.00  0.00     0.152 C 
ATOM     71  C6  IDS d 303       5.375  -1.904  52.508  0.00  0.00     0.206 C 
ATOM     72  O3  IDS d 303       3.222  -1.762  56.187  0.00  0.00    -0.390 OA
ATOM     73  O2S IDS d 303       1.716   2.682  56.546  0.00  0.00    -0.572 OA
ATOM     74  O62 IDS d 303       5.367  -1.355  51.395  0.00  0.00    -0.646 OA
ATOM     75  O1S IDS d 303       2.574   3.993  54.767  0.00  0.00    -0.572 OA
ATOM     76  O2  IDS d 303       3.090   1.503  54.685  0.00  0.00    -0.244 OA
ATOM     77  C4  IDS d 303       4.830  -0.855  54.646  0.00  0.00     0.103 C 
ATOM     78  C2  IDS d 303       2.625   0.218  54.910  0.00  0.00     0.134 C 
ATOM     79  C3  IDS d 303       3.714  -0.571  55.639  0.00  0.00     0.094 C 
ATOM     80  O3S IDS d 303       0.742   2.505  54.505  0.00  0.00    -0.572 OA
ATOM     81  H   IDS d 303       1.576   0.326  53.048  0.00  0.00     0.133 H 
ATOM     82  H   IDS d 303       3.759  -2.496  53.762  0.00  0.00     0.104 H 
ATOM     83  H   IDS d 303       3.940  -2.231  56.639  0.00  0.00     0.210 HD
ATOM     84  H   IDS d 303       5.590  -1.428  55.133  0.00  0.00     0.092 H 
ATOM     85  H   IDS d 303       1.765   0.206  55.547  0.00  0.00     0.097 H 
ATOM     86  H   IDS d 303       4.080   0.008  56.461  0.00  0.00     0.091 H 
ATOM     87  O1S UAP d 301      10.351   2.594  47.329  0.00  0.00    -0.572 OA
ATOM     88  O61 UAP d 301       9.128   7.893  52.262  0.00  0.00    -0.642 OA
ATOM     89  C1  UAP d 301       9.204   3.495  51.059  0.00  0.00     0.167 C 
ATOM     90  O62 UAP d 301      10.565   6.598  53.238  0.00  0.00    -0.642 OA
ATOM     91  O3S UAP d 301       9.234   4.509  46.690  0.00  0.00    -0.572 OA
ATOM     92  C6  UAP d 301       9.651   6.789  52.432  0.00  0.00     0.233 C 
ATOM     93  O3  UAP d 301       6.583   4.861  49.970  0.00  0.00    -0.389 OA
ATOM     94  C3  UAP d 301       7.927   5.193  49.736  0.00  0.00     0.086 C 
ATOM     95  S   UAP d 301      10.337   4.009  47.463  0.00  0.00     0.252 S 
ATOM     96  O2  UAP d 301      10.072   4.382  49.138  0.00  0.00    -0.244 OA
ATOM     97  C5  UAP d 301       9.245   5.801  51.659  0.00  0.00     0.147 C 
ATOM     98  O2S UAP d 301      11.604   4.589  47.082  0.00  0.00    -0.572 OA
ATOM     99  C2  UAP d 301       8.850   3.972  49.682  0.00  0.00     0.135 C 
ATOM    100  C4  UAP d 301       8.343   6.120  50.740  0.00  0.00    -0.034 C 
ATOM    101  O5  UAP d 301       9.821   4.579  51.761  0.00  0.00    -0.311 OA
ATOM    102  H   UAP d 301       9.897   2.680  51.089  0.00  0.00     0.134 H 
ATOM    103  H   UAP d 301       6.282   4.232  49.296  0.00  0.00     0.210 HD
ATOM    104  H   UAP d 301       8.001   5.639  48.767  0.00  0.00     0.093 H 
ATOM    105  H   UAP d 301       8.349   3.208  49.125  0.00  0.00     0.097 H 
ATOM    106  H   UAP d 301       7.929   7.065  50.752  0.00  0.00     0.085 H 
ENDROOT
TORSDOF 33
ENDMDL
MODEL 39
REMARK VINA RESULT:      -6.0      3.483     11.236
REMARK  0 active torsions:
REMARK  status: ('A' for Active; 'I' for Inactive)
REMARK       I    between atoms: C4_1  and  O4_32 
REMARK       I    between atoms: C2_2  and  N_17 
REMARK       I    between atoms: C4_3  and  O4_45 
REMARK       I    between atoms: C5_5  and  C6_20 
REMARK       I    between atoms: C5_7  and  C6_42 
REMARK       I    between atoms: C2_8  and  N_48 
REMARK       I    between atoms: O1_9  and  C1_58 
REMARK       I    between atoms: O1_9  and  C4_62 
REMARK       I    between atoms: C3_11  and  O3_46 
REMARK       I    between atoms: O1S_13  and  S1_14 
REMARK       I    between atoms: S1_14  and  N_48 
REMARK       I    between atoms: S1_14  and  O2S_39 
REMARK       I    between atoms: S1_14  and  O3S_16 
REMARK       I    between atoms: N_17  and  S1_64 
REMARK       I    between atoms: C1_18  and  O4_45 
REMARK       I    between atoms: C6_20  and  O6_41 
REMARK       I    between atoms: O1S_22  and  S1_64 
REMARK       I    between atoms: O3S_25  and  S1_64 
REMARK       I    between atoms: O1_26  and  C1_61 
REMARK       I    between atoms: S_27  and  O2_57 
REMARK       I    between atoms: O6_29  and  C6_42 
REMARK       I    between atoms: O6_29  and  S2_68 
REMARK       I    between atoms: C6_30  and  C5_54 
REMARK       I    between atoms: C1_31  and  O4_32 
REMARK       I    between atoms: C5_35  and  C6_36 
REMARK       I    between atoms: O3_37  and  C3_38 
REMARK       I    between atoms: C3_40  and  O3_44 
REMARK       I    between atoms: O6_41  and  S2_52 
REMARK       I    between atoms: S_43  and  O2_53 
REMARK       I    between atoms: O3_47  and  C3_69 
REMARK       I    between atoms: O2S_49  and  S1_64 
REMARK       I    between atoms: O2_53  and  C2_59 
REMARK       I    between atoms: O2_57  and  C2_65 
ROOT
ATOM      1  C4  SGN d 304       5.664   2.024  52.632  0.00  0.00     0.095 C 
ATOM      2  C2  SGN d 304       7.351   3.183  51.143  0.00  0.00     0.081 C 
ATOM      3  O5S SGN d 304       3.778  -0.915  49.418  0.00  0.00    -0.572 OA
ATOM      4  C5  SGN d 304       6.532   0.766  52.473  0.00  0.00     0.091 C 
ATOM      5  N   SGN d 304       8.360   4.239  51.180  0.00  0.00    -0.210 NA
ATOM      6  O4S SGN d 304       3.028  -1.893  51.437  0.00  0.00    -0.572 OA
ATOM      7  O1S SGN d 304       9.183   4.867  48.773  0.00  0.00    -0.296 OA
ATOM      8  O3S SGN d 304       7.160   5.825  49.413  0.00  0.00    -0.296 OA
ATOM      9  O1  SGN d 304       9.294   1.678  51.601  0.00  0.00    -0.369 OA
ATOM     10  O6  SGN d 304       5.458  -1.079  51.456  0.00  0.00    -0.254 OA
ATOM     11  O4  SGN d 304       5.063   2.097  53.953  0.00  0.00    -0.348 OA
ATOM     12  O5  SGN d 304       7.128   0.746  51.157  0.00  0.00    -0.350 OA
ATOM     13  C3  SGN d 304       6.628   3.208  52.482  0.00  0.00     0.083 C 
ATOM     14  C6  SGN d 304       5.803  -0.533  52.725  0.00  0.00     0.067 C 
ATOM     15  O3  SGN d 304       5.902   4.399  52.558  0.00  0.00    -0.391 OA
ATOM     16  O2S SGN d 304       9.157   6.610  50.337  0.00  0.00    -0.296 OA
ATOM     17  C1  SGN d 304       8.042   1.827  50.918  0.00  0.00     0.147 C 
ATOM     18  S1  SGN d 304       8.469   5.445  49.866  0.00  0.00     0.156 S 
ATOM     19  O6S SGN d 304       3.330   0.465  51.262  0.00  0.00    -0.572 OA
ATOM     20  S2  SGN d 304       3.813  -0.834  50.858  0.00  0.00     0.251 S 
ATOM     21  H   SGN d 304       4.872   2.020  51.913  0.00  0.00     0.091 H 
ATOM     22  H   SGN d 304       6.653   3.332  50.347  0.00  0.00     0.076 H 
ATOM     23  H   SGN d 304       7.284   0.831  53.232  0.00  0.00     0.090 H 
ATOM     24  H   SGN d 304       9.267   3.774  51.223  0.00  0.00     0.140 HD
ATOM     25  H   SGN d 304       8.711   4.080  48.459  0.00  0.00     0.231 HD
ATOM     26  H   SGN d 304       6.688   5.040  49.093  0.00  0.00     0.231 HD
ATOM     27  H   SGN d 304       9.864   2.435  51.400  0.00  0.00     0.212 HD
ATOM     28  H   SGN d 304       7.354   3.139  53.266  0.00  0.00     0.089 H 
ATOM     29  H   SGN d 304       4.917  -0.351  53.297  0.00  0.00     0.080 H 
ATOM     30  H   SGN d 304       6.419  -1.213  53.275  0.00  0.00     0.080 H 
ATOM     31  H   SGN d 304       5.255   4.430  51.836  0.00  0.00     0.210 HD
ATOM     32  H   SGN d 304      10.042   6.361  50.646  0.00  0.00     0.231 HD
ATOM     33  H   SGN d 304       8.320   1.795  49.885  0.00  0.00     0.131 H 
ATOM     34  C4  SGN d 302      -2.771   2.125  54.373  0.00  0.00     0.095 C 
ATOM     35  C5  SGN d 302      -1.807   3.067  53.665  0.00  0.00     0.091 C 
ATOM     36  C2  SGN d 302      -1.352   2.149  56.334  0.00  0.00     0.081 C 
ATOM     37  O1  SGN d 302       0.659   2.671  55.077  0.00  0.00    -0.348 OA
ATOM     38  C3  SGN d 302      -2.016   1.253  55.340  0.00  0.00     0.083 C 
ATOM     39  O1S SGN d 302       0.328   0.732  59.500  0.00  0.00    -0.296 OA
ATOM     40  S1  SGN d 302      -0.325   1.807  58.775  0.00  0.00     0.156 S 
ATOM     41  O4S SGN d 302      -4.835   6.855  54.129  0.00  0.00    -0.572 OA
ATOM     42  O3S SGN d 302       0.399   3.059  58.786  0.00  0.00    -0.296 OA
ATOM     43  C6  SGN d 302      -2.555   4.012  52.762  0.00  0.00     0.067 C 
ATOM     44  O6S SGN d 302      -3.358   6.872  52.318  0.00  0.00    -0.572 OA
ATOM     45  O5S SGN d 302      -5.421   5.652  52.223  0.00  0.00    -0.572 OA
ATOM     46  O2S SGN d 302      -1.646   1.930  59.291  0.00  0.00    -0.296 OA
ATOM     47  O6  SGN d 302      -3.469   4.675  53.628  0.00  0.00    -0.254 OA
ATOM     48  O4  SGN d 302      -3.320   1.232  53.431  0.00  0.00    -0.348 OA
ATOM     49  O3  SGN d 302      -2.953   0.412  55.973  0.00  0.00    -0.391 OA
ATOM     50  N   SGN d 302      -0.426   1.352  57.080  0.00  0.00    -0.210 NA
ATOM     51  S2  SGN d 302      -4.323   6.088  53.044  0.00  0.00     0.251 S 
ATOM     52  C1  SGN d 302      -0.517   3.195  55.635  0.00  0.00     0.150 C 
ATOM     53  O5  SGN d 302      -1.270   3.880  54.660  0.00  0.00    -0.349 OA
ATOM     54  H   SGN d 302      -3.514   2.718  54.864  0.00  0.00     0.091 H 
ATOM     55  H   SGN d 302      -1.093   2.499  53.107  0.00  0.00     0.090 H 
ATOM     56  H   SGN d 302      -2.104   2.611  56.939  0.00  0.00     0.076 H 
ATOM     57  H   SGN d 302      -1.273   0.654  54.854  0.00  0.00     0.089 H 
ATOM     58  H   SGN d 302      -0.214  -0.070  59.447  0.00  0.00     0.231 HD
ATOM     59  H   SGN d 302       1.289   2.921  58.426  0.00  0.00     0.231 HD
ATOM     60  H   SGN d 302      -3.077   3.474  51.999  0.00  0.00     0.080 H 
ATOM     61  H   SGN d 302      -1.905   4.693  52.253  0.00  0.00     0.080 H 
ATOM     62  H   SGN d 302      -2.086   1.067  59.262  0.00  0.00     0.231 HD
ATOM     63  H   SGN d 302      -3.627   0.953  56.413  0.00  0.00     0.210 HD
ATOM     64  H   SGN d 302       0.499   1.453  56.662  0.00  0.00     0.140 HD
ATOM     65  H   SGN d 302      -0.218   3.893  56.388  0.00  0.00     0.131 H 
ATOM     66  O61 IDS d 303       0.970   5.445  53.344  0.00  0.00    -0.646 OA
ATOM     67  O5  IDS d 303       2.725   2.371  53.365  0.00  0.00    -0.340 OA
ATOM     68  S   IDS d 303       2.644  -0.863  56.312  0.00  0.00     0.252 S 
ATOM     69  C1  IDS d 303       3.706   1.646  54.118  0.00  0.00     0.161 C 
ATOM     70  C5  IDS d 303       2.434   3.686  53.873  0.00  0.00     0.152 C 
ATOM     71  C6  IDS d 303       1.439   4.359  52.965  0.00  0.00     0.206 C 
ATOM     72  O3  IDS d 303       3.879   3.761  56.412  0.00  0.00    -0.390 OA
ATOM     73  O2S IDS d 303       3.148  -0.718  57.658  0.00  0.00    -0.572 OA
ATOM     74  O62 IDS d 303       0.992   3.707  52.007  0.00  0.00    -0.646 OA
ATOM     75  O1S IDS d 303       1.477  -1.697  56.291  0.00  0.00    -0.572 OA
ATOM     76  O2  IDS d 303       2.191   0.669  55.685  0.00  0.00    -0.244 OA
ATOM     77  C4  IDS d 303       1.791   3.538  55.239  0.00  0.00     0.103 C 
ATOM     78  C2  IDS d 303       3.238   1.570  55.577  0.00  0.00     0.134 C 
ATOM     79  C3  IDS d 303       2.796   2.902  56.186  0.00  0.00     0.094 C 
ATOM     80  O3S IDS d 303       3.716  -1.382  55.565  0.00  0.00    -0.572 OA
ATOM     81  H   IDS d 303       3.766   0.655  53.717  0.00  0.00     0.133 H 
ATOM     82  H   IDS d 303       3.334   4.262  53.930  0.00  0.00     0.104 H 
ATOM     83  H   IDS d 303       3.558   4.591  56.797  0.00  0.00     0.210 HD
ATOM     84  H   IDS d 303       1.489   4.484  55.638  0.00  0.00     0.092 H 
ATOM     85  H   IDS d 303       4.098   1.255  56.130  0.00  0.00     0.097 H 
ATOM     86  H   IDS d 303       2.350   2.723  57.142  0.00  0.00     0.091 H 
ATOM     87  O1S UAP d 301      -5.890   2.163  49.320  0.00  0.00    -0.572 OA
ATOM     88  O61 UAP d 301      -6.465  -2.165  55.224  0.00  0.00    -0.642 OA
ATOM     89  C1  UAP d 301      -4.669   1.427  53.063  0.00  0.00     0.167 C 
ATOM     90  O62 UAP d 301      -6.926  -0.189  55.983  0.00  0.00    -0.642 OA
ATOM     91  O3S UAP d 301      -5.939  -0.128  49.053  0.00  0.00    -0.572 OA
ATOM     92  C6  UAP d 301      -6.367  -0.937  55.176  0.00  0.00     0.233 C 
ATOM     93  O3  UAP d 301      -3.238  -1.217  52.123  0.00  0.00    -0.389 OA
ATOM     94  C3  UAP d 301      -4.597  -0.869  52.069  0.00  0.00     0.086 C 
ATOM     95  S   UAP d 301      -6.522   0.971  49.771  0.00  0.00     0.252 S 
ATOM     96  O2  UAP d 301      -6.174   0.792  51.462  0.00  0.00    -0.244 OA
ATOM     97  C5  UAP d 301      -5.686  -0.421  54.172  0.00  0.00     0.147 C 
ATOM     98  O2S UAP d 301      -7.956   1.046  49.625  0.00  0.00    -0.572 OA
ATOM     99  C2  UAP d 301      -4.829   0.622  51.808  0.00  0.00     0.135 C 
ATOM    100  C4  UAP d 301      -5.217  -1.290  53.286  0.00  0.00    -0.034 C 
ATOM    101  O5  UAP d 301      -5.590   0.923  54.036  0.00  0.00    -0.311 OA
ATOM    102  H   UAP d 301      -4.879   2.471  52.958  0.00  0.00     0.134 H 
ATOM    103  H   UAP d 301      -2.800  -0.939  51.304  0.00  0.00     0.210 HD
ATOM    104  H   UAP d 301      -5.042  -1.369  51.235  0.00  0.00     0.093 H 
ATOM    105  H   UAP d 301      -4.134   0.934  51.057  0.00  0.00     0.097 H 
ATOM    106  H   UAP d 301      -5.303  -2.299  53.481  0.00  0.00     0.085 H 
ENDROOT
TORSDOF 33
ENDMDL
MODEL 40
REMARK VINA RESULT:      -6.0      2.329      3.759
REMARK  0 active torsions:
REMARK  status: ('A' for Active; 'I' for Inactive)
REMARK       I    between atoms: C4_1  and  O4_32 
REMARK       I    between atoms: C2_2  and  N_17 
REMARK       I    between atoms: C4_3  and  O4_45 
REMARK       I    between atoms: C5_5  and  C6_20 
REMARK       I    between atoms: C5_7  and  C6_42 
REMARK       I    between atoms: C2_8  and  N_48 
REMARK       I    between atoms: O1_9  and  C1_58 
REMARK       I    between atoms: O1_9  and  C4_62 
REMARK       I    between atoms: C3_11  and  O3_46 
REMARK       I    between atoms: O1S_13  and  S1_14 
REMARK       I    between atoms: S1_14  and  N_48 
REMARK       I    between atoms: S1_14  and  O2S_39 
REMARK       I    between atoms: S1_14  and  O3S_16 
REMARK       I    between atoms: N_17  and  S1_64 
REMARK       I    between atoms: C1_18  and  O4_45 
REMARK       I    between atoms: C6_20  and  O6_41 
REMARK       I    between atoms: O1S_22  and  S1_64 
REMARK       I    between atoms: O3S_25  and  S1_64 
REMARK       I    between atoms: O1_26  and  C1_61 
REMARK       I    between atoms: S_27  and  O2_57 
REMARK       I    between atoms: O6_29  and  C6_42 
REMARK       I    between atoms: O6_29  and  S2_68 
REMARK       I    between atoms: C6_30  and  C5_54 
REMARK       I    between atoms: C1_31  and  O4_32 
REMARK       I    between atoms: C5_35  and  C6_36 
REMARK       I    between atoms: O3_37  and  C3_38 
REMARK       I    between atoms: C3_40  and  O3_44 
REMARK       I    between atoms: O6_41  and  S2_52 
REMARK       I    between atoms: S_43  and  O2_53 
REMARK       I    between atoms: O3_47  and  C3_69 
REMARK       I    between atoms: O2S_49  and  S1_64 
REMARK       I    between atoms: O2_53  and  C2_59 
REMARK       I    between atoms: O2_57  and  C2_65 
ROOT
ATOM      1  C4  SGN d 304      -1.206  -2.221  52.261  0.00  0.00     0.095 C 
ATOM      2  C2  SGN d 304      -3.513  -1.253  51.881  0.00  0.00     0.081 C 
ATOM      3  O5S SGN d 304      -0.933  -1.591  56.957  0.00  0.00    -0.572 OA
ATOM      4  C5  SGN d 304      -1.913  -3.366  53.003  0.00  0.00     0.091 C 
ATOM      5  N   SGN d 304      -4.460  -0.964  50.807  0.00  0.00    -0.210 NA
ATOM      6  O4S SGN d 304       0.820  -3.136  56.594  0.00  0.00    -0.572 OA
ATOM      7  O1S SGN d 304      -6.439   0.535  51.644  0.00  0.00    -0.296 OA
ATOM      8  O3S SGN d 304      -4.469   1.674  51.151  0.00  0.00    -0.296 OA
ATOM      9  O1  SGN d 304      -4.809  -3.381  52.091  0.00  0.00    -0.369 OA
ATOM     10  O6  SGN d 304      -1.332  -3.601  55.283  0.00  0.00    -0.254 OA
ATOM     11  O4  SGN d 304      -0.030  -2.690  51.548  0.00  0.00    -0.348 OA
ATOM     12  O5  SGN d 304      -3.086  -2.859  53.678  0.00  0.00    -0.350 OA
ATOM     13  C3  SGN d 304      -2.220  -1.715  51.227  0.00  0.00     0.083 C 
ATOM     14  C6  SGN d 304      -1.039  -4.108  53.986  0.00  0.00     0.067 C 
ATOM     15  O3  SGN d 304      -1.670  -0.629  50.543  0.00  0.00    -0.391 OA
ATOM     16  O2S SGN d 304      -5.791   0.840  49.414  0.00  0.00    -0.296 OA
ATOM     17  C1  SGN d 304      -4.093  -2.352  52.788  0.00  0.00     0.147 C 
ATOM     18  S1  SGN d 304      -5.328   0.596  50.748  0.00  0.00     0.156 S 
ATOM     19  O6S SGN d 304       0.253  -1.523  54.934  0.00  0.00    -0.572 OA
ATOM     20  S2  SGN d 304      -0.245  -2.391  55.975  0.00  0.00     0.251 S 
ATOM     21  H   SGN d 304      -0.889  -1.471  52.955  0.00  0.00     0.091 H 
ATOM     22  H   SGN d 304      -3.329  -0.391  52.487  0.00  0.00     0.076 H 
ATOM     23  H   SGN d 304      -2.183  -4.079  52.253  0.00  0.00     0.090 H 
ATOM     24  H   SGN d 304      -5.173  -1.693  50.843  0.00  0.00     0.140 HD
ATOM     25  H   SGN d 304      -6.119   0.369  52.545  0.00  0.00     0.231 HD
ATOM     26  H   SGN d 304      -4.152   1.514  52.054  0.00  0.00     0.231 HD
ATOM     27  H   SGN d 304      -5.471  -2.976  51.509  0.00  0.00     0.212 HD
ATOM     28  H   SGN d 304      -2.441  -2.526  50.564  0.00  0.00     0.089 H 
ATOM     29  H   SGN d 304      -0.007  -3.945  53.754  0.00  0.00     0.080 H 
ATOM     30  H   SGN d 304      -1.227  -5.161  53.940  0.00  0.00     0.080 H 
ATOM     31  H   SGN d 304      -1.482   0.087  51.170  0.00  0.00     0.210 HD
ATOM     32  H   SGN d 304      -6.372   0.116  49.135  0.00  0.00     0.231 HD
ATOM     33  H   SGN d 304      -4.850  -1.887  53.385  0.00  0.00     0.131 H 
ATOM     34  C4  SGN d 302       6.903   0.368  53.575  0.00  0.00     0.095 C 
ATOM     35  C5  SGN d 302       5.631   1.033  53.068  0.00  0.00     0.091 C 
ATOM     36  C2  SGN d 302       6.672  -1.357  51.893  0.00  0.00     0.081 C 
ATOM     37  O1  SGN d 302       4.263  -1.103  51.725  0.00  0.00    -0.348 OA
ATOM     38  C3  SGN d 302       6.824  -1.119  53.360  0.00  0.00     0.083 C 
ATOM     39  O1S SGN d 302       6.959  -4.897  50.397  0.00  0.00    -0.296 OA
ATOM     40  S1  SGN d 302       7.054  -3.452  50.283  0.00  0.00     0.156 S 
ATOM     41  O4S SGN d 302       8.109   4.660  50.965  0.00  0.00    -0.572 OA
ATOM     42  O3S SGN d 302       6.321  -2.893  49.169  0.00  0.00    -0.296 OA
ATOM     43  C6  SGN d 302       5.729   2.530  53.189  0.00  0.00     0.067 C 
ATOM     44  O6S SGN d 302       5.927   5.112  51.667  0.00  0.00    -0.572 OA
ATOM     45  O5S SGN d 302       7.764   5.185  53.207  0.00  0.00    -0.572 OA
ATOM     46  O2S SGN d 302       8.437  -3.115  50.258  0.00  0.00    -0.296 OA
ATOM     47  O6  SGN d 302       6.888   2.867  52.436  0.00  0.00    -0.254 OA
ATOM     48  O4  SGN d 302       6.983   0.530  54.973  0.00  0.00    -0.348 OA
ATOM     49  O3  SGN d 302       8.027  -1.680  53.836  0.00  0.00    -0.391 OA
ATOM     50  N   SGN d 302       6.329  -2.735  51.715  0.00  0.00    -0.210 NA
ATOM     51  S2  SGN d 302       7.194   4.548  52.051  0.00  0.00     0.251 S 
ATOM     52  C1  SGN d 302       5.505  -0.572  51.344  0.00  0.00     0.150 C 
ATOM     53  O5  SGN d 302       5.596   0.789  51.697  0.00  0.00    -0.349 OA
ATOM     54  H   SGN d 302       7.734   0.804  53.060  0.00  0.00     0.091 H 
ATOM     55  H   SGN d 302       4.790   0.664  53.617  0.00  0.00     0.090 H 
ATOM     56  H   SGN d 302       7.580  -1.075  51.401  0.00  0.00     0.076 H 
ATOM     57  H   SGN d 302       5.998  -1.562  53.877  0.00  0.00     0.089 H 
ATOM     58  H   SGN d 302       7.473  -5.196  51.163  0.00  0.00     0.231 HD
ATOM     59  H   SGN d 302       5.388  -3.152  49.234  0.00  0.00     0.231 HD
ATOM     60  H   SGN d 302       5.842   2.822  54.211  0.00  0.00     0.080 H 
ATOM     61  H   SGN d 302       4.850   3.028  52.833  0.00  0.00     0.080 H 
ATOM     62  H   SGN d 302       8.881  -3.513  51.023  0.00  0.00     0.231 HD
ATOM     63  H   SGN d 302       8.777  -1.280  53.369  0.00  0.00     0.210 HD
ATOM     64  H   SGN d 302       5.314  -2.808  51.634  0.00  0.00     0.140 HD
ATOM     65  H   SGN d 302       5.563  -0.653  50.279  0.00  0.00     0.131 H 
ATOM     66  O61 IDS d 303       2.862   1.707  50.755  0.00  0.00    -0.646 OA
ATOM     67  O5  IDS d 303       1.654  -1.176  52.416  0.00  0.00    -0.340 OA
ATOM     68  S   IDS d 303       3.512  -5.111  52.876  0.00  0.00     0.252 S 
ATOM     69  C1  IDS d 303       1.260  -2.531  52.166  0.00  0.00     0.161 C 
ATOM     70  C5  IDS d 303       2.037  -0.438  51.241  0.00  0.00     0.152 C 
ATOM     71  C6  IDS d 303       2.370   0.977  51.632  0.00  0.00     0.206 C 
ATOM     72  O3  IDS d 303       2.071  -2.477  49.149  0.00  0.00    -0.390 OA
ATOM     73  O2S IDS d 303       3.745  -6.010  51.769  0.00  0.00    -0.572 OA
ATOM     74  O62 IDS d 303       2.332   1.272  52.838  0.00  0.00    -0.646 OA
ATOM     75  O1S IDS d 303       4.582  -5.189  53.829  0.00  0.00    -0.572 OA
ATOM     76  O2  IDS d 303       3.442  -3.491  52.315  0.00  0.00    -0.244 OA
ATOM     77  C4  IDS d 303       3.292  -1.070  50.669  0.00  0.00     0.103 C 
ATOM     78  C2  IDS d 303       2.405  -3.241  51.432  0.00  0.00     0.134 C 
ATOM     79  C3  IDS d 303       2.967  -2.487  50.225  0.00  0.00     0.094 C 
ATOM     80  O3S IDS d 303       2.264  -5.484  53.404  0.00  0.00    -0.572 OA
ATOM     81  H   IDS d 303       1.098  -3.010  53.110  0.00  0.00     0.133 H 
ATOM     82  H   IDS d 303       1.240  -0.450  50.528  0.00  0.00     0.104 H 
ATOM     83  H   IDS d 303       2.463  -1.991  48.406  0.00  0.00     0.210 HD
ATOM     84  H   IDS d 303       3.664  -0.520  49.830  0.00  0.00     0.092 H 
ATOM     85  H   IDS d 303       1.975  -4.144  51.051  0.00  0.00     0.097 H 
ATOM     86  H   IDS d 303       3.849  -2.984  49.877  0.00  0.00     0.091 H 
ATOM     87  O1S UAP d 301       7.029   4.658  57.679  0.00  0.00    -0.572 OA
ATOM     88  O61 UAP d 301      10.905  -1.559  57.188  0.00  0.00    -0.642 OA
ATOM     89  C1  UAP d 301       7.937   1.446  55.466  0.00  0.00     0.167 C 
ATOM     90  O62 UAP d 301      11.499  -0.438  55.431  0.00  0.00    -0.642 OA
ATOM     91  O3S UAP d 301       7.150   3.244  59.499  0.00  0.00    -0.572 OA
ATOM     92  C6  UAP d 301      10.682  -0.720  56.312  0.00  0.00     0.233 C 
ATOM     93  O3  UAP d 301       6.483  -0.440  57.527  0.00  0.00    -0.389 OA
ATOM     94  C3  UAP d 301       7.590   0.403  57.715  0.00  0.00     0.086 C 
ATOM     95  S   UAP d 301       7.910   3.832  58.430  0.00  0.00     0.252 S 
ATOM     96  O2  UAP d 301       8.482   2.572  57.381  0.00  0.00    -0.244 OA
ATOM     97  C5  UAP d 301       9.543  -0.060  56.381  0.00  0.00     0.147 C 
ATOM     98  O2S UAP d 301       9.061   4.571  58.893  0.00  0.00    -0.572 OA
ATOM     99  C2  UAP d 301       7.517   1.688  56.885  0.00  0.00     0.135 C 
ATOM    100  C4  UAP d 301       8.775  -0.341  57.426  0.00  0.00    -0.034 C 
ATOM    101  O5  UAP d 301       9.266   0.913  55.480  0.00  0.00    -0.311 OA
ATOM    102  H   UAP d 301       7.967   2.320  54.850  0.00  0.00     0.134 H 
ATOM    103  H   UAP d 301       5.667   0.048  57.720  0.00  0.00     0.210 HD
ATOM    104  H   UAP d 301       7.597   0.730  58.733  0.00  0.00     0.093 H 
ATOM    105  H   UAP d 301       6.512   2.053  56.934  0.00  0.00     0.097 H 
ATOM    106  H   UAP d 301       9.041  -1.120  58.047  0.00  0.00     0.085 H 
ENDROOT
TORSDOF 33
ENDMDL
MODEL 41
REMARK VINA RESULT:      -6.0      4.094     10.287
REMARK  0 active torsions:
REMARK  status: ('A' for Active; 'I' for Inactive)
REMARK       I    between atoms: C4_1  and  O4_32 
REMARK       I    between atoms: C2_2  and  N_17 
REMARK       I    between atoms: C4_3  and  O4_45 
REMARK       I    between atoms: C5_5  and  C6_20 
REMARK       I    between atoms: C5_7  and  C6_42 
REMARK       I    between atoms: C2_8  and  N_48 
REMARK       I    between atoms: O1_9  and  C1_58 
REMARK       I    between atoms: O1_9  and  C4_62 
REMARK       I    between atoms: C3_11  and  O3_46 
REMARK       I    between atoms: O1S_13  and  S1_14 
REMARK       I    between atoms: S1_14  and  N_48 
REMARK       I    between atoms: S1_14  and  O2S_39 
REMARK       I    between atoms: S1_14  and  O3S_16 
REMARK       I    between atoms: N_17  and  S1_64 
REMARK       I    between atoms: C1_18  and  O4_45 
REMARK       I    between atoms: C6_20  and  O6_41 
REMARK       I    between atoms: O1S_22  and  S1_64 
REMARK       I    between atoms: O3S_25  and  S1_64 
REMARK       I    between atoms: O1_26  and  C1_61 
REMARK       I    between atoms: S_27  and  O2_57 
REMARK       I    between atoms: O6_29  and  C6_42 
REMARK       I    between atoms: O6_29  and  S2_68 
REMARK       I    between atoms: C6_30  and  C5_54 
REMARK       I    between atoms: C1_31  and  O4_32 
REMARK       I    between atoms: C5_35  and  C6_36 
REMARK       I    between atoms: O3_37  and  C3_38 
REMARK       I    between atoms: C3_40  and  O3_44 
REMARK       I    between atoms: O6_41  and  S2_52 
REMARK       I    between atoms: S_43  and  O2_53 
REMARK       I    between atoms: O3_47  and  C3_69 
REMARK       I    between atoms: O2S_49  and  S1_64 
REMARK       I    between atoms: O2_53  and  C2_59 
REMARK       I    between atoms: O2_57  and  C2_65 
ROOT
ATOM      1  C4  SGN d 304       6.679  -2.798  55.035  0.00  0.00     0.095 C 
ATOM      2  C2  SGN d 304       7.334  -4.509  56.781  0.00  0.00     0.081 C 
ATOM      3  O5S SGN d 304       7.559   1.141  57.533  0.00  0.00    -0.572 OA
ATOM      4  C5  SGN d 304       8.172  -2.437  54.969  0.00  0.00     0.091 C 
ATOM      5  N   SGN d 304       7.386  -5.954  56.990  0.00  0.00    -0.210 NA
ATOM      6  O4S SGN d 304       7.426   2.005  55.335  0.00  0.00    -0.572 OA
ATOM      7  O1S SGN d 304       7.846  -6.548  59.500  0.00  0.00    -0.296 OA
ATOM      8  O3S SGN d 304       5.639  -6.004  58.996  0.00  0.00    -0.296 OA
ATOM      9  O1  SGN d 304       9.723  -4.790  56.097  0.00  0.00    -0.369 OA
ATOM     10  O6  SGN d 304       8.697  -0.209  55.561  0.00  0.00    -0.254 OA
ATOM     11  O4  SGN d 304       6.040  -2.676  53.736  0.00  0.00    -0.348 OA
ATOM     12  O5  SGN d 304       8.771  -2.594  56.274  0.00  0.00    -0.350 OA
ATOM     13  C3  SGN d 304       6.634  -4.274  55.451  0.00  0.00     0.083 C 
ATOM     14  C6  SGN d 304       8.456  -1.051  54.439  0.00  0.00     0.067 C 
ATOM     15  O3  SGN d 304       5.301  -4.667  55.589  0.00  0.00    -0.391 OA
ATOM     16  O2S SGN d 304       6.509  -8.062  58.315  0.00  0.00    -0.296 OA
ATOM     17  C1  SGN d 304       8.766  -3.947  56.755  0.00  0.00     0.147 C 
ATOM     18  S1  SGN d 304       6.815  -6.678  58.520  0.00  0.00     0.156 S 
ATOM     19  O6S SGN d 304       6.117   0.123  55.988  0.00  0.00    -0.572 OA
ATOM     20  S2  SGN d 304       7.376   0.812  56.141  0.00  0.00     0.251 S 
ATOM     21  H   SGN d 304       6.170  -2.145  55.712  0.00  0.00     0.091 H 
ATOM     22  H   SGN d 304       6.802  -4.016  57.567  0.00  0.00     0.076 H 
ATOM     23  H   SGN d 304       8.607  -3.115  54.264  0.00  0.00     0.090 H 
ATOM     24  H   SGN d 304       8.363  -6.229  56.885  0.00  0.00     0.140 HD
ATOM     25  H   SGN d 304       8.048  -5.609  59.634  0.00  0.00     0.231 HD
ATOM     26  H   SGN d 304       5.840  -5.065  59.137  0.00  0.00     0.231 HD
ATOM     27  H   SGN d 304       9.670  -5.686  56.465  0.00  0.00     0.212 HD
ATOM     28  H   SGN d 304       7.134  -4.842  54.694  0.00  0.00     0.089 H 
ATOM     29  H   SGN d 304       7.615  -0.690  53.886  0.00  0.00     0.080 H 
ATOM     30  H   SGN d 304       9.304  -1.062  53.785  0.00  0.00     0.080 H 
ATOM     31  H   SGN d 304       4.877  -4.136  56.281  0.00  0.00     0.210 HD
ATOM     32  H   SGN d 304       7.300  -8.524  57.993  0.00  0.00     0.231 HD
ATOM     33  H   SGN d 304       9.106  -3.934  57.769  0.00  0.00     0.131 H 
ATOM     34  C4  SGN d 302       0.143   2.454  53.067  0.00  0.00     0.095 C 
ATOM     35  C5  SGN d 302       0.317   1.249  53.981  0.00  0.00     0.091 C 
ATOM     36  C2  SGN d 302       0.970   1.156  51.199  0.00  0.00     0.081 C 
ATOM     37  O1  SGN d 302       2.261  -0.349  52.602  0.00  0.00    -0.348 OA
ATOM     38  C3  SGN d 302       1.174   2.419  51.972  0.00  0.00     0.083 C 
ATOM     39  O1S SGN d 302       2.811   0.524  47.873  0.00  0.00    -0.296 OA
ATOM     40  S1  SGN d 302       1.695   0.303  48.775  0.00  0.00     0.156 S 
ATOM     41  O4S SGN d 302      -4.482   0.440  54.181  0.00  0.00    -0.572 OA
ATOM     42  O3S SGN d 302       1.408  -1.090  49.038  0.00  0.00    -0.296 OA
ATOM     43  C6  SGN d 302      -0.764   1.216  55.029  0.00  0.00     0.067 C 
ATOM     44  O6S SGN d 302      -3.197  -0.248  56.007  0.00  0.00    -0.572 OA
ATOM     45  O5S SGN d 302      -3.920   2.029  55.787  0.00  0.00    -0.572 OA
ATOM     46  O2S SGN d 302       0.574   1.006  48.249  0.00  0.00    -0.296 OA
ATOM     47  O6  SGN d 302      -1.975   1.197  54.282  0.00  0.00    -0.254 OA
ATOM     48  O4  SGN d 302       0.424   3.629  53.793  0.00  0.00    -0.348 OA
ATOM     49  O3  SGN d 302       0.961   3.546  51.152  0.00  0.00    -0.391 OA
ATOM     50  N   SGN d 302       2.103   0.990  50.340  0.00  0.00    -0.210 NA
ATOM     51  S2  SGN d 302      -3.478   0.840  55.107  0.00  0.00     0.251 S 
ATOM     52  C1  SGN d 302       0.979  -0.040  52.120  0.00  0.00     0.150 C 
ATOM     53  O5  SGN d 302       0.073   0.131  53.186  0.00  0.00    -0.349 OA
ATOM     54  H   SGN d 302      -0.855   2.436  52.679  0.00  0.00     0.091 H 
ATOM     55  H   SGN d 302       1.284   1.281  54.437  0.00  0.00     0.090 H 
ATOM     56  H   SGN d 302       0.041   1.219  50.673  0.00  0.00     0.076 H 
ATOM     57  H   SGN d 302       2.174   2.441  52.353  0.00  0.00     0.089 H 
ATOM     58  H   SGN d 302       2.941   1.477  47.746  0.00  0.00     0.231 HD
ATOM     59  H   SGN d 302       2.202  -1.521  49.393  0.00  0.00     0.231 HD
ATOM     60  H   SGN d 302      -0.716   2.085  55.651  0.00  0.00     0.080 H 
ATOM     61  H   SGN d 302      -0.673   0.375  55.684  0.00  0.00     0.080 H 
ATOM     62  H   SGN d 302       0.819   1.932  48.091  0.00  0.00     0.231 HD
ATOM     63  H   SGN d 302       0.055   3.527  50.807  0.00  0.00     0.210 HD
ATOM     64  H   SGN d 302       2.771   0.371  50.801  0.00  0.00     0.140 HD
ATOM     65  H   SGN d 302       0.660  -0.874  51.532  0.00  0.00     0.131 H 
ATOM     66  O61 IDS d 303       0.853  -2.273  54.863  0.00  0.00    -0.646 OA
ATOM     67  O5  IDS d 303       4.182  -1.216  54.288  0.00  0.00    -0.340 OA
ATOM     68  S   IDS d 303       5.932   0.682  50.754  0.00  0.00     0.252 S 
ATOM     69  C1  IDS d 303       5.309  -1.472  53.439  0.00  0.00     0.161 C 
ATOM     70  C5  IDS d 303       3.045  -2.063  54.043  0.00  0.00     0.152 C 
ATOM     71  C6  IDS d 303       1.960  -1.733  55.033  0.00  0.00     0.206 C 
ATOM     72  O3  IDS d 303       3.796  -3.513  51.620  0.00  0.00    -0.390 OA
ATOM     73  O2S IDS d 303       6.066   0.011  49.481  0.00  0.00    -0.572 OA
ATOM     74  O62 IDS d 303       2.160  -0.798  55.826  0.00  0.00    -0.646 OA
ATOM     75  O1S IDS d 303       5.615   2.068  50.569  0.00  0.00    -0.572 OA
ATOM     76  O2  IDS d 303       4.654  -0.021  51.659  0.00  0.00    -0.244 OA
ATOM     77  C4  IDS d 303       2.515  -1.760  52.654  0.00  0.00     0.103 C 
ATOM     78  C2  IDS d 303       4.852  -1.354  51.979  0.00  0.00     0.134 C 
ATOM     79  C3  IDS d 303       3.579  -2.130  51.633  0.00  0.00     0.094 C 
ATOM     80  O3S IDS d 303       7.153   0.471  51.418  0.00  0.00    -0.572 OA
ATOM     81  H   IDS d 303       6.050  -0.725  53.636  0.00  0.00     0.133 H 
ATOM     82  H   IDS d 303       3.330  -3.090  54.132  0.00  0.00     0.104 H 
ATOM     83  H   IDS d 303       2.968  -3.967  51.398  0.00  0.00     0.210 HD
ATOM     84  H   IDS d 303       1.624  -2.313  52.442  0.00  0.00     0.092 H 
ATOM     85  H   IDS d 303       5.640  -1.793  51.404  0.00  0.00     0.097 H 
ATOM     86  H   IDS d 303       3.262  -1.866  50.646  0.00  0.00     0.091 H 
ATOM     87  O1S UAP d 301      -1.656   5.368  57.918  0.00  0.00    -0.572 OA
ATOM     88  O61 UAP d 301       0.125   7.885  51.254  0.00  0.00    -0.642 OA
ATOM     89  C1  UAP d 301      -0.669   4.449  54.147  0.00  0.00     0.167 C 
ATOM     90  O62 UAP d 301      -1.602   6.628  50.889  0.00  0.00    -0.642 OA
ATOM     91  O3S UAP d 301      -0.155   7.109  57.721  0.00  0.00    -0.572 OA
ATOM     92  C6  UAP d 301      -0.606   6.936  51.549  0.00  0.00     0.233 C 
ATOM     93  O3  UAP d 301       2.240   5.575  54.588  0.00  0.00    -0.389 OA
ATOM     94  C3  UAP d 301       1.004   6.238  54.664  0.00  0.00     0.086 C 
ATOM     95  S   UAP d 301      -1.391   6.577  57.218  0.00  0.00     0.252 S 
ATOM     96  O2  UAP d 301      -1.198   6.187  55.537  0.00  0.00    -0.244 OA
ATOM     97  C5  UAP d 301      -0.330   6.280  52.658  0.00  0.00     0.147 C 
ATOM     98  O2S UAP d 301      -2.493   7.504  57.327  0.00  0.00    -0.572 OA
ATOM     99  C2  UAP d 301      -0.121   5.354  55.210  0.00  0.00     0.135 C 
ATOM    100  C4  UAP d 301       0.688   6.749  53.368  0.00  0.00    -0.034 C 
ATOM    101  O5  UAP d 301      -1.128   5.263  53.062  0.00  0.00    -0.311 OA
ATOM    102  H   UAP d 301      -1.501   3.849  54.451  0.00  0.00     0.134 H 
ATOM    103  H   UAP d 301       2.472   5.221  55.460  0.00  0.00     0.210 HD
ATOM    104  H   UAP d 301       1.094   7.039  55.367  0.00  0.00     0.093 H 
ATOM    105  H   UAP d 301       0.272   4.793  56.031  0.00  0.00     0.097 H 
ATOM    106  H   UAP d 301       1.268   7.505  52.973  0.00  0.00     0.085 H 
ENDROOT
TORSDOF 33
ENDMDL
MODEL 42
REMARK VINA RESULT:      -5.9      3.844     10.628
REMARK  0 active torsions:
REMARK  status: ('A' for Active; 'I' for Inactive)
REMARK       I    between atoms: C4_1  and  O4_32 
REMARK       I    between atoms: C2_2  and  N_17 
REMARK       I    between atoms: C4_3  and  O4_45 
REMARK       I    between atoms: C5_5  and  C6_20 
REMARK       I    between atoms: C5_7  and  C6_42 
REMARK       I    between atoms: C2_8  and  N_48 
REMARK       I    between atoms: O1_9  and  C1_58 
REMARK       I    between atoms: O1_9  and  C4_62 
REMARK       I    between atoms: C3_11  and  O3_46 
REMARK       I    between atoms: O1S_13  and  S1_14 
REMARK       I    between atoms: S1_14  and  N_48 
REMARK       I    between atoms: S1_14  and  O2S_39 
REMARK       I    between atoms: S1_14  and  O3S_16 
REMARK       I    between atoms: N_17  and  S1_64 
REMARK       I    between atoms: C1_18  and  O4_45 
REMARK       I    between atoms: C6_20  and  O6_41 
REMARK       I    between atoms: O1S_22  and  S1_64 
REMARK       I    between atoms: O3S_25  and  S1_64 
REMARK       I    between atoms: O1_26  and  C1_61 
REMARK       I    between atoms: S_27  and  O2_57 
REMARK       I    between atoms: O6_29  and  C6_42 
REMARK       I    between atoms: O6_29  and  S2_68 
REMARK       I    between atoms: C6_30  and  C5_54 
REMARK       I    between atoms: C1_31  and  O4_32 
REMARK       I    between atoms: C5_35  and  C6_36 
REMARK       I    between atoms: O3_37  and  C3_38 
REMARK       I    between atoms: C3_40  and  O3_44 
REMARK       I    between atoms: O6_41  and  S2_52 
REMARK       I    between atoms: S_43  and  O2_53 
REMARK       I    between atoms: O3_47  and  C3_69 
REMARK       I    between atoms: O2S_49  and  S1_64 
REMARK       I    between atoms: O2_53  and  C2_59 
REMARK       I    between atoms: O2_57  and  C2_65 
ROOT
ATOM      1  C4  SGN d 304       7.965  -2.661  53.888  0.00  0.00     0.095 C 
ATOM      2  C2  SGN d 304       9.042  -4.373  55.409  0.00  0.00     0.081 C 
ATOM      3  O5S SGN d 304       8.818   1.227  56.473  0.00  0.00    -0.572 OA
ATOM      4  C5  SGN d 304       9.387  -2.139  53.628  0.00  0.00     0.091 C 
ATOM      5  N   SGN d 304       9.267  -5.812  55.518  0.00  0.00    -0.210 NA
ATOM      6  O4S SGN d 304       8.269   2.175  54.377  0.00  0.00    -0.572 OA
ATOM      7  O1S SGN d 304      10.158  -6.471  57.892  0.00  0.00    -0.296 OA
ATOM      8  O3S SGN d 304       7.857  -6.143  57.749  0.00  0.00    -0.296 OA
ATOM      9  O1  SGN d 304      11.316  -4.363  54.370  0.00  0.00    -0.369 OA
ATOM     10  O6  SGN d 304       9.773   0.102  54.276  0.00  0.00    -0.254 OA
ATOM     11  O4  SGN d 304       7.127  -2.547  52.706  0.00  0.00    -0.348 OA
ATOM     12  O5  SGN d 304      10.189  -2.293  54.820  0.00  0.00    -0.350 OA
ATOM     13  C3  SGN d 304       8.129  -4.151  54.212  0.00  0.00     0.083 C 
ATOM     14  C6  SGN d 304       9.450  -0.707  53.151  0.00  0.00     0.067 C 
ATOM     15  O3  SGN d 304       6.878  -4.691  54.518  0.00  0.00    -0.391 OA
ATOM     16  O2S SGN d 304       8.814  -8.062  56.821  0.00  0.00    -0.296 OA
ATOM     17  C1  SGN d 304      10.391  -3.660  55.210  0.00  0.00     0.147 C 
ATOM     18  S1  SGN d 304       9.009  -6.664  57.066  0.00  0.00     0.156 S 
ATOM     19  O6S SGN d 304       7.266   0.135  55.093  0.00  0.00    -0.572 OA
ATOM     20  S2  SGN d 304       8.460   0.947  55.104  0.00  0.00     0.251 S 
ATOM     21  H   SGN d 304       7.502  -2.099  54.671  0.00  0.00     0.091 H 
ATOM     22  H   SGN d 304       8.588  -3.977  56.294  0.00  0.00     0.076 H 
ATOM     23  H   SGN d 304       9.775  -2.732  52.827  0.00  0.00     0.090 H 
ATOM     24  H   SGN d 304      10.239  -5.975  55.255  0.00  0.00     0.140 HD
ATOM     25  H   SGN d 304      10.283  -5.523  58.054  0.00  0.00     0.231 HD
ATOM     26  H   SGN d 304       7.983  -5.196  57.918  0.00  0.00     0.231 HD
ATOM     27  H   SGN d 304      11.408  -5.276  54.684  0.00  0.00     0.212 HD
ATOM     28  H   SGN d 304       8.563  -4.625  53.357  0.00  0.00     0.089 H 
ATOM     29  H   SGN d 304       8.502  -0.413  52.749  0.00  0.00     0.080 H 
ATOM     30  H   SGN d 304      10.185  -0.596  52.381  0.00  0.00     0.080 H 
ATOM     31  H   SGN d 304       6.512  -4.242  55.296  0.00  0.00     0.210 HD
ATOM     32  H   SGN d 304       9.588  -8.421  56.359  0.00  0.00     0.231 HD
ATOM     33  H   SGN d 304      10.877  -3.658  56.163  0.00  0.00     0.131 H 
ATOM     34  C4  SGN d 302       0.719   1.947  53.223  0.00  0.00     0.095 C 
ATOM     35  C5  SGN d 302       1.147   0.726  54.025  0.00  0.00     0.091 C 
ATOM     36  C2  SGN d 302       1.379   0.835  51.177  0.00  0.00     0.081 C 
ATOM     37  O1  SGN d 302       3.009  -0.587  52.281  0.00  0.00    -0.348 OA
ATOM     38  C3  SGN d 302       1.571   2.074  51.990  0.00  0.00     0.083 C 
ATOM     39  O1S SGN d 302       2.750   0.563  47.586  0.00  0.00    -0.296 OA
ATOM     40  S1  SGN d 302       1.810   0.181  48.625  0.00  0.00     0.156 S 
ATOM     41  O4S SGN d 302      -3.463  -0.602  54.868  0.00  0.00    -0.572 OA
ATOM     42  O3S SGN d 302       1.706  -1.246  48.839  0.00  0.00    -0.296 OA
ATOM     43  C6  SGN d 302       0.245   0.528  55.214  0.00  0.00     0.067 C 
ATOM     44  O6S SGN d 302      -1.855  -1.233  56.442  0.00  0.00    -0.572 OA
ATOM     45  O5S SGN d 302      -2.825   0.961  56.472  0.00  0.00    -0.572 OA
ATOM     46  O2S SGN d 302       0.559   0.784  48.313  0.00  0.00    -0.296 OA
ATOM     47  O6  SGN d 302      -1.057   0.414  54.652  0.00  0.00    -0.254 OA
ATOM     48  O4  SGN d 302       0.988   3.110  53.973  0.00  0.00    -0.348 OA
ATOM     49  O3  SGN d 302       1.126   3.210  51.282  0.00  0.00    -0.391 OA
ATOM     50  N   SGN d 302       2.380   0.833  50.154  0.00  0.00    -0.210 NA
ATOM     51  S2  SGN d 302      -2.375  -0.140  55.663  0.00  0.00     0.251 S 
ATOM     52  C1  SGN d 302       1.645  -0.395  52.011  0.00  0.00     0.150 C 
ATOM     53  O5  SGN d 302       0.898  -0.373  53.206  0.00  0.00    -0.349 OA
ATOM     54  H   SGN d 302      -0.319   1.841  52.984  0.00  0.00     0.091 H 
ATOM     55  H   SGN d 302       2.163   0.840  54.337  0.00  0.00     0.090 H 
ATOM     56  H   SGN d 302       0.379   0.823  50.797  0.00  0.00     0.076 H 
ATOM     57  H   SGN d 302       2.610   2.186  52.222  0.00  0.00     0.089 H 
ATOM     58  H   SGN d 302       2.764   1.528  47.501  0.00  0.00     0.231 HD
ATOM     59  H   SGN d 302       2.582  -1.606  49.048  0.00  0.00     0.231 HD
ATOM     60  H   SGN d 302       0.301   1.367  55.876  0.00  0.00     0.080 H 
ATOM     61  H   SGN d 302       0.517  -0.328  55.796  0.00  0.00     0.080 H 
ATOM     62  H   SGN d 302       0.684   1.736  48.179  0.00  0.00     0.231 HD
ATOM     63  H   SGN d 302       0.185   3.111  51.071  0.00  0.00     0.210 HD
ATOM     64  H   SGN d 302       3.168   0.268  50.473  0.00  0.00     0.140 HD
ATOM     65  H   SGN d 302       1.325  -1.230  51.424  0.00  0.00     0.131 H 
ATOM     66  O61 IDS d 303       2.157  -2.756  54.597  0.00  0.00    -0.646 OA
ATOM     67  O5  IDS d 303       5.239  -1.322  53.612  0.00  0.00    -0.340 OA
ATOM     68  S   IDS d 303       6.239   0.917  49.988  0.00  0.00     0.252 S 
ATOM     69  C1  IDS d 303       6.244  -1.416  52.594  0.00  0.00     0.161 C 
ATOM     70  C5  IDS d 303       4.167  -2.273  53.482  0.00  0.00     0.152 C 
ATOM     71  C6  IDS d 303       3.217  -2.109  54.638  0.00  0.00     0.206 C 
ATOM     72  O3  IDS d 303       4.684  -3.519  50.890  0.00  0.00    -0.390 OA
ATOM     73  O2S IDS d 303       6.245   0.326  48.669  0.00  0.00    -0.572 OA
ATOM     74  O62 IDS d 303       3.441  -1.197  55.450  0.00  0.00    -0.646 OA
ATOM     75  O1S IDS d 303       5.762   2.269  49.938  0.00  0.00    -0.572 OA
ATOM     76  O2  IDS d 303       5.188   0.040  51.022  0.00  0.00    -0.244 OA
ATOM     77  C4  IDS d 303       3.406  -1.964  52.207  0.00  0.00     0.103 C 
ATOM     78  C2  IDS d 303       5.563  -1.278  51.226  0.00  0.00     0.134 C 
ATOM     79  C3  IDS d 303       4.336  -2.168  51.021  0.00  0.00     0.094 C 
ATOM     80  O3S IDS d 303       7.561   0.808  50.453  0.00  0.00    -0.572 OA
ATOM     81  H   IDS d 303       6.929  -0.603  52.728  0.00  0.00     0.133 H 
ATOM     82  H   IDS d 303       4.563  -3.267  53.464  0.00  0.00     0.104 H 
ATOM     83  H   IDS d 303       3.881  -4.048  50.762  0.00  0.00     0.210 HD
ATOM     84  H   IDS d 303       2.553  -2.598  52.092  0.00  0.00     0.092 H 
ATOM     85  H   IDS d 303       6.294  -1.602  50.516  0.00  0.00     0.097 H 
ATOM     86  H   IDS d 303       3.848  -1.894  50.109  0.00  0.00     0.091 H 
ATOM     87  O1S UAP d 301      -0.607   4.419  58.457  0.00  0.00    -0.572 OA
ATOM     88  O61 UAP d 301      -0.110   7.425  51.776  0.00  0.00    -0.642 OA
ATOM     89  C1  UAP d 301      -0.115   3.791  54.532  0.00  0.00     0.167 C 
ATOM     90  O62 UAP d 301      -1.740   6.009  51.588  0.00  0.00    -0.642 OA
ATOM     91  O3S UAP d 301       0.668   6.318  58.154  0.00  0.00    -0.572 OA
ATOM     92  C6  UAP d 301      -0.691   6.390  52.114  0.00  0.00     0.233 C 
ATOM     93  O3  UAP d 301       2.702   5.200  54.616  0.00  0.00    -0.389 OA
ATOM     94  C3  UAP d 301       1.433   5.722  54.913  0.00  0.00     0.086 C 
ATOM     95  S   UAP d 301      -0.571   5.681  57.803  0.00  0.00     0.252 S 
ATOM     96  O2  UAP d 301      -0.597   5.394  56.091  0.00  0.00    -0.244 OA
ATOM     97  C5  UAP d 301      -0.187   5.715  53.128  0.00  0.00     0.147 C 
ATOM     98  O2S UAP d 301      -1.730   6.479  58.129  0.00  0.00    -0.572 OA
ATOM     99  C2  UAP d 301       0.495   4.698  55.559  0.00  0.00     0.135 C 
ATOM    100  C4  UAP d 301       0.875   6.257  53.711  0.00  0.00    -0.034 C 
ATOM    101  O5  UAP d 301      -0.811   4.601  53.579  0.00  0.00    -0.311 OA
ATOM    102  H   UAP d 301      -0.828   3.091  54.916  0.00  0.00     0.134 H 
ATOM    103  H   UAP d 301       3.097   4.831  55.422  0.00  0.00     0.210 HD
ATOM    104  H   UAP d 301       1.547   6.494  55.643  0.00  0.00     0.093 H 
ATOM    105  H   UAP d 301       1.062   4.144  56.278  0.00  0.00     0.097 H 
ATOM    106  H   UAP d 301       1.311   7.088  53.284  0.00  0.00     0.085 H 
ENDROOT
TORSDOF 33
ENDMDL
MODEL 43
REMARK VINA RESULT:      -5.9      3.483      7.468
REMARK  0 active torsions:
REMARK  status: ('A' for Active; 'I' for Inactive)
REMARK       I    between atoms: C4_1  and  O4_32 
REMARK       I    between atoms: C2_2  and  N_17 
REMARK       I    between atoms: C4_3  and  O4_45 
REMARK       I    between atoms: C5_5  and  C6_20 
REMARK       I    between atoms: C5_7  and  C6_42 
REMARK       I    between atoms: C2_8  and  N_48 
REMARK       I    between atoms: O1_9  and  C1_58 
REMARK       I    between atoms: O1_9  and  C4_62 
REMARK       I    between atoms: C3_11  and  O3_46 
REMARK       I    between atoms: O1S_13  and  S1_14 
REMARK       I    between atoms: S1_14  and  N_48 
REMARK       I    between atoms: S1_14  and  O2S_39 
REMARK       I    between atoms: S1_14  and  O3S_16 
REMARK       I    between atoms: N_17  and  S1_64 
REMARK       I    between atoms: C1_18  and  O4_45 
REMARK       I    between atoms: C6_20  and  O6_41 
REMARK       I    between atoms: O1S_22  and  S1_64 
REMARK       I    between atoms: O3S_25  and  S1_64 
REMARK       I    between atoms: O1_26  and  C1_61 
REMARK       I    between atoms: S_27  and  O2_57 
REMARK       I    between atoms: O6_29  and  C6_42 
REMARK       I    between atoms: O6_29  and  S2_68 
REMARK       I    between atoms: C6_30  and  C5_54 
REMARK       I    between atoms: C1_31  and  O4_32 
REMARK       I    between atoms: C5_35  and  C6_36 
REMARK       I    between atoms: O3_37  and  C3_38 
REMARK       I    between atoms: C3_40  and  O3_44 
REMARK       I    between atoms: O6_41  and  S2_52 
REMARK       I    between atoms: S_43  and  O2_53 
REMARK       I    between atoms: O3_47  and  C3_69 
REMARK       I    between atoms: O2S_49  and  S1_64 
REMARK       I    between atoms: O2_53  and  C2_59 
REMARK       I    between atoms: O2_57  and  C2_65 
ROOT
ATOM      1  C4  SGN d 304       0.208  -2.086  52.980  0.00  0.00     0.095 C 
ATOM      2  C2  SGN d 304      -0.380  -4.542  52.810  0.00  0.00     0.081 C 
ATOM      3  O5S SGN d 304       1.179  -1.268  48.407  0.00  0.00    -0.572 OA
ATOM      4  C5  SGN d 304      -1.084  -1.821  52.191  0.00  0.00     0.091 C 
ATOM      5  N   SGN d 304      -0.768  -5.676  53.646  0.00  0.00    -0.210 NA
ATOM      6  O4S SGN d 304       0.928   0.935  49.229  0.00  0.00    -0.572 OA
ATOM      7  O1S SGN d 304      -0.656  -7.932  52.318  0.00  0.00    -0.296 OA
ATOM      8  O3S SGN d 304       1.384  -7.150  53.122  0.00  0.00    -0.296 OA
ATOM      9  O1  SGN d 304      -2.846  -4.276  52.490  0.00  0.00    -0.369 OA
ATOM     10  O6  SGN d 304      -0.789  -0.756  50.101  0.00  0.00    -0.254 OA
ATOM     11  O4  SGN d 304       0.468  -1.036  53.950  0.00  0.00    -0.348 OA
ATOM     12  O5  SGN d 304      -1.316  -2.899  51.256  0.00  0.00    -0.350 OA
ATOM     13  C3  SGN d 304      -0.041  -3.391  53.747  0.00  0.00     0.083 C 
ATOM     14  C6  SGN d 304      -1.112  -0.498  51.463  0.00  0.00     0.067 C 
ATOM     15  O3  SGN d 304       1.115  -3.734  54.450  0.00  0.00    -0.391 OA
ATOM     16  O2S SGN d 304      -0.173  -8.062  54.606  0.00  0.00    -0.296 OA
ATOM     17  C1  SGN d 304      -1.550  -4.169  51.883  0.00  0.00     0.147 C 
ATOM     18  S1  SGN d 304      -0.016  -7.280  53.415  0.00  0.00     0.156 S 
ATOM     19  O6S SGN d 304       1.796  -0.795  50.620  0.00  0.00    -0.572 OA
ATOM     20  S2  SGN d 304       0.869  -0.464  49.563  0.00  0.00     0.251 S 
ATOM     21  H   SGN d 304       1.044  -2.131  52.315  0.00  0.00     0.091 H 
ATOM     22  H   SGN d 304       0.464  -4.775  52.196  0.00  0.00     0.076 H 
ATOM     23  H   SGN d 304      -1.867  -1.772  52.918  0.00  0.00     0.090 H 
ATOM     24  H   SGN d 304      -1.771  -5.804  53.516  0.00  0.00     0.140 HD
ATOM     25  H   SGN d 304      -0.545  -7.398  51.516  0.00  0.00     0.231 HD
ATOM     26  H   SGN d 304       1.498  -6.621  52.316  0.00  0.00     0.231 HD
ATOM     27  H   SGN d 304      -2.942  -5.152  52.894  0.00  0.00     0.212 HD
ATOM     28  H   SGN d 304      -0.869  -3.229  54.406  0.00  0.00     0.089 H 
ATOM     29  H   SGN d 304      -0.392   0.170  51.888  0.00  0.00     0.080 H 
ATOM     30  H   SGN d 304      -2.076  -0.041  51.543  0.00  0.00     0.080 H 
ATOM     31  H   SGN d 304       1.845  -3.874  53.826  0.00  0.00     0.210 HD
ATOM     32  H   SGN d 304      -1.117  -8.153  54.811  0.00  0.00     0.231 HD
ATOM     33  H   SGN d 304      -1.577  -4.912  51.114  0.00  0.00     0.131 H 
ATOM     34  C4  SGN d 302       7.121   3.048  53.175  0.00  0.00     0.095 C 
ATOM     35  C5  SGN d 302       6.884   1.556  53.363  0.00  0.00     0.091 C 
ATOM     36  C2  SGN d 302       5.482   3.524  54.891  0.00  0.00     0.081 C 
ATOM     37  O1  SGN d 302       4.271   1.448  54.544  0.00  0.00    -0.348 OA
ATOM     38  C3  SGN d 302       5.857   3.808  53.473  0.00  0.00     0.083 C 
ATOM     39  O1S SGN d 302       2.688   5.505  56.659  0.00  0.00    -0.296 OA
ATOM     40  S1  SGN d 302       3.906   4.713  56.688  0.00  0.00     0.156 S 
ATOM     41  O4S SGN d 302      11.132   0.953  55.668  0.00  0.00    -0.572 OA
ATOM     42  O3S SGN d 302       3.859   3.581  57.586  0.00  0.00    -0.296 OA
ATOM     43  C6  SGN d 302       8.161   0.784  53.160  0.00  0.00     0.067 C 
ATOM     44  O6S SGN d 302      10.268  -0.880  54.505  0.00  0.00    -0.572 OA
ATOM     45  O5S SGN d 302      11.499   0.839  53.372  0.00  0.00    -0.572 OA
ATOM     46  O2S SGN d 302       4.984   5.598  56.972  0.00  0.00    -0.296 OA
ATOM     47  O6  SGN d 302       9.062   1.343  54.109  0.00  0.00    -0.254 OA
ATOM     48  O4  SGN d 302       7.388   3.305  51.815  0.00  0.00    -0.348 OA
ATOM     49  O3  SGN d 302       6.136   5.179  53.295  0.00  0.00    -0.391 OA
ATOM     50  N   SGN d 302       4.155   4.021  55.092  0.00  0.00    -0.210 NA
ATOM     51  S2  SGN d 302      10.576   0.524  54.429  0.00  0.00     0.251 S 
ATOM     52  C1  SGN d 302       5.401   2.036  55.133  0.00  0.00     0.150 C 
ATOM     53  O5  SGN d 302       6.578   1.386  54.711  0.00  0.00    -0.349 OA
ATOM     54  H   SGN d 302       7.926   3.339  53.818  0.00  0.00     0.091 H 
ATOM     55  H   SGN d 302       6.130   1.223  52.681  0.00  0.00     0.090 H 
ATOM     56  H   SGN d 302       6.209   3.971  55.537  0.00  0.00     0.076 H 
ATOM     57  H   SGN d 302       5.049   3.524  52.831  0.00  0.00     0.089 H 
ATOM     58  H   SGN d 302       2.796   6.241  56.037  0.00  0.00     0.231 HD
ATOM     59  H   SGN d 302       3.109   3.012  57.351  0.00  0.00     0.231 HD
ATOM     60  H   SGN d 302       8.529   0.915  52.164  0.00  0.00     0.080 H 
ATOM     61  H   SGN d 302       8.028  -0.269  53.292  0.00  0.00     0.080 H 
ATOM     62  H   SGN d 302       4.970   6.337  56.344  0.00  0.00     0.231 HD
ATOM     63  H   SGN d 302       6.868   5.438  53.875  0.00  0.00     0.210 HD
ATOM     64  H   SGN d 302       3.498   3.250  54.968  0.00  0.00     0.140 HD
ATOM     65  H   SGN d 302       5.301   1.909  56.190  0.00  0.00     0.131 H 
ATOM     66  O61 IDS d 303       5.665  -1.491  55.008  0.00  0.00    -0.646 OA
ATOM     67  O5  IDS d 303       2.733  -0.416  53.340  0.00  0.00    -0.340 OA
ATOM     68  S   IDS d 303       0.662   3.433  53.548  0.00  0.00     0.252 S 
ATOM     69  C1  IDS d 303       1.390   0.012  53.600  0.00  0.00     0.161 C 
ATOM     70  C5  IDS d 303       3.478  -0.788  54.514  0.00  0.00     0.152 C 
ATOM     71  C6  IDS d 303       4.843  -1.271  54.101  0.00  0.00     0.206 C 
ATOM     72  O3  IDS d 303       1.713  -0.005  56.707  0.00  0.00    -0.390 OA
ATOM     73  O2S IDS d 303      -0.000   3.912  54.740  0.00  0.00    -0.572 OA
ATOM     74  O62 IDS d 303       5.137  -1.224  52.896  0.00  0.00    -0.646 OA
ATOM     75  O1S IDS d 303       1.285   4.516  52.842  0.00  0.00    -0.572 OA
ATOM     76  O2  IDS d 303       1.897   2.317  53.968  0.00  0.00    -0.244 OA
ATOM     77  C4  IDS d 303       3.663   0.448  55.374  0.00  0.00     0.103 C 
ATOM     78  C2  IDS d 303       1.436   1.175  54.600  0.00  0.00     0.134 C 
ATOM     79  C3  IDS d 303       2.297   0.927  55.841  0.00  0.00     0.094 C 
ATOM     80  O3S IDS d 303      -0.334   2.779  52.803  0.00  0.00    -0.572 OA
ATOM     81  H   IDS d 303       0.969   0.360  52.679  0.00  0.00     0.133 H 
ATOM     82  H   IDS d 303       2.958  -1.555  55.048  0.00  0.00     0.104 H 
ATOM     83  H   IDS d 303       2.288  -0.134  57.478  0.00  0.00     0.210 HD
ATOM     84  H   IDS d 303       4.271   0.246  56.230  0.00  0.00     0.092 H 
ATOM     85  H   IDS d 303       0.430   1.284  54.948  0.00  0.00     0.097 H 
ATOM     86  H   IDS d 303       2.387   1.838  56.396  0.00  0.00     0.091 H 
ATOM     87  O1S UAP d 301      10.930   1.493  48.892  0.00  0.00    -0.572 OA
ATOM     88  O61 UAP d 301       8.129   8.062  50.602  0.00  0.00    -0.642 OA
ATOM     89  C1  UAP d 301       8.719   3.622  51.465  0.00  0.00     0.167 C 
ATOM     90  O62 UAP d 301       9.271   7.512  52.360  0.00  0.00    -0.642 OA
ATOM     91  O3S UAP d 301       9.973   2.789  47.240  0.00  0.00    -0.572 OA
ATOM     92  C6  UAP d 301       8.622   7.216  51.352  0.00  0.00     0.233 C 
ATOM     93  O3  UAP d 301       6.475   4.005  49.287  0.00  0.00    -0.389 OA
ATOM     94  C3  UAP d 301       7.816   4.422  49.271  0.00  0.00     0.086 C 
ATOM     95  S   UAP d 301      10.824   2.822  48.398  0.00  0.00     0.252 S 
ATOM     96  O2  UAP d 301      10.071   3.789  49.628  0.00  0.00    -0.244 OA
ATOM     97  C5  UAP d 301       8.496   5.951  51.006  0.00  0.00     0.147 C 
ATOM     98  O2S UAP d 301      12.123   3.391  48.130  0.00  0.00    -0.572 OA
ATOM     99  C2  UAP d 301       8.760   3.444  49.976  0.00  0.00     0.135 C 
ATOM    100  C4  UAP d 301       7.887   5.727  49.849  0.00  0.00    -0.034 C 
ATOM    101  O5  UAP d 301       9.063   4.980  51.761  0.00  0.00    -0.311 OA
ATOM    102  H   UAP d 301       9.404   3.008  52.011  0.00  0.00     0.134 H 
ATOM    103  H   UAP d 301       6.407   3.119  48.898  0.00  0.00     0.210 HD
ATOM    104  H   UAP d 301       8.150   4.447  48.256  0.00  0.00     0.093 H 
ATOM    105  H   UAP d 301       8.472   2.452  49.697  0.00  0.00     0.097 H 
ATOM    106  H   UAP d 301       7.452   6.519  49.351  0.00  0.00     0.085 H 
ENDROOT
TORSDOF 33
ENDMDL
MODEL 44
REMARK VINA RESULT:      -5.9      2.924      5.813
REMARK  0 active torsions:
REMARK  status: ('A' for Active; 'I' for Inactive)
REMARK       I    between atoms: C4_1  and  O4_32 
REMARK       I    between atoms: C2_2  and  N_17 
REMARK       I    between atoms: C4_3  and  O4_45 
REMARK       I    between atoms: C5_5  and  C6_20 
REMARK       I    between atoms: C5_7  and  C6_42 
REMARK       I    between atoms: C2_8  and  N_48 
REMARK       I    between atoms: O1_9  and  C1_58 
REMARK       I    between atoms: O1_9  and  C4_62 
REMARK       I    between atoms: C3_11  and  O3_46 
REMARK       I    between atoms: O1S_13  and  S1_14 
REMARK       I    between atoms: S1_14  and  N_48 
REMARK       I    between atoms: S1_14  and  O2S_39 
REMARK       I    between atoms: S1_14  and  O3S_16 
REMARK       I    between atoms: N_17  and  S1_64 
REMARK       I    between atoms: C1_18  and  O4_45 
REMARK       I    between atoms: C6_20  and  O6_41 
REMARK       I    between atoms: O1S_22  and  S1_64 
REMARK       I    between atoms: O3S_25  and  S1_64 
REMARK       I    between atoms: O1_26  and  C1_61 
REMARK       I    between atoms: S_27  and  O2_57 
REMARK       I    between atoms: O6_29  and  C6_42 
REMARK       I    between atoms: O6_29  and  S2_68 
REMARK       I    between atoms: C6_30  and  C5_54 
REMARK       I    between atoms: C1_31  and  O4_32 
REMARK       I    between atoms: C5_35  and  C6_36 
REMARK       I    between atoms: O3_37  and  C3_38 
REMARK       I    between atoms: C3_40  and  O3_44 
REMARK       I    between atoms: O6_41  and  S2_52 
REMARK       I    between atoms: S_43  and  O2_53 
REMARK       I    between atoms: O3_47  and  C3_69 
REMARK       I    between atoms: O2S_49  and  S1_64 
REMARK       I    between atoms: O2_53  and  C2_59 
REMARK       I    between atoms: O2_57  and  C2_65 
ROOT
ATOM      1  C4  SGN d 304      -2.427  -0.714  53.914  0.00  0.00     0.095 C 
ATOM      2  C2  SGN d 304      -4.394  -0.411  55.478  0.00  0.00     0.081 C 
ATOM      3  O5S SGN d 304      -0.270  -4.292  56.166  0.00  0.00    -0.572 OA
ATOM      4  C5  SGN d 304      -3.064  -2.059  53.529  0.00  0.00     0.091 C 
ATOM      5  N   SGN d 304      -5.572   0.432  55.670  0.00  0.00    -0.210 NA
ATOM      6  O4S SGN d 304       0.780  -4.376  54.049  0.00  0.00    -0.572 OA
ATOM      7  O1S SGN d 304      -6.658   0.046  58.022  0.00  0.00    -0.296 OA
ATOM      8  O3S SGN d 304      -4.801   1.450  58.004  0.00  0.00    -0.296 OA
ATOM      9  O1  SGN d 304      -5.999  -1.923  54.298  0.00  0.00    -0.369 OA
ATOM     10  O6  SGN d 304      -1.749  -3.968  53.995  0.00  0.00    -0.254 OA
ATOM     11  O4  SGN d 304      -1.759  -0.094  52.782  0.00  0.00    -0.348 OA
ATOM     12  O5  SGN d 304      -3.736  -2.628  54.675  0.00  0.00    -0.350 OA
ATOM     13  C3  SGN d 304      -3.597   0.188  54.329  0.00  0.00     0.083 C 
ATOM     14  C6  SGN d 304      -2.097  -3.066  52.951  0.00  0.00     0.067 C 
ATOM     15  O3  SGN d 304      -3.093   1.421  54.750  0.00  0.00    -0.391 OA
ATOM     16  O2S SGN d 304      -6.838   2.212  57.151  0.00  0.00    -0.296 OA
ATOM     17  C1  SGN d 304      -4.844  -1.845  55.145  0.00  0.00     0.147 C 
ATOM     18  S1  SGN d 304      -5.986   1.069  57.287  0.00  0.00     0.156 S 
ATOM     19  O6S SGN d 304       0.048  -2.301  54.966  0.00  0.00    -0.572 OA
ATOM     20  S2  SGN d 304      -0.221  -3.715  54.846  0.00  0.00     0.251 S 
ATOM     21  H   SGN d 304      -1.700  -0.857  54.684  0.00  0.00     0.091 H 
ATOM     22  H   SGN d 304      -3.791  -0.453  56.360  0.00  0.00     0.076 H 
ATOM     23  H   SGN d 304      -3.762  -1.840  52.747  0.00  0.00     0.090 H 
ATOM     24  H   SGN d 304      -6.375  -0.113  55.358  0.00  0.00     0.140 HD
ATOM     25  H   SGN d 304      -6.076  -0.725  58.111  0.00  0.00     0.231 HD
ATOM     26  H   SGN d 304      -4.219   0.679  58.100  0.00  0.00     0.231 HD
ATOM     27  H   SGN d 304      -6.708  -1.375  54.667  0.00  0.00     0.212 HD
ATOM     28  H   SGN d 304      -4.242   0.296  53.482  0.00  0.00     0.089 H 
ATOM     29  H   SGN d 304      -1.222  -2.568  52.591  0.00  0.00     0.080 H 
ATOM     30  H   SGN d 304      -2.542  -3.590  52.131  0.00  0.00     0.080 H 
ATOM     31  H   SGN d 304      -2.514   1.289  55.517  0.00  0.00     0.210 HD
ATOM     32  H   SGN d 304      -7.641   1.962  56.667  0.00  0.00     0.231 HD
ATOM     33  H   SGN d 304      -5.183  -2.278  56.063  0.00  0.00     0.131 H 
ATOM     34  C4  SGN d 302       5.951   1.212  53.396  0.00  0.00     0.095 C 
ATOM     35  C5  SGN d 302       4.788   1.694  54.251  0.00  0.00     0.091 C 
ATOM     36  C2  SGN d 302       4.690   1.721  51.394  0.00  0.00     0.081 C 
ATOM     37  O1  SGN d 302       2.536   1.469  52.486  0.00  0.00    -0.348 OA
ATOM     38  C3  SGN d 302       5.434   0.637  52.105  0.00  0.00     0.083 C 
ATOM     39  O1S SGN d 302       3.515   1.283  47.750  0.00  0.00    -0.296 OA
ATOM     40  S1  SGN d 302       3.913   2.116  48.870  0.00  0.00     0.156 S 
ATOM     41  O4S SGN d 302       7.109   5.797  55.476  0.00  0.00    -0.572 OA
ATOM     42  O3S SGN d 302       2.978   3.173  49.189  0.00  0.00    -0.296 OA
ATOM     43  C6  SGN d 302       5.289   2.357  55.506  0.00  0.00     0.067 C 
ATOM     44  O6S SGN d 302       5.532   4.962  56.983  0.00  0.00    -0.572 OA
ATOM     45  O5S SGN d 302       7.769   4.098  56.924  0.00  0.00    -0.572 OA
ATOM     46  O2S SGN d 302       5.223   2.603  48.598  0.00  0.00    -0.296 OA
ATOM     47  O6  SGN d 302       6.126   3.408  55.037  0.00  0.00    -0.254 OA
ATOM     48  O4  SGN d 302       6.586   0.134  54.046  0.00  0.00    -0.348 OA
ATOM     49  O3  SGN d 302       6.549   0.218  51.351  0.00  0.00    -0.391 OA
ATOM     50  N   SGN d 302       3.977   1.113  50.312  0.00  0.00    -0.210 NA
ATOM     51  S2  SGN d 302       6.670   4.632  56.165  0.00  0.00     0.251 S 
ATOM     52  C1  SGN d 302       3.635   2.320  52.291  0.00  0.00     0.150 C 
ATOM     53  O5  SGN d 302       4.183   2.719  53.527  0.00  0.00    -0.349 OA
ATOM     54  H   SGN d 302       6.608   2.041  53.232  0.00  0.00     0.091 H 
ATOM     55  H   SGN d 302       4.151   0.869  54.490  0.00  0.00     0.090 H 
ATOM     56  H   SGN d 302       5.387   2.469  51.080  0.00  0.00     0.076 H 
ATOM     57  H   SGN d 302       4.779  -0.195  52.263  0.00  0.00     0.089 H 
ATOM     58  H   SGN d 302       4.188   0.601  47.598  0.00  0.00     0.231 HD
ATOM     59  H   SGN d 302       2.105   2.789  49.365  0.00  0.00     0.231 HD
ATOM     60  H   SGN d 302       5.845   1.667  56.104  0.00  0.00     0.080 H 
ATOM     61  H   SGN d 302       4.494   2.714  56.127  0.00  0.00     0.080 H 
ATOM     62  H   SGN d 302       5.808   1.857  48.391  0.00  0.00     0.231 HD
ATOM     63  H   SGN d 302       7.143   0.971  51.208  0.00  0.00     0.210 HD
ATOM     64  H   SGN d 302       3.022   0.925  50.618  0.00  0.00     0.140 HD
ATOM     65  H   SGN d 302       3.268   3.188  51.785  0.00  0.00     0.131 H 
ATOM     66  O61 IDS d 303       1.613   3.379  54.996  0.00  0.00    -0.646 OA
ATOM     67  O5  IDS d 303       0.445   0.290  53.721  0.00  0.00    -0.340 OA
ATOM     68  S   IDS d 303       1.309  -1.650  49.895  0.00  0.00     0.252 S 
ATOM     69  C1  IDS d 303      -0.336  -0.257  52.650  0.00  0.00     0.161 C 
ATOM     70  C5  IDS d 303       0.529   1.727  53.725  0.00  0.00     0.152 C 
ATOM     71  C6  IDS d 303       1.321   2.172  54.925  0.00  0.00     0.206 C 
ATOM     72  O3  IDS d 303      -0.727   2.482  51.197  0.00  0.00    -0.390 OA
ATOM     73  O2S IDS d 303       0.881  -1.115  48.622  0.00  0.00    -0.572 OA
ATOM     74  O62 IDS d 303       1.811   1.297  55.657  0.00  0.00    -0.646 OA
ATOM     75  O1S IDS d 303       2.602  -2.260  49.782  0.00  0.00    -0.572 OA
ATOM     76  O2  IDS d 303       1.435  -0.389  51.052  0.00  0.00    -0.244 OA
ATOM     77  C4  IDS d 303       1.281   2.164  52.482  0.00  0.00     0.103 C 
ATOM     78  C2  IDS d 303       0.239   0.254  51.322  0.00  0.00     0.134 C 
ATOM     79  C3  IDS d 303       0.475   1.765  51.257  0.00  0.00     0.094 C 
ATOM     80  O3S IDS d 303       0.299  -2.548  50.281  0.00  0.00    -0.572 OA
ATOM     81  H   IDS d 303      -0.244  -1.323  52.683  0.00  0.00     0.133 H 
ATOM     82  H   IDS d 303      -0.454   2.149  53.750  0.00  0.00     0.104 H 
ATOM     83  H   IDS d 303      -0.534   3.431  51.157  0.00  0.00     0.210 HD
ATOM     84  H   IDS d 303       1.435   3.223  52.466  0.00  0.00     0.092 H 
ATOM     85  H   IDS d 303      -0.511   0.034  50.590  0.00  0.00     0.097 H 
ATOM     86  H   IDS d 303       1.011   2.000  50.361  0.00  0.00     0.091 H 
ATOM     87  O1S UAP d 301       8.656  -0.083  58.522  0.00  0.00    -0.572 OA
ATOM     88  O61 UAP d 301      10.407  -1.921  51.632  0.00  0.00    -0.642 OA
ATOM     89  C1  UAP d 301       7.849   0.380  54.626  0.00  0.00     0.167 C 
ATOM     90  O62 UAP d 301      10.556   0.241  51.645  0.00  0.00    -0.642 OA
ATOM     91  O3S UAP d 301       9.098  -2.288  58.008  0.00  0.00    -0.572 OA
ATOM     92  C6  UAP d 301      10.086  -0.816  52.076  0.00  0.00     0.233 C 
ATOM     93  O3  UAP d 301       6.856  -2.603  54.433  0.00  0.00    -0.389 OA
ATOM     94  C3  UAP d 301       8.123  -2.104  54.773  0.00  0.00     0.086 C 
ATOM     95  S   UAP d 301       9.521  -0.934  57.782  0.00  0.00     0.252 S 
ATOM     96  O2  UAP d 301       9.330  -0.554  56.098  0.00  0.00    -0.244 OA
ATOM     97  C5  UAP d 301       9.256  -0.792  53.100  0.00  0.00     0.147 C 
ATOM     98  O2S UAP d 301      10.906  -0.709  58.125  0.00  0.00    -0.572 OA
ATOM     99  C2  UAP d 301       8.064  -0.784  55.547  0.00  0.00     0.135 C 
ATOM    100  C4  UAP d 301       8.891  -1.975  53.575  0.00  0.00    -0.034 C 
ATOM    101  O5  UAP d 301       8.911   0.389  53.666  0.00  0.00    -0.311 OA
ATOM    102  H   UAP d 301       7.860   1.338  55.101  0.00  0.00     0.134 H 
ATOM    103  H   UAP d 301       6.319  -2.698  55.235  0.00  0.00     0.210 HD
ATOM    104  H   UAP d 301       8.591  -2.796  55.441  0.00  0.00     0.093 H 
ATOM    105  H   UAP d 301       7.274  -0.861  56.265  0.00  0.00     0.097 H 
ATOM    106  H   UAP d 301       9.170  -2.827  53.065  0.00  0.00     0.085 H 
ENDROOT
TORSDOF 33
ENDMDL
MODEL 45
REMARK VINA RESULT:      -5.7      2.272      2.827
REMARK  0 active torsions:
REMARK  status: ('A' for Active; 'I' for Inactive)
REMARK       I    between atoms: C4_1  and  O4_32 
REMARK       I    between atoms: C2_2  and  N_17 
REMARK       I    between atoms: C4_3  and  O4_45 
REMARK       I    between atoms: C5_5  and  C6_20 
REMARK       I    between atoms: C5_7  and  C6_42 
REMARK       I    between atoms: C2_8  and  N_48 
REMARK       I    between atoms: O1_9  and  C1_58 
REMARK       I    between atoms: O1_9  and  C4_62 
REMARK       I    between atoms: C3_11  and  O3_46 
REMARK       I    between atoms: O1S_13  and  S1_14 
REMARK       I    between atoms: S1_14  and  N_48 
REMARK       I    between atoms: S1_14  and  O2S_39 
REMARK       I    between atoms: S1_14  and  O3S_16 
REMARK       I    between atoms: N_17  and  S1_64 
REMARK       I    between atoms: C1_18  and  O4_45 
REMARK       I    between atoms: C6_20  and  O6_41 
REMARK       I    between atoms: O1S_22  and  S1_64 
REMARK       I    between atoms: O3S_25  and  S1_64 
REMARK       I    between atoms: O1_26  and  C1_61 
REMARK       I    between atoms: S_27  and  O2_57 
REMARK       I    between atoms: O6_29  and  C6_42 
REMARK       I    between atoms: O6_29  and  S2_68 
REMARK       I    between atoms: C6_30  and  C5_54 
REMARK       I    between atoms: C1_31  and  O4_32 
REMARK       I    between atoms: C5_35  and  C6_36 
REMARK       I    between atoms: O3_37  and  C3_38 
REMARK       I    between atoms: C3_40  and  O3_44 
REMARK       I    between atoms: O6_41  and  S2_52 
REMARK       I    between atoms: S_43  and  O2_53 
REMARK       I    between atoms: O3_47  and  C3_69 
REMARK       I    between atoms: O2S_49  and  S1_64 
REMARK       I    between atoms: O2_53  and  C2_59 
REMARK       I    between atoms: O2_57  and  C2_65 
ROOT
ATOM      1  C4  SGN d 304      -2.769   0.707  53.566  0.00  0.00     0.095 C 
ATOM      2  C2  SGN d 304      -4.650   2.387  53.355  0.00  0.00     0.081 C 
ATOM      3  O5S SGN d 304      -1.205   1.928  57.878  0.00  0.00    -0.572 OA
ATOM      4  C5  SGN d 304      -3.618   0.039  54.659  0.00  0.00     0.091 C 
ATOM      5  N   SGN d 304      -5.674   2.831  52.412  0.00  0.00    -0.210 NA
ATOM      6  O4S SGN d 304      -0.196  -0.194  57.602  0.00  0.00    -0.572 OA
ATOM      7  O1S SGN d 304      -6.792   5.069  53.190  0.00  0.00    -0.296 OA
ATOM      8  O3S SGN d 304      -4.733   5.303  52.131  0.00  0.00    -0.296 OA
ATOM      9  O1  SGN d 304      -6.486   0.953  54.262  0.00  0.00    -0.369 OA
ATOM     10  O6  SGN d 304      -2.626  -0.030  56.805  0.00  0.00    -0.254 OA
ATOM     11  O4  SGN d 304      -2.017  -0.272  52.799  0.00  0.00    -0.348 OA
ATOM     12  O5  SGN d 304      -4.365   1.044  55.381  0.00  0.00    -0.350 OA
ATOM     13  C3  SGN d 304      -3.774   1.381  52.623  0.00  0.00     0.083 C 
ATOM     14  C6  SGN d 304      -2.831  -0.809  55.631  0.00  0.00     0.067 C 
ATOM     15  O3  SGN d 304      -3.075   2.062  51.625  0.00  0.00    -0.391 OA
ATOM     16  O2S SGN d 304      -6.625   4.755  50.875  0.00  0.00    -0.296 OA
ATOM     17  C1  SGN d 304      -5.328   1.740  54.574  0.00  0.00     0.147 C 
ATOM     18  S1  SGN d 304      -5.968   4.571  52.135  0.00  0.00     0.156 S 
ATOM     19  O6S SGN d 304      -0.576   1.230  55.728  0.00  0.00    -0.572 OA
ATOM     20  S2  SGN d 304      -1.071   0.784  57.009  0.00  0.00     0.251 S 
ATOM     21  H   SGN d 304      -2.069   1.385  54.005  0.00  0.00     0.091 H 
ATOM     22  H   SGN d 304      -4.055   3.204  53.705  0.00  0.00     0.076 H 
ATOM     23  H   SGN d 304      -4.276  -0.634  54.150  0.00  0.00     0.090 H 
ATOM     24  H   SGN d 304      -6.557   2.434  52.732  0.00  0.00     0.140 HD
ATOM     25  H   SGN d 304      -6.342   4.942  54.040  0.00  0.00     0.231 HD
ATOM     26  H   SGN d 304      -4.283   5.183  52.982  0.00  0.00     0.231 HD
ATOM     27  H   SGN d 304      -7.095   1.476  53.719  0.00  0.00     0.212 HD
ATOM     28  H   SGN d 304      -4.399   0.616  52.212  0.00  0.00     0.089 H 
ATOM     29  H   SGN d 304      -1.889  -1.078  55.203  0.00  0.00     0.080 H 
ATOM     30  H   SGN d 304      -3.360  -1.710  55.862  0.00  0.00     0.080 H 
ATOM     31  H   SGN d 304      -2.519   2.748  52.029  0.00  0.00     0.210 HD
ATOM     32  H   SGN d 304      -7.461   4.262  50.871  0.00  0.00     0.231 HD
ATOM     33  H   SGN d 304      -5.726   2.540  55.162  0.00  0.00     0.131 H 
ATOM     34  C4  SGN d 302       5.807   0.281  52.898  0.00  0.00     0.095 C 
ATOM     35  C5  SGN d 302       4.743   1.280  52.465  0.00  0.00     0.091 C 
ATOM     36  C2  SGN d 302       4.632  -1.479  51.724  0.00  0.00     0.081 C 
ATOM     37  O1  SGN d 302       2.473  -0.381  51.898  0.00  0.00    -0.348 OA
ATOM     38  C3  SGN d 302       5.195  -1.085  53.051  0.00  0.00     0.083 C 
ATOM     39  O1S SGN d 302       3.376  -5.063  51.066  0.00  0.00    -0.296 OA
ATOM     40  S1  SGN d 302       3.911  -3.794  50.605  0.00  0.00     0.156 S 
ATOM     41  O4S SGN d 302       7.707   3.348  49.200  0.00  0.00    -0.572 OA
ATOM     42  O3S SGN d 302       3.162  -3.188  49.527  0.00  0.00    -0.296 OA
ATOM     43  C6  SGN d 302       5.354   2.633  52.217  0.00  0.00     0.067 C 
ATOM     44  O6S SGN d 302       6.026   4.681  50.125  0.00  0.00    -0.572 OA
ATOM     45  O5S SGN d 302       8.093   4.312  51.284  0.00  0.00    -0.572 OA
ATOM     46  O2S SGN d 302       5.281  -4.002  50.276  0.00  0.00    -0.296 OA
ATOM     47  O6  SGN d 302       6.347   2.393  51.227  0.00  0.00    -0.254 OA
ATOM     48  O4  SGN d 302       6.263   0.621  54.188  0.00  0.00    -0.348 OA
ATOM     49  O3  SGN d 302       6.222  -1.969  53.440  0.00  0.00    -0.391 OA
ATOM     50  N   SGN d 302       3.822  -2.642  51.929  0.00  0.00    -0.210 NA
ATOM     51  S2  SGN d 302       7.090   3.756  50.417  0.00  0.00     0.251 S 
ATOM     52  C1  SGN d 302       3.694  -0.416  51.206  0.00  0.00     0.150 C 
ATOM     53  O5  SGN d 302       4.307   0.853  51.213  0.00  0.00    -0.349 OA
ATOM     54  H   SGN d 302       6.589   0.291  52.166  0.00  0.00     0.091 H 
ATOM     55  H   SGN d 302       3.982   1.341  53.215  0.00  0.00     0.090 H 
ATOM     56  H   SGN d 302       5.438  -1.635  51.038  0.00  0.00     0.076 H 
ATOM     57  H   SGN d 302       4.415  -1.103  53.783  0.00  0.00     0.089 H 
ATOM     58  H   SGN d 302       3.928  -5.405  51.786  0.00  0.00     0.231 HD
ATOM     59  H   SGN d 302       2.239  -3.069  49.802  0.00  0.00     0.231 HD
ATOM     60  H   SGN d 302       5.795   3.020  53.111  0.00  0.00     0.080 H 
ATOM     61  H   SGN d 302       4.631   3.358  51.904  0.00  0.00     0.080 H 
ATOM     62  H   SGN d 302       5.736  -4.409  51.030  0.00  0.00     0.231 HD
ATOM     63  H   SGN d 302       6.929  -1.954  52.777  0.00  0.00     0.210 HD
ATOM     64  H   SGN d 302       2.851  -2.346  52.035  0.00  0.00     0.140 HD
ATOM     65  H   SGN d 302       3.468  -0.681  50.194  0.00  0.00     0.131 H 
ATOM     66  O61 IDS d 303       1.888   2.555  50.543  0.00  0.00    -0.646 OA
ATOM     67  O5  IDS d 303       0.227   0.628  53.004  0.00  0.00    -0.340 OA
ATOM     68  S   IDS d 303       0.738  -3.589  54.056  0.00  0.00     0.252 S 
ATOM     69  C1  IDS d 303      -0.639  -0.506  53.143  0.00  0.00     0.161 C 
ATOM     70  C5  IDS d 303       0.542   0.975  51.643  0.00  0.00     0.152 C 
ATOM     71  C6  IDS d 303       1.405   2.209  51.635  0.00  0.00     0.206 C 
ATOM     72  O3  IDS d 303      -0.592  -1.236  50.106  0.00  0.00    -0.390 OA
ATOM     73  O2S IDS d 303       0.394  -4.673  53.165  0.00  0.00    -0.572 OA
ATOM     74  O62 IDS d 303       1.751   2.684  52.728  0.00  0.00    -0.646 OA
ATOM     75  O1S IDS d 303       1.915  -3.904  54.813  0.00  0.00    -0.572 OA
ATOM     76  O2  IDS d 303       1.075  -2.168  53.153  0.00  0.00    -0.244 OA
ATOM     77  C4  IDS d 303       1.347  -0.159  51.037  0.00  0.00     0.103 C 
ATOM     78  C2  IDS d 303       0.001  -1.696  52.417  0.00  0.00     0.134 C 
ATOM     79  C3  IDS d 303       0.478  -1.406  50.993  0.00  0.00     0.094 C 
ATOM     80  O3S IDS d 303      -0.401  -3.384  54.853  0.00  0.00    -0.572 OA
ATOM     81  H   IDS d 303      -0.722  -0.734  54.186  0.00  0.00     0.133 H 
ATOM     82  H   IDS d 303      -0.359   1.147  51.093  0.00  0.00     0.104 H 
ATOM     83  H   IDS d 303      -0.248  -1.054  49.217  0.00  0.00     0.210 HD
ATOM     84  H   IDS d 303       1.670   0.074  50.044  0.00  0.00     0.092 H 
ATOM     85  H   IDS d 303      -0.779  -2.424  52.333  0.00  0.00     0.097 H 
ATOM     86  H   IDS d 303       1.039  -2.243  50.631  0.00  0.00     0.091 H 
ATOM     87  O1S UAP d 301       8.302   4.812  55.815  0.00  0.00    -0.572 OA
ATOM     88  O61 UAP d 301       9.684  -2.392  56.155  0.00  0.00    -0.642 OA
ATOM     89  C1  UAP d 301       7.554   1.184  54.291  0.00  0.00     0.167 C 
ATOM     90  O62 UAP d 301      10.182  -1.864  54.113  0.00  0.00    -0.642 OA
ATOM     91  O3S UAP d 301       8.377   3.762  57.868  0.00  0.00    -0.572 OA
ATOM     92  C6  UAP d 301       9.550  -1.680  55.157  0.00  0.00     0.233 C 
ATOM     93  O3  UAP d 301       6.089   0.324  56.944  0.00  0.00    -0.389 OA
ATOM     94  C3  UAP d 301       7.423   0.716  56.746  0.00  0.00     0.086 C 
ATOM     95  S   UAP d 301       9.013   3.849  56.583  0.00  0.00     0.252 S 
ATOM     96  O2  UAP d 301       8.874   2.318  55.776  0.00  0.00    -0.244 OA
ATOM     97  C5  UAP d 301       8.742  -0.643  55.256  0.00  0.00     0.147 C 
ATOM     98  O2S UAP d 301      10.417   4.172  56.666  0.00  0.00    -0.572 OA
ATOM     99  C2  UAP d 301       7.583   1.787  55.664  0.00  0.00     0.135 C 
ATOM    100  C4  UAP d 301       8.193  -0.450  56.448  0.00  0.00    -0.034 C 
ATOM    101  O5  UAP d 301       8.596   0.206  54.211  0.00  0.00    -0.311 OA
ATOM    102  H   UAP d 301       7.723   1.876  53.492  0.00  0.00     0.134 H 
ATOM    103  H   UAP d 301       5.549   1.104  57.148  0.00  0.00     0.210 HD
ATOM    104  H   UAP d 301       7.777   1.174  57.645  0.00  0.00     0.093 H 
ATOM    105  H   UAP d 301       6.796   2.501  55.791  0.00  0.00     0.097 H 
ATOM    106  H   UAP d 301       8.327  -1.163  57.182  0.00  0.00     0.085 H 
ENDROOT
TORSDOF 33
ENDMDL
MODEL 46
REMARK VINA RESULT:      -5.7      3.096     10.796
REMARK  0 active torsions:
REMARK  status: ('A' for Active; 'I' for Inactive)
REMARK       I    between atoms: C4_1  and  O4_32 
REMARK       I    between atoms: C2_2  and  N_17 
REMARK       I    between atoms: C4_3  and  O4_45 
REMARK       I    between atoms: C5_5  and  C6_20 
REMARK       I    between atoms: C5_7  and  C6_42 
REMARK       I    between atoms: C2_8  and  N_48 
REMARK       I    between atoms: O1_9  and  C1_58 
REMARK       I    between atoms: O1_9  and  C4_62 
REMARK       I    between atoms: C3_11  and  O3_46 
REMARK       I    between atoms: O1S_13  and  S1_14 
REMARK       I    between atoms: S1_14  and  N_48 
REMARK       I    between atoms: S1_14  and  O2S_39 
REMARK       I    between atoms: S1_14  and  O3S_16 
REMARK       I    between atoms: N_17  and  S1_64 
REMARK       I    between atoms: C1_18  and  O4_45 
REMARK       I    between atoms: C6_20  and  O6_41 
REMARK       I    between atoms: O1S_22  and  S1_64 
REMARK       I    between atoms: O3S_25  and  S1_64 
REMARK       I    between atoms: O1_26  and  C1_61 
REMARK       I    between atoms: S_27  and  O2_57 
REMARK       I    between atoms: O6_29  and  C6_42 
REMARK       I    between atoms: O6_29  and  S2_68 
REMARK       I    between atoms: C6_30  and  C5_54 
REMARK       I    between atoms: C1_31  and  O4_32 
REMARK       I    between atoms: C5_35  and  C6_36 
REMARK       I    between atoms: O3_37  and  C3_38 
REMARK       I    between atoms: C3_40  and  O3_44 
REMARK       I    between atoms: O6_41  and  S2_52 
REMARK       I    between atoms: S_43  and  O2_53 
REMARK       I    between atoms: O3_47  and  C3_69 
REMARK       I    between atoms: O2S_49  and  S1_64 
REMARK       I    between atoms: O2_53  and  C2_59 
REMARK       I    between atoms: O2_57  and  C2_65 
ROOT
ATOM      1  C4  SGN d 304       4.362   1.017  51.546  0.00  0.00     0.095 C 
ATOM      2  C2  SGN d 304       6.485   0.409  50.309  0.00  0.00     0.081 C 
ATOM      3  O5S SGN d 304       5.577  -0.549  55.859  0.00  0.00    -0.572 OA
ATOM      4  C5  SGN d 304       5.208   2.067  52.285  0.00  0.00     0.091 C 
ATOM      5  N   SGN d 304       7.068   0.446  48.970  0.00  0.00    -0.210 NA
ATOM      6  O4S SGN d 304       3.725   0.830  56.371  0.00  0.00    -0.572 OA
ATOM      7  O1S SGN d 304       9.278  -0.955  48.844  0.00  0.00    -0.296 OA
ATOM      8  O3S SGN d 304       7.309  -2.190  48.705  0.00  0.00    -0.296 OA
ATOM      9  O1  SGN d 304       7.679   2.587  50.599  0.00  0.00    -0.369 OA
ATOM     10  O6  SGN d 304       5.345   1.783  54.628  0.00  0.00    -0.254 OA
ATOM     11  O4  SGN d 304       3.003   1.482  51.326  0.00  0.00    -0.348 OA
ATOM     12  O5  SGN d 304       6.555   1.573  52.461  0.00  0.00    -0.350 OA
ATOM     13  C3  SGN d 304       5.032   0.843  50.177  0.00  0.00     0.083 C 
ATOM     14  C6  SGN d 304       4.643   2.499  53.618  0.00  0.00     0.067 C 
ATOM     15  O3  SGN d 304       4.351  -0.143  49.460  0.00  0.00    -0.391 OA
ATOM     16  O2S SGN d 304       7.991  -0.889  46.888  0.00  0.00    -0.296 OA
ATOM     17  C1  SGN d 304       7.262   1.367  51.229  0.00  0.00     0.147 C 
ATOM     18  S1  SGN d 304       7.950  -0.964  48.319  0.00  0.00     0.156 S 
ATOM     19  O6S SGN d 304       3.831  -0.352  54.303  0.00  0.00    -0.572 OA
ATOM     20  S2  SGN d 304       4.582   0.346  55.320  0.00  0.00     0.251 S 
ATOM     21  H   SGN d 304       4.310   0.115  52.118  0.00  0.00     0.091 H 
ATOM     22  H   SGN d 304       6.538  -0.570  50.736  0.00  0.00     0.076 H 
ATOM     23  H   SGN d 304       5.199   2.939  51.666  0.00  0.00     0.090 H 
ATOM     24  H   SGN d 304       7.722   1.229  48.958  0.00  0.00     0.140 HD
ATOM     25  H   SGN d 304       9.243  -1.007  49.812  0.00  0.00     0.231 HD
ATOM     26  H   SGN d 304       7.278  -2.248  49.673  0.00  0.00     0.231 HD
ATOM     27  H   SGN d 304       8.148   2.382  49.776  0.00  0.00     0.212 HD
ATOM     28  H   SGN d 304       5.000   1.787  49.675  0.00  0.00     0.089 H 
ATOM     29  H   SGN d 304       3.599   2.268  53.665  0.00  0.00     0.080 H 
ATOM     30  H   SGN d 304       4.757   3.554  53.753  0.00  0.00     0.080 H 
ATOM     31  H   SGN d 304       4.400  -0.985  49.940  0.00  0.00     0.210 HD
ATOM     32  H   SGN d 304       8.423  -0.062  46.620  0.00  0.00     0.231 HD
ATOM     33  H   SGN d 304       8.187   0.882  51.462  0.00  0.00     0.131 H 
ATOM     34  C4  SGN d 302      -2.816  -2.676  54.548  0.00  0.00     0.095 C 
ATOM     35  C5  SGN d 302      -1.731  -3.081  53.560  0.00  0.00     0.091 C 
ATOM     36  C2  SGN d 302      -3.196  -0.640  53.297  0.00  0.00     0.081 C 
ATOM     37  O1  SGN d 302      -0.946  -0.583  52.386  0.00  0.00    -0.348 OA
ATOM     38  C3  SGN d 302      -2.878  -1.177  54.655  0.00  0.00     0.083 C 
ATOM     39  O1S SGN d 302      -4.099   3.070  52.771  0.00  0.00    -0.296 OA
ATOM     40  S1  SGN d 302      -4.155   1.674  52.372  0.00  0.00     0.156 S 
ATOM     41  O4S SGN d 302      -4.558  -6.481  51.518  0.00  0.00    -0.572 OA
ATOM     42  O3S SGN d 302      -3.774   1.431  50.999  0.00  0.00    -0.296 OA
ATOM     43  C6  SGN d 302      -1.715  -4.574  53.369  0.00  0.00     0.067 C 
ATOM     44  O6S SGN d 302      -2.247  -6.812  51.439  0.00  0.00    -0.572 OA
ATOM     45  O5S SGN d 302      -3.516  -7.393  53.389  0.00  0.00    -0.572 OA
ATOM     46  O2S SGN d 302      -5.461   1.195  52.675  0.00  0.00    -0.296 OA
ATOM     47  O6  SGN d 302      -3.032  -4.885  52.930  0.00  0.00    -0.254 OA
ATOM     48  O4  SGN d 302      -2.454  -3.117  55.838  0.00  0.00    -0.348 OA
ATOM     49  O3  SGN d 302      -3.902  -0.859  55.570  0.00  0.00    -0.391 OA
ATOM     50  N   SGN d 302      -2.991   0.776  53.336  0.00  0.00    -0.210 NA
ATOM     51  S2  SGN d 302      -3.361  -6.481  52.289  0.00  0.00     0.251 S 
ATOM     52  C1  SGN d 302      -2.218  -1.165  52.274  0.00  0.00     0.150 C 
ATOM     53  O5  SGN d 302      -2.130  -2.571  52.327  0.00  0.00    -0.349 OA
ATOM     54  H   SGN d 302      -3.743  -3.093  54.213  0.00  0.00     0.091 H 
ATOM     55  H   SGN d 302      -0.780  -2.735  53.909  0.00  0.00     0.090 H 
ATOM     56  H   SGN d 302      -4.196  -0.920  53.040  0.00  0.00     0.076 H 
ATOM     57  H   SGN d 302      -1.956  -0.753  54.993  0.00  0.00     0.089 H 
ATOM     58  H   SGN d 302      -4.366   3.152  53.699  0.00  0.00     0.231 HD
ATOM     59  H   SGN d 302      -2.880   1.776  50.846  0.00  0.00     0.231 HD
ATOM     60  H   SGN d 302      -1.494  -5.072  54.290  0.00  0.00     0.080 H 
ATOM     61  H   SGN d 302      -0.966  -4.890  52.674  0.00  0.00     0.080 H 
ATOM     62  H   SGN d 302      -5.666   1.383  53.604  0.00  0.00     0.231 HD
ATOM     63  H   SGN d 302      -4.739  -1.242  55.264  0.00  0.00     0.210 HD
ATOM     64  H   SGN d 302      -2.055   0.978  52.983  0.00  0.00     0.140 HD
ATOM     65  H   SGN d 302      -2.605  -0.883  51.317  0.00  0.00     0.131 H 
ATOM     66  O61 IDS d 303       0.221  -2.971  50.454  0.00  0.00    -0.646 OA
ATOM     67  O5  IDS d 303       1.742  -0.353  52.289  0.00  0.00    -0.340 OA
ATOM     68  S   IDS d 303      -0.071   3.180  54.126  0.00  0.00     0.252 S 
ATOM     69  C1  IDS d 303       1.975   1.060  52.241  0.00  0.00     0.161 C 
ATOM     70  C5  IDS d 303       1.052  -0.884  51.142  0.00  0.00     0.152 C 
ATOM     71  C6  IDS d 303       0.924  -2.377  51.290  0.00  0.00     0.206 C 
ATOM     72  O3  IDS d 303       0.279   1.509  49.655  0.00  0.00    -0.390 OA
ATOM     73  O2S IDS d 303      -0.676   4.247  53.362  0.00  0.00    -0.572 OA
ATOM     74  O62 IDS d 303       1.345  -2.897  52.336  0.00  0.00    -0.646 OA
ATOM     75  O1S IDS d 303      -0.798   2.948  55.341  0.00  0.00    -0.572 OA
ATOM     76  O2  IDS d 303      -0.099   1.720  53.225  0.00  0.00    -0.244 OA
ATOM     77  C4  IDS d 303      -0.346  -0.298  51.113  0.00  0.00     0.103 C 
ATOM     78  C2  IDS d 303       0.627   1.767  52.047  0.00  0.00     0.134 C 
ATOM     79  C3  IDS d 303      -0.242   1.207  50.919  0.00  0.00     0.094 C 
ATOM     80  O3S IDS d 303       1.259   3.580  54.339  0.00  0.00    -0.572 OA
ATOM     81  H   IDS d 303       2.395   1.359  53.179  0.00  0.00     0.133 H 
ATOM     82  H   IDS d 303       1.591  -0.643  50.250  0.00  0.00     0.104 H 
ATOM     83  H   IDS d 303      -0.298   1.137  48.970  0.00  0.00     0.210 HD
ATOM     84  H   IDS d 303      -0.931  -0.711  50.319  0.00  0.00     0.092 H 
ATOM     85  H   IDS d 303       0.875   2.770  51.767  0.00  0.00     0.097 H 
ATOM     86  H   IDS d 303      -1.211   1.659  50.960  0.00  0.00     0.091 H 
ATOM     87  O1S UAP d 301      -1.468  -7.675  57.457  0.00  0.00    -0.572 OA
ATOM     88  O61 UAP d 301      -5.601  -1.960  59.499  0.00  0.00    -0.642 OA
ATOM     89  C1  UAP d 301      -3.166  -4.214  56.370  0.00  0.00     0.167 C 
ATOM     90  O62 UAP d 301      -6.652  -2.774  57.788  0.00  0.00    -0.642 OA
ATOM     91  O3S UAP d 301      -1.092  -6.668  59.499  0.00  0.00    -0.572 OA
ATOM     92  C6  UAP d 301      -5.618  -2.580  58.433  0.00  0.00     0.233 C 
ATOM     93  O3  UAP d 301      -1.240  -2.617  58.285  0.00  0.00    -0.389 OA
ATOM     94  C3  UAP d 301      -2.194  -3.600  58.594  0.00  0.00     0.086 C 
ATOM     95  S   UAP d 301      -2.114  -7.117  58.594  0.00  0.00     0.252 S 
ATOM     96  O2  UAP d 301      -3.040  -5.749  58.062  0.00  0.00    -0.244 OA
ATOM     97  C5  UAP d 301      -4.482  -3.108  58.021  0.00  0.00     0.147 C 
ATOM     98  O2S UAP d 301      -3.030  -8.057  59.196  0.00  0.00    -0.572 OA
ATOM     99  C2  UAP d 301      -2.318  -4.681  57.516  0.00  0.00     0.135 C 
ATOM    100  C4  UAP d 301      -3.445  -2.953  58.833  0.00  0.00    -0.034 C 
ATOM    101  O5  UAP d 301      -4.450  -3.847  56.886  0.00  0.00    -0.311 OA
ATOM    102  H   UAP d 301      -3.341  -4.948  55.611  0.00  0.00     0.134 H 
ATOM    103  H   UAP d 301      -0.382  -3.039  58.120  0.00  0.00     0.210 HD
ATOM    104  H   UAP d 301      -1.872  -4.120  59.472  0.00  0.00     0.093 H 
ATOM    105  H   UAP d 301      -1.331  -4.932  57.190  0.00  0.00     0.097 H 
ATOM    106  H   UAP d 301      -3.544  -2.346  59.661  0.00  0.00     0.085 H 
ENDROOT
TORSDOF 33
ENDMDL
MODEL 47
REMARK VINA RESULT:      -5.7      3.486     10.448
REMARK  0 active torsions:
REMARK  status: ('A' for Active; 'I' for Inactive)
REMARK       I    between atoms: C4_1  and  O4_32 
REMARK       I    between atoms: C2_2  and  N_17 
REMARK       I    between atoms: C4_3  and  O4_45 
REMARK       I    between atoms: C5_5  and  C6_20 
REMARK       I    between atoms: C5_7  and  C6_42 
REMARK       I    between atoms: C2_8  and  N_48 
REMARK       I    between atoms: O1_9  and  C1_58 
REMARK       I    between atoms: O1_9  and  C4_62 
REMARK       I    between atoms: C3_11  and  O3_46 
REMARK       I    between atoms: O1S_13  and  S1_14 
REMARK       I    between atoms: S1_14  and  N_48 
REMARK       I    between atoms: S1_14  and  O2S_39 
REMARK       I    between atoms: S1_14  and  O3S_16 
REMARK       I    between atoms: N_17  and  S1_64 
REMARK       I    between atoms: C1_18  and  O4_45 
REMARK       I    between atoms: C6_20  and  O6_41 
REMARK       I    between atoms: O1S_22  and  S1_64 
REMARK       I    between atoms: O3S_25  and  S1_64 
REMARK       I    between atoms: O1_26  and  C1_61 
REMARK       I    between atoms: S_27  and  O2_57 
REMARK       I    between atoms: O6_29  and  C6_42 
REMARK       I    between atoms: O6_29  and  S2_68 
REMARK       I    between atoms: C6_30  and  C5_54 
REMARK       I    between atoms: C1_31  and  O4_32 
REMARK       I    between atoms: C5_35  and  C6_36 
REMARK       I    between atoms: O3_37  and  C3_38 
REMARK       I    between atoms: C3_40  and  O3_44 
REMARK       I    between atoms: O6_41  and  S2_52 
REMARK       I    between atoms: S_43  and  O2_53 
REMARK       I    between atoms: O3_47  and  C3_69 
REMARK       I    between atoms: O2S_49  and  S1_64 
REMARK       I    between atoms: O2_53  and  C2_59 
REMARK       I    between atoms: O2_57  and  C2_65 
ROOT
ATOM      1  C4  SGN d 304       6.918   3.777  51.525  0.00  0.00     0.095 C 
ATOM      2  C2  SGN d 304       9.090   3.957  50.238  0.00  0.00     0.081 C 
ATOM      3  O5S SGN d 304       8.671   2.300  55.680  0.00  0.00    -0.572 OA
ATOM      4  C5  SGN d 304       7.422   4.969  52.354  0.00  0.00     0.091 C 
ATOM      5  N   SGN d 304       9.597   4.284  48.907  0.00  0.00    -0.210 NA
ATOM      6  O4S SGN d 304       6.501   2.995  56.313  0.00  0.00    -0.572 OA
ATOM      7  O1S SGN d 304      12.125   3.645  48.656  0.00  0.00    -0.296 OA
ATOM      8  O3S SGN d 304      10.625   1.882  48.408  0.00  0.00    -0.296 OA
ATOM      9  O1  SGN d 304       9.568   6.363  50.720  0.00  0.00    -0.369 OA
ATOM     10  O6  SGN d 304       7.704   4.543  54.663  0.00  0.00    -0.254 OA
ATOM     11  O4  SGN d 304       5.476   3.819  51.347  0.00  0.00    -0.348 OA
ATOM     12  O5  SGN d 304       8.860   4.899  52.485  0.00  0.00    -0.350 OA
ATOM     13  C3  SGN d 304       7.571   3.933  50.145  0.00  0.00     0.083 C 
ATOM     14  C6  SGN d 304       6.789   5.092  53.720  0.00  0.00     0.067 C 
ATOM     15  O3  SGN d 304       7.205   2.850  49.343  0.00  0.00    -0.391 OA
ATOM     16  O2S SGN d 304      10.826   3.479  46.715  0.00  0.00    -0.296 OA
ATOM     17  C1  SGN d 304       9.562   5.026  51.239  0.00  0.00     0.147 C 
ATOM     18  S1  SGN d 304      10.850   3.273  48.132  0.00  0.00     0.156 S 
ATOM     19  O6S SGN d 304       6.907   2.083  54.149  0.00  0.00    -0.572 OA
ATOM     20  S2  SGN d 304       7.436   2.889  55.223  0.00  0.00     0.251 S 
ATOM     21  H   SGN d 304       7.160   2.857  52.014  0.00  0.00     0.091 H 
ATOM     22  H   SGN d 304       9.451   3.008  50.575  0.00  0.00     0.076 H 
ATOM     23  H   SGN d 304       7.130   5.846  51.815  0.00  0.00     0.090 H 
ATOM     24  H   SGN d 304       9.979   5.228  48.965  0.00  0.00     0.140 HD
ATOM     25  H   SGN d 304      12.134   3.503  49.616  0.00  0.00     0.231 HD
ATOM     26  H   SGN d 304      10.639   1.736  49.367  0.00  0.00     0.231 HD
ATOM     27  H   SGN d 304      10.055   6.382  49.882  0.00  0.00     0.212 HD
ATOM     28  H   SGN d 304       7.238   4.861  49.729  0.00  0.00     0.089 H 
ATOM     29  H   SGN d 304       5.868   4.549  53.747  0.00  0.00     0.080 H 
ATOM     30  H   SGN d 304       6.579   6.116  53.949  0.00  0.00     0.080 H 
ATOM     31  H   SGN d 304       7.521   2.027  49.746  0.00  0.00     0.210 HD
ATOM     32  H   SGN d 304      10.977   4.417  46.521  0.00  0.00     0.231 HD
ATOM     33  H   SGN d 304      10.597   4.830  51.427  0.00  0.00     0.131 H 
ATOM     34  C4  SGN d 302       1.298  -2.182  54.188  0.00  0.00     0.095 C 
ATOM     35  C5  SGN d 302       2.427  -2.148  53.167  0.00  0.00     0.091 C 
ATOM     36  C2  SGN d 302       0.279  -0.262  53.122  0.00  0.00     0.081 C 
ATOM     37  O1  SGN d 302       2.378   0.560  52.219  0.00  0.00    -0.348 OA
ATOM     38  C3  SGN d 302       0.783  -0.788  54.427  0.00  0.00     0.083 C 
ATOM     39  O1S SGN d 302      -1.729   3.022  52.929  0.00  0.00    -0.296 OA
ATOM     40  S1  SGN d 302      -1.366   1.716  52.408  0.00  0.00     0.156 S 
ATOM     41  O4S SGN d 302       0.719  -6.066  50.831  0.00  0.00    -0.572 OA
ATOM     42  O3S SGN d 302      -0.967   1.719  51.018  0.00  0.00    -0.296 OA
ATOM     43  C6  SGN d 302       2.894  -3.543  52.844  0.00  0.00     0.067 C 
ATOM     44  O6S SGN d 302       3.018  -5.664  50.722  0.00  0.00    -0.572 OA
ATOM     45  O5S SGN d 302       2.042  -6.770  52.613  0.00  0.00    -0.572 OA
ATOM     46  O2S SGN d 302      -2.454   0.835  52.667  0.00  0.00    -0.296 OA
ATOM     47  O6  SGN d 302       1.723  -4.204  52.379  0.00  0.00    -0.254 OA
ATOM     48  O4  SGN d 302       1.812  -2.598  55.432  0.00  0.00    -0.348 OA
ATOM     49  O3  SGN d 302      -0.264  -0.879  55.367  0.00  0.00    -0.391 OA
ATOM     50  N   SGN d 302       0.042   1.140  53.287  0.00  0.00    -0.210 NA
ATOM     51  S2  SGN d 302       1.880  -5.764  51.598  0.00  0.00     0.251 S 
ATOM     52  C1  SGN d 302       1.342  -0.373  52.057  0.00  0.00     0.150 C 
ATOM     53  O5  SGN d 302       1.857  -1.683  51.984  0.00  0.00    -0.349 OA
ATOM     54  H   SGN d 302       0.534  -2.833  53.816  0.00  0.00     0.091 H 
ATOM     55  H   SGN d 302       3.235  -1.558  53.545  0.00  0.00     0.090 H 
ATOM     56  H   SGN d 302      -0.594  -0.813  52.841  0.00  0.00     0.076 H 
ATOM     57  H   SGN d 302       1.541  -0.132  54.802  0.00  0.00     0.089 H 
ATOM     58  H   SGN d 302      -1.983   2.940  53.861  0.00  0.00     0.231 HD
ATOM     59  H   SGN d 302      -0.226   2.333  50.896  0.00  0.00     0.231 HD
ATOM     60  H   SGN d 302       3.281  -4.025  53.717  0.00  0.00     0.080 H 
ATOM     61  H   SGN d 302       3.684  -3.553  52.123  0.00  0.00     0.080 H 
ATOM     62  H   SGN d 302      -2.682   0.871  53.609  0.00  0.00     0.231 HD
ATOM     63  H   SGN d 302      -0.951  -1.473  55.029  0.00  0.00     0.210 HD
ATOM     64  H   SGN d 302       0.862   1.648  52.954  0.00  0.00     0.140 HD
ATOM     65  H   SGN d 302       0.862  -0.143  51.128  0.00  0.00     0.131 H 
ATOM     66  O61 IDS d 303       4.166  -1.182  50.082  0.00  0.00    -0.646 OA
ATOM     67  O5  IDS d 303       4.864   1.611  52.143  0.00  0.00    -0.340 OA
ATOM     68  S   IDS d 303       2.108   4.248  54.288  0.00  0.00     0.252 S 
ATOM     69  C1  IDS d 303       4.652   3.026  52.221  0.00  0.00     0.161 C 
ATOM     70  C5  IDS d 303       4.337   0.993  50.954  0.00  0.00     0.152 C 
ATOM     71  C6  IDS d 303       4.676  -0.474  50.968  0.00  0.00     0.206 C 
ATOM     72  O3  IDS d 303       2.830   3.150  49.685  0.00  0.00    -0.390 OA
ATOM     73  O2S IDS d 303       1.185   5.138  53.622  0.00  0.00    -0.572 OA
ATOM     74  O62 IDS d 303       5.264  -0.926  51.963  0.00  0.00    -0.646 OA
ATOM     75  O1S IDS d 303       1.521   3.702  55.477  0.00  0.00    -0.572 OA
ATOM     76  O2  IDS d 303       2.503   2.931  53.261  0.00  0.00    -0.244 OA
ATOM     77  C4  IDS d 303       2.826   1.122  50.978  0.00  0.00     0.103 C 
ATOM     78  C2  IDS d 303       3.147   3.299  52.091  0.00  0.00     0.134 C 
ATOM     79  C3  IDS d 303       2.460   2.596  50.918  0.00  0.00     0.094 C 
ATOM     80  O3S IDS d 303       3.258   5.018  54.535  0.00  0.00    -0.572 OA
ATOM     81  H   IDS d 303       4.986   3.359  53.182  0.00  0.00     0.133 H 
ATOM     82  H   IDS d 303       4.752   1.462  50.086  0.00  0.00     0.104 H 
ATOM     83  H   IDS d 303       2.375   2.679  48.970  0.00  0.00     0.210 HD
ATOM     84  H   IDS d 303       2.374   0.618  50.149  0.00  0.00     0.092 H 
ATOM     85  H   IDS d 303       3.069   4.349  51.901  0.00  0.00     0.097 H 
ATOM     86  H   IDS d 303       1.401   2.725  51.000  0.00  0.00     0.091 H 
ATOM     87  O1S UAP d 301       4.189  -6.753  56.639  0.00  0.00    -0.572 OA
ATOM     88  O61 UAP d 301      -1.435  -2.776  59.183  0.00  0.00    -0.642 OA
ATOM     89  C1  UAP d 301       1.485  -3.901  55.865  0.00  0.00     0.167 C 
ATOM     90  O62 UAP d 301      -2.233  -3.726  57.406  0.00  0.00    -0.642 OA
ATOM     91  O3S UAP d 301       4.296  -5.856  58.763  0.00  0.00    -0.572 OA
ATOM     92  C6  UAP d 301      -1.291  -3.280  58.066  0.00  0.00     0.233 C 
ATOM     93  O3  UAP d 301       2.883  -1.959  57.914  0.00  0.00    -0.389 OA
ATOM     94  C3  UAP d 301       2.284  -3.209  58.135  0.00  0.00     0.086 C 
ATOM     95  S   UAP d 301       3.435  -6.519  57.822  0.00  0.00     0.252 S 
ATOM     96  O2  UAP d 301       2.120  -5.461  57.414  0.00  0.00    -0.244 OA
ATOM     97  C5  UAP d 301      -0.060  -3.397  57.609  0.00  0.00     0.147 C 
ATOM     98  O2S UAP d 301       2.867  -7.742  58.337  0.00  0.00    -0.572 OA
ATOM     99  C2  UAP d 301       2.466  -4.181  56.965  0.00  0.00     0.135 C 
ATOM    100  C4  UAP d 301       0.902  -3.000  58.431  0.00  0.00    -0.034 C 
ATOM    101  O5  UAP d 301       0.165  -3.991  56.412  0.00  0.00    -0.311 OA
ATOM    102  H   UAP d 301       1.522  -4.586  55.044  0.00  0.00     0.134 H 
ATOM    103  H   UAP d 301       3.823  -2.081  57.712  0.00  0.00     0.210 HD
ATOM    104  H   UAP d 301       2.773  -3.677  58.963  0.00  0.00     0.093 H 
ATOM    105  H   UAP d 301       3.474  -4.088  56.617  0.00  0.00     0.097 H 
ATOM    106  H   UAP d 301       0.645  -2.525  59.310  0.00  0.00     0.085 H 
ENDROOT
TORSDOF 33
ENDMDL
MODEL 48
REMARK VINA RESULT:      -5.6      2.603     10.992
REMARK  0 active torsions:
REMARK  status: ('A' for Active; 'I' for Inactive)
REMARK       I    between atoms: C4_1  and  O4_32 
REMARK       I    between atoms: C2_2  and  N_17 
REMARK       I    between atoms: C4_3  and  O4_45 
REMARK       I    between atoms: C5_5  and  C6_20 
REMARK       I    between atoms: C5_7  and  C6_42 
REMARK       I    between atoms: C2_8  and  N_48 
REMARK       I    between atoms: O1_9  and  C1_58 
REMARK       I    between atoms: O1_9  and  C4_62 
REMARK       I    between atoms: C3_11  and  O3_46 
REMARK       I    between atoms: O1S_13  and  S1_14 
REMARK       I    between atoms: S1_14  and  N_48 
REMARK       I    between atoms: S1_14  and  O2S_39 
REMARK       I    between atoms: S1_14  and  O3S_16 
REMARK       I    between atoms: N_17  and  S1_64 
REMARK       I    between atoms: C1_18  and  O4_45 
REMARK       I    between atoms: C6_20  and  O6_41 
REMARK       I    between atoms: O1S_22  and  S1_64 
REMARK       I    between atoms: O3S_25  and  S1_64 
REMARK       I    between atoms: O1_26  and  C1_61 
REMARK       I    between atoms: S_27  and  O2_57 
REMARK       I    between atoms: O6_29  and  C6_42 
REMARK       I    between atoms: O6_29  and  S2_68 
REMARK       I    between atoms: C6_30  and  C5_54 
REMARK       I    between atoms: C1_31  and  O4_32 
REMARK       I    between atoms: C5_35  and  C6_36 
REMARK       I    between atoms: O3_37  and  C3_38 
REMARK       I    between atoms: C3_40  and  O3_44 
REMARK       I    between atoms: O6_41  and  S2_52 
REMARK       I    between atoms: S_43  and  O2_53 
REMARK       I    between atoms: O3_47  and  C3_69 
REMARK       I    between atoms: O2S_49  and  S1_64 
REMARK       I    between atoms: O2_53  and  C2_59 
REMARK       I    between atoms: O2_57  and  C2_65 
ROOT
ATOM      1  C4  SGN d 304       4.977  -1.687  53.048  0.00  0.00     0.095 C 
ATOM      2  C2  SGN d 304       6.972  -0.160  53.356  0.00  0.00     0.081 C 
ATOM      3  O5S SGN d 304       3.281   0.161  49.018  0.00  0.00    -0.572 OA
ATOM      4  C5  SGN d 304       5.725  -2.259  51.833  0.00  0.00     0.091 C 
ATOM      5  N   SGN d 304       8.069   0.101  54.285  0.00  0.00    -0.210 NA
ATOM      6  O4S SGN d 304       2.151  -1.916  49.088  0.00  0.00    -0.572 OA
ATOM      7  O1S SGN d 304       9.290   2.350  53.726  0.00  0.00    -0.296 OA
ATOM      8  O3S SGN d 304       7.306   2.568  54.924  0.00  0.00    -0.296 OA
ATOM      9  O1  SGN d 304       8.663  -1.572  52.173  0.00  0.00    -0.369 OA
ATOM     10  O6  SGN d 304       4.624  -1.997  49.756  0.00  0.00    -0.254 OA
ATOM     11  O4  SGN d 304       4.203  -2.709  53.731  0.00  0.00    -0.348 OA
ATOM     12  O5  SGN d 304       6.498  -1.216  51.199  0.00  0.00    -0.350 OA
ATOM     13  C3  SGN d 304       6.070  -1.198  54.007  0.00  0.00     0.083 C 
ATOM     14  C6  SGN d 304       4.836  -2.929  50.811  0.00  0.00     0.067 C 
ATOM     15  O3  SGN d 304       5.468  -0.609  55.121  0.00  0.00    -0.391 OA
ATOM     16  O2S SGN d 304       9.219   1.755  55.990  0.00  0.00    -0.296 OA
ATOM     17  C1  SGN d 304       7.544  -0.686  52.028  0.00  0.00     0.147 C 
ATOM     18  S1  SGN d 304       8.490   1.771  54.757  0.00  0.00     0.156 S 
ATOM     19  O6S SGN d 304       2.717  -0.767  51.098  0.00  0.00    -0.572 OA
ATOM     20  S2  SGN d 304       3.117  -1.074  49.746  0.00  0.00     0.251 S 
ATOM     21  H   SGN d 304       4.301  -0.918  52.738  0.00  0.00     0.091 H 
ATOM     22  H   SGN d 304       6.415   0.728  53.144  0.00  0.00     0.076 H 
ATOM     23  H   SGN d 304       6.362  -3.028  52.216  0.00  0.00     0.090 H 
ATOM     24  H   SGN d 304       8.907  -0.303  53.867  0.00  0.00     0.140 HD
ATOM     25  H   SGN d 304       8.790   2.358  52.894  0.00  0.00     0.231 HD
ATOM     26  H   SGN d 304       6.807   2.583  54.092  0.00  0.00     0.231 HD
ATOM     27  H   SGN d 304       9.331  -1.159  52.740  0.00  0.00     0.212 HD
ATOM     28  H   SGN d 304       6.664  -2.044  54.284  0.00  0.00     0.089 H 
ATOM     29  H   SGN d 304       3.901  -3.195  51.257  0.00  0.00     0.080 H 
ATOM     30  H   SGN d 304       5.293  -3.823  50.440  0.00  0.00     0.080 H 
ATOM     31  H   SGN d 304       4.938   0.153  54.837  0.00  0.00     0.210 HD
ATOM     32  H   SGN d 304      10.020   1.218  55.885  0.00  0.00     0.231 HD
ATOM     33  H   SGN d 304       7.964   0.158  51.522  0.00  0.00     0.131 H 
ATOM     34  C4  SGN d 302      -3.564  -1.693  54.155  0.00  0.00     0.095 C 
ATOM     35  C5  SGN d 302      -2.417  -0.820  54.645  0.00  0.00     0.091 C 
ATOM     36  C2  SGN d 302      -2.448  -3.653  55.033  0.00  0.00     0.081 C 
ATOM     37  O1  SGN d 302      -0.234  -2.669  54.870  0.00  0.00    -0.348 OA
ATOM     38  C3  SGN d 302      -3.051  -3.061  53.800  0.00  0.00     0.083 C 
ATOM     39  O1S SGN d 302      -1.398  -7.358  55.169  0.00  0.00    -0.296 OA
ATOM     40  S1  SGN d 302      -1.825  -6.129  55.813  0.00  0.00     0.156 S 
ATOM     41  O4S SGN d 302      -5.072   0.987  58.307  0.00  0.00    -0.572 OA
ATOM     42  O3S SGN d 302      -0.985  -5.709  56.913  0.00  0.00    -0.296 OA
ATOM     43  C6  SGN d 302      -2.925   0.524  55.094  0.00  0.00     0.067 C 
ATOM     44  O6S SGN d 302      -3.356   2.326  57.458  0.00  0.00    -0.572 OA
ATOM     45  O5S SGN d 302      -5.498   2.228  56.385  0.00  0.00    -0.572 OA
ATOM     46  O2S SGN d 302      -3.187  -6.297  56.193  0.00  0.00    -0.296 OA
ATOM     47  O6  SGN d 302      -3.880   0.218  56.103  0.00  0.00    -0.254 OA
ATOM     48  O4  SGN d 302      -4.061  -1.165  52.946  0.00  0.00    -0.348 OA
ATOM     49  O3  SGN d 302      -4.152  -3.827  53.365  0.00  0.00    -0.391 OA
ATOM     50  N   SGN d 302      -1.727  -4.825  54.639  0.00  0.00    -0.210 NA
ATOM     51  S2  SGN d 302      -4.491   1.509  57.117  0.00  0.00     0.251 S 
ATOM     52  C1  SGN d 302      -1.418  -2.720  55.622  0.00  0.00     0.150 C 
ATOM     53  O5  SGN d 302      -1.947  -1.427  55.808  0.00  0.00    -0.349 OA
ATOM     54  H   SGN d 302      -4.306  -1.730  54.926  0.00  0.00     0.091 H 
ATOM     55  H   SGN d 302      -1.692  -0.709  53.866  0.00  0.00     0.090 H 
ATOM     56  H   SGN d 302      -3.228  -3.847  55.739  0.00  0.00     0.076 H 
ATOM     57  H   SGN d 302      -2.312  -3.031  53.026  0.00  0.00     0.089 H 
ATOM     58  H   SGN d 302      -2.007  -7.574  54.446  0.00  0.00     0.231 HD
ATOM     59  H   SGN d 302      -0.071  -5.610  56.601  0.00  0.00     0.231 HD
ATOM     60  H   SGN d 302      -3.384   1.047  54.282  0.00  0.00     0.080 H 
ATOM     61  H   SGN d 302      -2.141   1.159  55.452  0.00  0.00     0.080 H 
ATOM     62  H   SGN d 302      -3.705  -6.578  55.422  0.00  0.00     0.231 HD
ATOM     63  H   SGN d 302      -4.822  -3.855  54.064  0.00  0.00     0.210 HD
ATOM     64  H   SGN d 302      -0.746  -4.575  54.514  0.00  0.00     0.140 HD
ATOM     65  H   SGN d 302      -1.160  -3.124  56.579  0.00  0.00     0.131 H 
ATOM     66  O61 IDS d 303       0.608   0.032  56.541  0.00  0.00    -0.646 OA
ATOM     67  O5  IDS d 303       2.015  -1.661  53.769  0.00  0.00    -0.340 OA
ATOM     68  S   IDS d 303       1.177  -5.673  52.236  0.00  0.00     0.252 S 
ATOM     69  C1  IDS d 303       2.797  -2.817  53.440  0.00  0.00     0.161 C 
ATOM     70  C5  IDS d 303       1.791  -1.472  55.178  0.00  0.00     0.152 C 
ATOM     71  C6  IDS d 303       1.013  -0.201  55.389  0.00  0.00     0.206 C 
ATOM     72  O3  IDS d 303       2.855  -3.922  56.362  0.00  0.00    -0.390 OA
ATOM     73  O2S IDS d 303       1.494  -6.880  52.964  0.00  0.00    -0.572 OA
ATOM     74  O62 IDS d 303       0.644   0.429  54.385  0.00  0.00    -0.646 OA
ATOM     75  O1S IDS d 303      -0.055  -5.821  51.515  0.00  0.00    -0.572 OA
ATOM     76  O2  IDS d 303       0.979  -4.362  53.325  0.00  0.00    -0.244 OA
ATOM     77  C4  IDS d 303       0.946  -2.625  55.686  0.00  0.00     0.103 C 
ATOM     78  C2  IDS d 303       2.118  -4.051  54.050  0.00  0.00     0.134 C 
ATOM     79  C3  IDS d 303       1.733  -3.916  55.524  0.00  0.00     0.094 C 
ATOM     80  O3S IDS d 303       2.285  -5.436  51.405  0.00  0.00    -0.572 OA
ATOM     81  H   IDS d 303       2.812  -2.915  52.375  0.00  0.00     0.133 H 
ATOM     82  H   IDS d 303       2.728  -1.424  55.692  0.00  0.00     0.104 H 
ATOM     83  H   IDS d 303       2.569  -3.835  57.285  0.00  0.00     0.210 HD
ATOM     84  H   IDS d 303       0.689  -2.502  56.717  0.00  0.00     0.092 H 
ATOM     85  H   IDS d 303       2.852  -4.827  53.999  0.00  0.00     0.097 H 
ATOM     86  H   IDS d 303       1.138  -4.757  55.812  0.00  0.00     0.091 H 
ATOM     87  O1S UAP d 301      -5.902   3.310  51.970  0.00  0.00    -0.572 OA
ATOM     88  O61 UAP d 301      -7.766  -3.699  50.824  0.00  0.00    -0.642 OA
ATOM     89  C1  UAP d 301      -5.316  -0.519  52.988  0.00  0.00     0.167 C 
ATOM     90  O62 UAP d 301      -8.125  -3.407  52.941  0.00  0.00    -0.642 OA
ATOM     91  O3S UAP d 301      -6.148   2.535  49.811  0.00  0.00    -0.572 OA
ATOM     92  C6  UAP d 301      -7.535  -3.128  51.893  0.00  0.00     0.233 C 
ATOM     93  O3  UAP d 301      -4.045  -1.120  50.169  0.00  0.00    -0.389 OA
ATOM     94  C3  UAP d 301      -5.339  -0.679  50.490  0.00  0.00     0.086 C 
ATOM     95  S   UAP d 301      -6.711   2.496  51.132  0.00  0.00     0.252 S 
ATOM     96  O2  UAP d 301      -6.632   0.869  51.734  0.00  0.00    -0.244 OA
ATOM     97  C5  UAP d 301      -6.668  -2.136  51.876  0.00  0.00     0.147 C 
ATOM     98  O2S UAP d 301      -8.094   2.908  51.170  0.00  0.00    -0.572 OA
ATOM     99  C2  UAP d 301      -5.375   0.254  51.704  0.00  0.00     0.135 C 
ATOM    100  C4  UAP d 301      -6.168  -1.826  50.687  0.00  0.00    -0.034 C 
ATOM    101  O5  UAP d 301      -6.414  -1.437  53.007  0.00  0.00    -0.311 OA
ATOM    102  H   UAP d 301      -5.399   0.074  53.875  0.00  0.00     0.134 H 
ATOM    103  H   UAP d 301      -3.467  -0.353  50.032  0.00  0.00     0.210 HD
ATOM    104  H   UAP d 301      -5.708  -0.091  49.677  0.00  0.00     0.093 H 
ATOM    105  H   UAP d 301      -4.550   0.930  51.621  0.00  0.00     0.097 H 
ATOM    106  H   UAP d 301      -6.385  -2.431  49.880  0.00  0.00     0.085 H 
ENDROOT
TORSDOF 33
ENDMDL
MODEL 49
REMARK VINA RESULT:      -5.6      4.097      5.913
REMARK  0 active torsions:
REMARK  status: ('A' for Active; 'I' for Inactive)
REMARK       I    between atoms: C4_1  and  O4_32 
REMARK       I    between atoms: C2_2  and  N_17 
REMARK       I    between atoms: C4_3  and  O4_45 
REMARK       I    between atoms: C5_5  and  C6_20 
REMARK       I    between atoms: C5_7  and  C6_42 
REMARK       I    between atoms: C2_8  and  N_48 
REMARK       I    between atoms: O1_9  and  C1_58 
REMARK       I    between atoms: O1_9  and  C4_62 
REMARK       I    between atoms: C3_11  and  O3_46 
REMARK       I    between atoms: O1S_13  and  S1_14 
REMARK       I    between atoms: S1_14  and  N_48 
REMARK       I    between atoms: S1_14  and  O2S_39 
REMARK       I    between atoms: S1_14  and  O3S_16 
REMARK       I    between atoms: N_17  and  S1_64 
REMARK       I    between atoms: C1_18  and  O4_45 
REMARK       I    between atoms: C6_20  and  O6_41 
REMARK       I    between atoms: O1S_22  and  S1_64 
REMARK       I    between atoms: O3S_25  and  S1_64 
REMARK       I    between atoms: O1_26  and  C1_61 
REMARK       I    between atoms: S_27  and  O2_57 
REMARK       I    between atoms: O6_29  and  C6_42 
REMARK       I    between atoms: O6_29  and  S2_68 
REMARK       I    between atoms: C6_30  and  C5_54 
REMARK       I    between atoms: C1_31  and  O4_32 
REMARK       I    between atoms: C5_35  and  C6_36 
REMARK       I    between atoms: O3_37  and  C3_38 
REMARK       I    between atoms: C3_40  and  O3_44 
REMARK       I    between atoms: O6_41  and  S2_52 
REMARK       I    between atoms: S_43  and  O2_53 
REMARK       I    between atoms: O3_47  and  C3_69 
REMARK       I    between atoms: O2S_49  and  S1_64 
REMARK       I    between atoms: O2_53  and  C2_59 
REMARK       I    between atoms: O2_57  and  C2_65 
ROOT
ATOM      1  C4  SGN d 304      -2.831   4.730  54.241  0.00  0.00     0.095 C 
ATOM      2  C2  SGN d 304      -5.045   4.825  53.019  0.00  0.00     0.081 C 
ATOM      3  O5S SGN d 304      -0.500   8.031  51.753  0.00  0.00    -0.572 OA
ATOM      4  C5  SGN d 304      -3.167   6.136  54.761  0.00  0.00     0.091 C 
ATOM      5  N   SGN d 304      -6.361   4.190  53.004  0.00  0.00    -0.210 NA
ATOM      6  O4S SGN d 304       0.875   7.837  53.667  0.00  0.00    -0.572 OA
ATOM      7  O1S SGN d 304      -7.730   4.866  50.875  0.00  0.00    -0.296 OA
ATOM      8  O3S SGN d 304      -6.152   3.186  50.549  0.00  0.00    -0.296 OA
ATOM      9  O1  SGN d 304      -6.168   6.508  54.487  0.00  0.00    -0.369 OA
ATOM     10  O6  SGN d 304      -1.646   7.834  54.130  0.00  0.00    -0.254 OA
ATOM     11  O4  SGN d 304      -2.102   3.953  55.230  0.00  0.00    -0.348 OA
ATOM     12  O5  SGN d 304      -3.909   6.863  53.757  0.00  0.00    -0.350 OA
ATOM     13  C3  SGN d 304      -4.184   4.047  54.004  0.00  0.00     0.083 C 
ATOM     14  C6  SGN d 304      -1.967   6.945  55.195  0.00  0.00     0.067 C 
ATOM     15  O3  SGN d 304      -3.965   2.774  53.474  0.00  0.00    -0.391 OA
ATOM     16  O2S SGN d 304      -8.124   2.713  51.710  0.00  0.00    -0.296 OA
ATOM     17  C1  SGN d 304      -5.192   6.292  53.458  0.00  0.00     0.147 C 
ATOM     18  S1  SGN d 304      -7.128   3.713  51.463  0.00  0.00     0.156 S 
ATOM     19  O6S SGN d 304      -0.327   5.955  52.832  0.00  0.00    -0.572 OA
ATOM     20  S2  SGN d 304      -0.336   7.385  53.032  0.00  0.00     0.251 S 
ATOM     21  H   SGN d 304      -2.222   4.794  53.365  0.00  0.00     0.091 H 
ATOM     22  H   SGN d 304      -4.591   4.816  52.050  0.00  0.00     0.076 H 
ATOM     23  H   SGN d 304      -3.757   5.991  55.641  0.00  0.00     0.090 H 
ATOM     24  H   SGN d 304      -7.002   4.840  53.459  0.00  0.00     0.140 HD
ATOM     25  H   SGN d 304      -7.050   5.538  50.711  0.00  0.00     0.231 HD
ATOM     26  H   SGN d 304      -5.474   3.858  50.378  0.00  0.00     0.231 HD
ATOM     27  H   SGN d 304      -7.008   6.101  54.227  0.00  0.00     0.212 HD
ATOM     28  H   SGN d 304      -4.695   4.000  54.943  0.00  0.00     0.089 H 
ATOM     29  H   SGN d 304      -1.139   6.296  55.392  0.00  0.00     0.080 H 
ATOM     30  H   SGN d 304      -2.182   7.490  56.091  0.00  0.00     0.080 H 
ATOM     31  H   SGN d 304      -3.502   2.851  52.625  0.00  0.00     0.210 HD
ATOM     32  H   SGN d 304      -8.787   3.062  52.326  0.00  0.00     0.231 HD
ATOM     33  H   SGN d 304      -5.597   6.821  52.620  0.00  0.00     0.131 H 
ATOM     34  C4  SGN d 302       5.088   1.472  53.311  0.00  0.00     0.095 C 
ATOM     35  C5  SGN d 302       3.739   1.226  52.649  0.00  0.00     0.091 C 
ATOM     36  C2  SGN d 302       4.097   1.067  55.482  0.00  0.00     0.081 C 
ATOM     37  O1  SGN d 302       1.867   1.714  54.769  0.00  0.00    -0.348 OA
ATOM     38  C3  SGN d 302       4.886   2.053  54.684  0.00  0.00     0.083 C 
ATOM     39  O1S SGN d 302       3.608   1.496  59.280  0.00  0.00    -0.296 OA
ATOM     40  S1  SGN d 302       3.679   0.669  58.088  0.00  0.00     0.156 S 
ATOM     41  O4S SGN d 302       5.125  -3.125  50.953  0.00  0.00    -0.572 OA
ATOM     42  O3S SGN d 302       2.543  -0.208  57.903  0.00  0.00    -0.296 OA
ATOM     43  C6  SGN d 302       3.917   0.557  51.312  0.00  0.00     0.067 C 
ATOM     44  O6S SGN d 302       3.487  -1.972  49.750  0.00  0.00    -0.572 OA
ATOM     45  O5S SGN d 302       5.816  -1.479  49.458  0.00  0.00    -0.572 OA
ATOM     46  O2S SGN d 302       4.916  -0.033  58.127  0.00  0.00    -0.296 OA
ATOM     47  O6  SGN d 302       4.633  -0.636  51.609  0.00  0.00    -0.254 OA
ATOM     48  O4  SGN d 302       5.780   2.468  52.592  0.00  0.00    -0.348 OA
ATOM     49  O3  SGN d 302       6.161   2.250  55.252  0.00  0.00    -0.391 OA
ATOM     50  N   SGN d 302       3.676   1.723  56.682  0.00  0.00    -0.210 NA
ATOM     51  S2  SGN d 302       4.780  -1.870  50.375  0.00  0.00     0.251 S 
ATOM     52  C1  SGN d 302       2.827   0.690  54.757  0.00  0.00     0.150 C 
ATOM     53  O5  SGN d 302       3.097   0.274  53.438  0.00  0.00    -0.349 OA
ATOM     54  H   SGN d 302       5.617   0.542  53.343  0.00  0.00     0.091 H 
ATOM     55  H   SGN d 302       3.218   2.153  52.541  0.00  0.00     0.090 H 
ATOM     56  H   SGN d 302       4.701   0.201  55.656  0.00  0.00     0.076 H 
ATOM     57  H   SGN d 302       4.361   2.986  54.658  0.00  0.00     0.089 H 
ATOM     58  H   SGN d 302       4.400   2.053  59.335  0.00  0.00     0.231 HD
ATOM     59  H   SGN d 302       1.728   0.319  57.884  0.00  0.00     0.231 HD
ATOM     60  H   SGN d 302       4.477   1.181  50.647  0.00  0.00     0.080 H 
ATOM     61  H   SGN d 302       2.984   0.364  50.823  0.00  0.00     0.080 H 
ATOM     62  H   SGN d 302       5.642   0.598  58.252  0.00  0.00     0.231 HD
ATOM     63  H   SGN d 302       6.638   1.406  55.276  0.00  0.00     0.210 HD
ATOM     64  H   SGN d 302       2.729   2.076  56.543  0.00  0.00     0.140 HD
ATOM     65  H   SGN d 302       2.407  -0.134  55.296  0.00  0.00     0.131 H 
ATOM     66  O61 IDS d 303       0.252   0.108  52.400  0.00  0.00    -0.646 OA
ATOM     67  O5  IDS d 303      -0.170   3.273  53.929  0.00  0.00    -0.340 OA
ATOM     68  S   IDS d 303       1.603   4.849  57.606  0.00  0.00     0.252 S 
ATOM     69  C1  IDS d 303      -0.668   3.880  55.129  0.00  0.00     0.161 C 
ATOM     70  C5  IDS d 303      -0.327   1.843  53.875  0.00  0.00     0.152 C 
ATOM     71  C6  IDS d 303       0.179   1.340  52.549  0.00  0.00     0.206 C 
ATOM     72  O3  IDS d 303      -1.269   1.167  56.557  0.00  0.00    -0.390 OA
ATOM     73  O2S IDS d 303       1.302   4.324  58.918  0.00  0.00    -0.572 OA
ATOM     74  O62 IDS d 303       0.683   2.164  51.769  0.00  0.00    -0.646 OA
ATOM     75  O1S IDS d 303       2.980   5.239  57.517  0.00  0.00    -0.572 OA
ATOM     76  O2  IDS d 303       1.332   3.646  56.413  0.00  0.00    -0.244 OA
ATOM     77  C4  IDS d 303       0.531   1.227  54.964  0.00  0.00     0.103 C 
ATOM     78  C2  IDS d 303       0.018   3.216  56.329  0.00  0.00     0.134 C 
ATOM     79  C3  IDS d 303       0.009   1.686  56.316  0.00  0.00     0.094 C 
ATOM     80  O3S IDS d 303       0.707   5.915  57.416  0.00  0.00    -0.572 OA
ATOM     81  H   IDS d 303      -0.409   4.919  55.107  0.00  0.00     0.133 H 
ATOM     82  H   IDS d 303      -1.357   1.585  54.003  0.00  0.00     0.104 H 
ATOM     83  H   IDS d 303      -1.233   0.198  56.540  0.00  0.00     0.210 HD
ATOM     84  H   IDS d 303       0.509   0.159  54.927  0.00  0.00     0.092 H 
ATOM     85  H   IDS d 303      -0.558   3.514  57.180  0.00  0.00     0.097 H 
ATOM     86  H   IDS d 303       0.634   1.322  57.104  0.00  0.00     0.091 H 
ATOM     87  O1S UAP d 301       7.115   2.585  47.841  0.00  0.00    -0.572 OA
ATOM     88  O61 UAP d 301      10.224   3.761  54.389  0.00  0.00    -0.642 OA
ATOM     89  C1  UAP d 301       6.876   2.055  51.804  0.00  0.00     0.167 C 
ATOM     90  O62 UAP d 301      10.010   1.606  54.296  0.00  0.00    -0.642 OA
ATOM     91  O3S UAP d 301       7.991   4.663  48.330  0.00  0.00    -0.572 OA
ATOM     92  C6  UAP d 301       9.658   2.745  53.976  0.00  0.00     0.233 C 
ATOM     93  O3  UAP d 301       6.433   5.144  52.235  0.00  0.00    -0.389 OA
ATOM     94  C3  UAP d 301       7.530   4.468  51.676  0.00  0.00     0.086 C 
ATOM     95  S   UAP d 301       8.216   3.249  48.449  0.00  0.00     0.252 S 
ATOM     96  O2  UAP d 301       8.236   2.817  50.130  0.00  0.00    -0.244 OA
ATOM     97  C5  UAP d 301       8.683   2.907  53.104  0.00  0.00     0.147 C 
ATOM     98  O2S UAP d 301       9.471   2.824  47.874  0.00  0.00    -0.572 OA
ATOM     99  C2  UAP d 301       7.130   3.216  50.890  0.00  0.00     0.135 C 
ATOM    100  C4  UAP d 301       8.447   4.156  52.726  0.00  0.00    -0.034 C 
ATOM    101  O5  UAP d 301       8.061   1.826  52.574  0.00  0.00    -0.311 OA
ATOM    102  H   UAP d 301       6.652   1.132  51.310  0.00  0.00     0.134 H 
ATOM    103  H   UAP d 301       5.798   5.364  51.535  0.00  0.00     0.210 HD
ATOM    104  H   UAP d 301       7.993   5.110  50.958  0.00  0.00     0.093 H 
ATOM    105  H   UAP d 301       6.259   3.454  50.315  0.00  0.00     0.097 H 
ATOM    106  H   UAP d 301       8.941   4.925  53.204  0.00  0.00     0.085 H 
ENDROOT
TORSDOF 33
ENDMDL
MODEL 50
REMARK VINA RESULT:      -5.6      2.459      3.516
REMARK  0 active torsions:
REMARK  status: ('A' for Active; 'I' for Inactive)
REMARK       I    between atoms: C4_1  and  O4_32 
REMARK       I    between atoms: C2_2  and  N_17 
REMARK       I    between atoms: C4_3  and  O4_45 
REMARK       I    between atoms: C5_5  and  C6_20 
REMARK       I    between atoms: C5_7  and  C6_42 
REMARK       I    between atoms: C2_8  and  N_48 
REMARK       I    between atoms: O1_9  and  C1_58 
REMARK       I    between atoms: O1_9  and  C4_62 
REMARK       I    between atoms: C3_11  and  O3_46 
REMARK       I    between atoms: O1S_13  and  S1_14 
REMARK       I    between atoms: S1_14  and  N_48 
REMARK       I    between atoms: S1_14  and  O2S_39 
REMARK       I    between atoms: S1_14  and  O3S_16 
REMARK       I    between atoms: N_17  and  S1_64 
REMARK       I    between atoms: C1_18  and  O4_45 
REMARK       I    between atoms: C6_20  and  O6_41 
REMARK       I    between atoms: O1S_22  and  S1_64 
REMARK       I    between atoms: O3S_25  and  S1_64 
REMARK       I    between atoms: O1_26  and  C1_61 
REMARK       I    between atoms: S_27  and  O2_57 
REMARK       I    between atoms: O6_29  and  C6_42 
REMARK       I    between atoms: O6_29  and  S2_68 
REMARK       I    between atoms: C6_30  and  C5_54 
REMARK       I    between atoms: C1_31  and  O4_32 
REMARK       I    between atoms: C5_35  and  C6_36 
REMARK       I    between atoms: O3_37  and  C3_38 
REMARK       I    between atoms: C3_40  and  O3_44 
REMARK       I    between atoms: O6_41  and  S2_52 
REMARK       I    between atoms: S_43  and  O2_53 
REMARK       I    between atoms: O3_47  and  C3_69 
REMARK       I    between atoms: O2S_49  and  S1_64 
REMARK       I    between atoms: O2_53  and  C2_59 
REMARK       I    between atoms: O2_57  and  C2_65 
ROOT
ATOM      1  C4  SGN d 304      -3.626  -0.458  53.514  0.00  0.00     0.095 C 
ATOM      2  C2  SGN d 304      -5.437  -0.754  51.771  0.00  0.00     0.081 C 
ATOM      3  O5S SGN d 304      -2.849   4.190  52.951  0.00  0.00    -0.572 OA
ATOM      4  C5  SGN d 304      -4.656   0.363  54.305  0.00  0.00     0.091 C 
ATOM      5  N   SGN d 304      -6.277  -1.789  51.172  0.00  0.00    -0.210 NA
ATOM      6  O4S SGN d 304      -1.810   3.796  55.039  0.00  0.00    -0.572 OA
ATOM      7  O1S SGN d 304      -7.512  -0.908  49.036  0.00  0.00    -0.296 OA
ATOM      8  O3S SGN d 304      -5.297  -1.546  48.711  0.00  0.00    -0.296 OA
ATOM      9  O1  SGN d 304      -7.407  -0.397  53.269  0.00  0.00    -0.369 OA
ATOM     10  O6  SGN d 304      -4.061   2.617  54.701  0.00  0.00    -0.254 OA
ATOM     11  O4  SGN d 304      -2.751  -1.213  54.395  0.00  0.00    -0.348 OA
ATOM     12  O5  SGN d 304      -5.517   1.078  53.392  0.00  0.00    -0.350 OA
ATOM     13  C3  SGN d 304      -4.446  -1.457  52.688  0.00  0.00     0.083 C 
ATOM     14  C6  SGN d 304      -4.055   1.327  55.302  0.00  0.00     0.067 C 
ATOM     15  O3  SGN d 304      -3.580  -2.209  51.892  0.00  0.00    -0.391 OA
ATOM     16  O2S SGN d 304      -6.937  -3.179  49.027  0.00  0.00    -0.296 OA
ATOM     17  C1  SGN d 304      -6.322   0.223  52.564  0.00  0.00     0.147 C 
ATOM     18  S1  SGN d 304      -6.515  -1.862  49.403  0.00  0.00     0.156 S 
ATOM     19  O6S SGN d 304      -1.850   2.106  53.358  0.00  0.00    -0.572 OA
ATOM     20  S2  SGN d 304      -2.565   3.204  53.965  0.00  0.00     0.251 S 
ATOM     21  H   SGN d 304      -3.013   0.189  52.922  0.00  0.00     0.091 H 
ATOM     22  H   SGN d 304      -4.912  -0.193  51.027  0.00  0.00     0.076 H 
ATOM     23  H   SGN d 304      -5.215  -0.344  54.882  0.00  0.00     0.090 H 
ATOM     24  H   SGN d 304      -7.203  -1.688  51.586  0.00  0.00     0.140 HD
ATOM     25  H   SGN d 304      -7.219  -0.020  49.293  0.00  0.00     0.231 HD
ATOM     26  H   SGN d 304      -5.005  -0.655  48.961  0.00  0.00     0.231 HD
ATOM     27  H   SGN d 304      -7.909  -0.958  52.659  0.00  0.00     0.212 HD
ATOM     28  H   SGN d 304      -4.990  -2.076  53.371  0.00  0.00     0.089 H 
ATOM     29  H   SGN d 304      -3.052   1.036  55.533  0.00  0.00     0.080 H 
ATOM     30  H   SGN d 304      -4.618   1.331  56.212  0.00  0.00     0.080 H 
ATOM     31  H   SGN d 304      -3.104  -1.621  51.285  0.00  0.00     0.210 HD
ATOM     32  H   SGN d 304      -7.760  -3.399  49.492  0.00  0.00     0.231 HD
ATOM     33  H   SGN d 304      -6.816   0.839  51.843  0.00  0.00     0.131 H 
ATOM     34  C4  SGN d 302       4.933   0.333  54.071  0.00  0.00     0.095 C 
ATOM     35  C5  SGN d 302       3.964  -0.132  52.993  0.00  0.00     0.091 C 
ATOM     36  C2  SGN d 302       3.981  -1.267  55.618  0.00  0.00     0.081 C 
ATOM     37  O1  SGN d 302       1.827  -1.319  54.497  0.00  0.00    -0.348 OA
ATOM     38  C3  SGN d 302       4.301   0.180  55.428  0.00  0.00     0.083 C 
ATOM     39  O1S SGN d 302       2.856  -2.639  59.039  0.00  0.00    -0.296 OA
ATOM     40  S1  SGN d 302       3.467  -2.813  57.733  0.00  0.00     0.156 S 
ATOM     41  O4S SGN d 302       7.463  -2.498  50.568  0.00  0.00    -0.572 OA
ATOM     42  O3S SGN d 302       2.922  -3.908  56.962  0.00  0.00    -0.296 OA
ATOM     43  C6  SGN d 302       4.611  -0.074  51.635  0.00  0.00     0.067 C 
ATOM     44  O6S SGN d 302       5.646  -1.702  49.333  0.00  0.00    -0.572 OA
ATOM     45  O5S SGN d 302       7.475  -0.263  49.916  0.00  0.00    -0.572 OA
ATOM     46  O2S SGN d 302       4.873  -2.923  57.929  0.00  0.00    -0.296 OA
ATOM     47  O6  SGN d 302       5.763  -0.899  51.761  0.00  0.00    -0.254 OA
ATOM     48  O4  SGN d 302       5.153   1.718  53.927  0.00  0.00    -0.348 OA
ATOM     49  O3  SGN d 302       5.241   0.613  56.385  0.00  0.00    -0.391 OA
ATOM     50  N   SGN d 302       3.146  -1.375  56.775  0.00  0.00    -0.210 NA
ATOM     51  S2  SGN d 302       6.640  -1.363  50.318  0.00  0.00     0.251 S 
ATOM     52  C1  SGN d 302       3.151  -1.784  54.467  0.00  0.00     0.150 C 
ATOM     53  O5  SGN d 302       3.756  -1.489  53.229  0.00  0.00    -0.349 OA
ATOM     54  H   SGN d 302       5.831  -0.241  53.980  0.00  0.00     0.091 H 
ATOM     55  H   SGN d 302       3.082   0.473  53.017  0.00  0.00     0.090 H 
ATOM     56  H   SGN d 302       4.896  -1.816  55.697  0.00  0.00     0.076 H 
ATOM     57  H   SGN d 302       3.403   0.755  55.527  0.00  0.00     0.089 H 
ATOM     58  H   SGN d 302       3.272  -1.890  59.493  0.00  0.00     0.231 HD
ATOM     59  H   SGN d 302       1.965  -3.786  56.858  0.00  0.00     0.231 HD
ATOM     60  H   SGN d 302       4.887   0.929  51.389  0.00  0.00     0.080 H 
ATOM     61  H   SGN d 302       3.956  -0.403  50.855  0.00  0.00     0.080 H 
ATOM     62  H   SGN d 302       5.187  -2.167  58.450  0.00  0.00     0.231 HD
ATOM     63  H   SGN d 302       6.055   0.093  56.296  0.00  0.00     0.210 HD
ATOM     64  H   SGN d 302       2.172  -1.399  56.471  0.00  0.00     0.140 HD
ATOM     65  H   SGN d 302       3.109  -2.847  54.582  0.00  0.00     0.131 H 
ATOM     66  O61 IDS d 303       1.496  -2.323  51.386  0.00  0.00    -0.646 OA
ATOM     67  O5  IDS d 303      -0.578  -0.492  53.593  0.00  0.00    -0.340 OA
ATOM     68  S   IDS d 303      -0.267   0.022  57.928  0.00  0.00     0.252 S 
ATOM     69  C1  IDS d 303      -1.457  -0.670  54.712  0.00  0.00     0.161 C 
ATOM     70  C5  IDS d 303      -0.025  -1.713  53.068  0.00  0.00     0.152 C 
ATOM     71  C6  IDS d 303       0.827  -1.394  51.868  0.00  0.00     0.206 C 
ATOM     72  O3  IDS d 303      -0.872  -3.724  55.010  0.00  0.00    -0.390 OA
ATOM     73  O2S IDS d 303      -0.449  -1.061  58.867  0.00  0.00    -0.572 OA
ATOM     74  O62 IDS d 303       0.974  -0.200  51.560  0.00  0.00    -0.646 OA
ATOM     75  O1S IDS d 303       0.757   0.920  58.378  0.00  0.00    -0.572 OA
ATOM     76  O2  IDS d 303       0.227  -0.597  56.405  0.00  0.00    -0.244 OA
ATOM     77  C4  IDS d 303       0.872  -2.324  54.127  0.00  0.00     0.103 C 
ATOM     78  C2  IDS d 303      -0.700  -1.434  55.806  0.00  0.00     0.134 C 
ATOM     79  C3  IDS d 303       0.023  -2.697  55.332  0.00  0.00     0.094 C 
ATOM     80  O3S IDS d 303      -1.529   0.628  57.806  0.00  0.00    -0.572 OA
ATOM     81  H   IDS d 303      -1.723   0.299  55.082  0.00  0.00     0.133 H 
ATOM     82  H   IDS d 303      -0.815  -2.382  52.797  0.00  0.00     0.104 H 
ATOM     83  H   IDS d 303      -0.376  -4.504  54.715  0.00  0.00     0.210 HD
ATOM     84  H   IDS d 303       1.367  -3.202  53.766  0.00  0.00     0.092 H 
ATOM     85  H   IDS d 303      -1.453  -1.757  56.493  0.00  0.00     0.097 H 
ATOM     86  H   IDS d 303       0.638  -3.071  56.124  0.00  0.00     0.091 H 
ATOM     87  O1S UAP d 301       6.878   4.258  50.061  0.00  0.00    -0.572 OA
ATOM     88  O61 UAP d 301       8.166   3.805  57.276  0.00  0.00    -0.642 OA
ATOM     89  C1  UAP d 301       6.406   2.125  53.418  0.00  0.00     0.167 C 
ATOM     90  O62 UAP d 301       9.019   1.978  56.481  0.00  0.00    -0.642 OA
ATOM     91  O3S UAP d 301       6.585   6.121  51.390  0.00  0.00    -0.572 OA
ATOM     92  C6  UAP d 301       8.212   2.910  56.428  0.00  0.00     0.233 C 
ATOM     93  O3  UAP d 301       4.492   4.330  54.602  0.00  0.00    -0.389 OA
ATOM     94  C3  UAP d 301       5.841   4.427  54.223  0.00  0.00     0.086 C 
ATOM     95  S   UAP d 301       7.439   4.993  51.141  0.00  0.00     0.252 S 
ATOM     96  O2  UAP d 301       7.443   3.965  52.540  0.00  0.00    -0.244 OA
ATOM     97  C5  UAP d 301       7.401   3.013  55.394  0.00  0.00     0.147 C 
ATOM     98  O2S UAP d 301       8.808   5.367  50.871  0.00  0.00    -0.572 OA
ATOM     99  C2  UAP d 301       6.192   3.554  53.015  0.00  0.00     0.135 C 
ATOM    100  C4  UAP d 301       6.650   4.106  55.356  0.00  0.00    -0.034 C 
ATOM    101  O5  UAP d 301       7.444   2.090  54.403  0.00  0.00    -0.311 OA
ATOM    102  H   UAP d 301       6.715   1.475  52.627  0.00  0.00     0.134 H 
ATOM    103  H   UAP d 301       3.926   4.545  53.845  0.00  0.00     0.210 HD
ATOM    104  H   UAP d 301       6.031   5.430  53.905  0.00  0.00     0.093 H 
ATOM    105  H   UAP d 301       5.396   3.641  52.305  0.00  0.00     0.097 H 
ATOM    106  H   UAP d 301       6.651   4.742  56.167  0.00  0.00     0.085 H 
ENDROOT
TORSDOF 33
ENDMDL
MODEL 51
REMARK VINA RESULT:      -5.6      3.014      3.835
REMARK  0 active torsions:
REMARK  status: ('A' for Active; 'I' for Inactive)
REMARK       I    between atoms: C4_1  and  O4_32 
REMARK       I    between atoms: C2_2  and  N_17 
REMARK       I    between atoms: C4_3  and  O4_45 
REMARK       I    between atoms: C5_5  and  C6_20 
REMARK       I    between atoms: C5_7  and  C6_42 
REMARK       I    between atoms: C2_8  and  N_48 
REMARK       I    between atoms: O1_9  and  C1_58 
REMARK       I    between atoms: O1_9  and  C4_62 
REMARK       I    between atoms: C3_11  and  O3_46 
REMARK       I    between atoms: O1S_13  and  S1_14 
REMARK       I    between atoms: S1_14  and  N_48 
REMARK       I    between atoms: S1_14  and  O2S_39 
REMARK       I    between atoms: S1_14  and  O3S_16 
REMARK       I    between atoms: N_17  and  S1_64 
REMARK       I    between atoms: C1_18  and  O4_45 
REMARK       I    between atoms: C6_20  and  O6_41 
REMARK       I    between atoms: O1S_22  and  S1_64 
REMARK       I    between atoms: O3S_25  and  S1_64 
REMARK       I    between atoms: O1_26  and  C1_61 
REMARK       I    between atoms: S_27  and  O2_57 
REMARK       I    between atoms: O6_29  and  C6_42 
REMARK       I    between atoms: O6_29  and  S2_68 
REMARK       I    between atoms: C6_30  and  C5_54 
REMARK       I    between atoms: C1_31  and  O4_32 
REMARK       I    between atoms: C5_35  and  C6_36 
REMARK       I    between atoms: O3_37  and  C3_38 
REMARK       I    between atoms: C3_40  and  O3_44 
REMARK       I    between atoms: O6_41  and  S2_52 
REMARK       I    between atoms: S_43  and  O2_53 
REMARK       I    between atoms: O3_47  and  C3_69 
REMARK       I    between atoms: O2S_49  and  S1_64 
REMARK       I    between atoms: O2_53  and  C2_59 
REMARK       I    between atoms: O2_57  and  C2_65 
ROOT
ATOM      1  C4  SGN d 304      -1.011  -0.007  56.528  0.00  0.00     0.095 C 
ATOM      2  C2  SGN d 304      -2.758   1.728  57.111  0.00  0.00     0.081 C 
ATOM      3  O5S SGN d 304       2.698   1.937  58.763  0.00  0.00    -0.572 OA
ATOM      4  C5  SGN d 304      -1.022  -0.379  58.019  0.00  0.00     0.091 C 
ATOM      5  N   SGN d 304      -4.164   2.048  56.873  0.00  0.00    -0.210 NA
ATOM      6  O4S SGN d 304       3.480  -0.265  58.395  0.00  0.00    -0.572 OA
ATOM      7  O1S SGN d 304      -4.750   4.471  57.677  0.00  0.00    -0.296 OA
ATOM      8  O3S SGN d 304      -3.712   4.338  55.598  0.00  0.00    -0.296 OA
ATOM      9  O1  SGN d 304      -3.632   0.642  59.186  0.00  0.00    -0.369 OA
ATOM     10  O6  SGN d 304       1.037  -0.088  59.146  0.00  0.00    -0.254 OA
ATOM     11  O4  SGN d 304      -0.790  -1.172  55.687  0.00  0.00    -0.348 OA
ATOM     12  O5  SGN d 304      -1.266   0.802  58.816  0.00  0.00    -0.350 OA
ATOM     13  C3  SGN d 304      -2.415   0.535  56.231  0.00  0.00     0.083 C 
ATOM     14  C6  SGN d 304       0.233  -1.069  58.501  0.00  0.00     0.067 C 
ATOM     15  O3  SGN d 304      -2.470   0.950  54.899  0.00  0.00    -0.391 OA
ATOM     16  O2S SGN d 304      -5.945   3.688  55.821  0.00  0.00    -0.296 OA
ATOM     17  C1  SGN d 304      -2.558   1.390  58.598  0.00  0.00     0.147 C 
ATOM     18  S1  SGN d 304      -4.667   3.714  56.470  0.00  0.00     0.156 S 
ATOM     19  O6S SGN d 304       1.996   0.778  56.848  0.00  0.00    -0.572 OA
ATOM     20  S2  SGN d 304       2.367   0.636  58.236  0.00  0.00     0.251 S 
ATOM     21  H   SGN d 304      -0.228   0.693  56.327  0.00  0.00     0.091 H 
ATOM     22  H   SGN d 304      -2.120   2.554  56.873  0.00  0.00     0.076 H 
ATOM     23  H   SGN d 304      -1.812  -1.090  58.139  0.00  0.00     0.090 H 
ATOM     24  H   SGN d 304      -4.669   1.788  57.720  0.00  0.00     0.140 HD
ATOM     25  H   SGN d 304      -3.882   4.485  58.110  0.00  0.00     0.231 HD
ATOM     26  H   SGN d 304      -2.844   4.359  56.031  0.00  0.00     0.231 HD
ATOM     27  H   SGN d 304      -4.473   1.089  59.006  0.00  0.00     0.212 HD
ATOM     28  H   SGN d 304      -3.116  -0.249  56.428  0.00  0.00     0.089 H 
ATOM     29  H   SGN d 304       0.763  -1.487  57.670  0.00  0.00     0.080 H 
ATOM     30  H   SGN d 304      -0.008  -1.865  59.175  0.00  0.00     0.080 H 
ATOM     31  H   SGN d 304      -1.825   1.660  54.754  0.00  0.00     0.210 HD
ATOM     32  H   SGN d 304      -6.595   3.267  56.405  0.00  0.00     0.231 HD
ATOM     33  H   SGN d 304      -2.586   2.319  59.128  0.00  0.00     0.131 H 
ATOM     34  C4  SGN d 302       5.575  -1.180  51.103  0.00  0.00     0.095 C 
ATOM     35  C5  SGN d 302       4.402  -0.213  51.177  0.00  0.00     0.091 C 
ATOM     36  C2  SGN d 302       4.043  -3.050  51.223  0.00  0.00     0.081 C 
ATOM     37  O1  SGN d 302       2.330  -1.785  52.390  0.00  0.00    -0.348 OA
ATOM     38  C3  SGN d 302       5.249  -2.439  51.859  0.00  0.00     0.083 C 
ATOM     39  O1S SGN d 302       2.855  -6.592  52.169  0.00  0.00    -0.296 OA
ATOM     40  S1  SGN d 302       2.945  -5.483  51.235  0.00  0.00     0.156 S 
ATOM     41  O4S SGN d 302       4.778   0.937  46.459  0.00  0.00    -0.572 OA
ATOM     42  O3S SGN d 302       1.673  -5.053  50.697  0.00  0.00    -0.296 OA
ATOM     43  C6  SGN d 302       4.671   1.015  50.348  0.00  0.00     0.067 C 
ATOM     44  O6S SGN d 302       3.875   2.547  47.891  0.00  0.00    -0.572 OA
ATOM     45  O5S SGN d 302       6.248   2.269  47.678  0.00  0.00    -0.572 OA
ATOM     46  O2S SGN d 302       3.875  -5.852  50.222  0.00  0.00    -0.296 OA
ATOM     47  O6  SGN d 302       4.913   0.509  49.041  0.00  0.00    -0.254 OA
ATOM     48  O4  SGN d 302       6.677  -0.622  51.784  0.00  0.00    -0.348 OA
ATOM     49  O3  SGN d 302       6.361  -3.299  51.750  0.00  0.00    -0.391 OA
ATOM     50  N   SGN d 302       3.576  -4.085  52.093  0.00  0.00    -0.210 NA
ATOM     51  S2  SGN d 302       4.962   1.625  47.692  0.00  0.00     0.251 S 
ATOM     52  C1  SGN d 302       2.918  -2.046  51.143  0.00  0.00     0.150 C 
ATOM     53  O5  SGN d 302       3.344  -0.850  50.531  0.00  0.00    -0.349 OA
ATOM     54  H   SGN d 302       5.782  -1.374  50.071  0.00  0.00     0.091 H 
ATOM     55  H   SGN d 302       4.218   0.052  52.196  0.00  0.00     0.090 H 
ATOM     56  H   SGN d 302       4.306  -3.398  50.246  0.00  0.00     0.076 H 
ATOM     57  H   SGN d 302       5.046  -2.253  52.893  0.00  0.00     0.089 H 
ATOM     58  H   SGN d 302       3.742  -6.822  52.484  0.00  0.00     0.231 HD
ATOM     59  H   SGN d 302       1.078  -4.814  51.425  0.00  0.00     0.231 HD
ATOM     60  H   SGN d 302       5.527   1.540  50.717  0.00  0.00     0.080 H 
ATOM     61  H   SGN d 302       3.860   1.712  50.374  0.00  0.00     0.080 H 
ATOM     62  H   SGN d 302       4.707  -6.131  50.634  0.00  0.00     0.231 HD
ATOM     63  H   SGN d 302       6.547  -3.469  50.813  0.00  0.00     0.210 HD
ATOM     64  H   SGN d 302       2.833  -3.705  52.680  0.00  0.00     0.140 HD
ATOM     65  H   SGN d 302       2.161  -2.492  50.531  0.00  0.00     0.131 H 
ATOM     66  O61 IDS d 303       0.892   0.854  51.062  0.00  0.00    -0.646 OA
ATOM     67  O5  IDS d 303       1.094  -0.414  54.360  0.00  0.00    -0.340 OA
ATOM     68  S   IDS d 303       2.373  -4.360  55.754  0.00  0.00     0.252 S 
ATOM     69  C1  IDS d 303       0.541  -1.431  55.205  0.00  0.00     0.161 C 
ATOM     70  C5  IDS d 303       0.536  -0.371  53.034  0.00  0.00     0.152 C 
ATOM     71  C6  IDS d 303       1.157   0.770  52.273  0.00  0.00     0.206 C 
ATOM     72  O3  IDS d 303      -1.148  -2.757  52.935  0.00  0.00    -0.390 OA
ATOM     73  O2S IDS d 303       1.639  -5.574  55.475  0.00  0.00    -0.572 OA
ATOM     74  O62 IDS d 303       2.047   1.429  52.835  0.00  0.00    -0.646 OA
ATOM     75  O1S IDS d 303       3.786  -4.602  55.731  0.00  0.00    -0.572 OA
ATOM     76  O2  IDS d 303       2.035  -3.178  54.557  0.00  0.00    -0.244 OA
ATOM     77  C4  IDS d 303       0.902  -1.659  52.321  0.00  0.00     0.103 C 
ATOM     78  C2  IDS d 303       0.707  -2.787  54.506  0.00  0.00     0.134 C 
ATOM     79  C3  IDS d 303       0.247  -2.823  53.047  0.00  0.00     0.094 C 
ATOM     80  O3S IDS d 303       1.902  -3.917  57.003  0.00  0.00    -0.572 OA
ATOM     81  H   IDS d 303       1.095  -1.439  56.121  0.00  0.00     0.133 H 
ATOM     82  H   IDS d 303      -0.525  -0.248  53.089  0.00  0.00     0.104 H 
ATOM     83  H   IDS d 303      -1.398  -2.783  51.998  0.00  0.00     0.210 HD
ATOM     84  H   IDS d 303       0.572  -1.655  51.303  0.00  0.00     0.092 H 
ATOM     85  H   IDS d 303       0.069  -3.457  55.041  0.00  0.00     0.097 H 
ATOM     86  H   IDS d 303       0.540  -3.754  52.607  0.00  0.00     0.091 H 
ATOM     87  O1S UAP d 301       9.028   3.651  51.022  0.00  0.00    -0.572 OA
ATOM     88  O61 UAP d 301      10.774  -3.419  51.962  0.00  0.00    -0.642 OA
ATOM     89  C1  UAP d 301       7.749  -0.145  51.000  0.00  0.00     0.167 C 
ATOM     90  O62 UAP d 301       9.956  -3.350  49.956  0.00  0.00    -0.642 OA
ATOM     91  O3S UAP d 301      10.348   3.031  52.810  0.00  0.00    -0.572 OA
ATOM     92  C6  UAP d 301      10.041  -2.914  51.108  0.00  0.00     0.233 C 
ATOM     93  O3  UAP d 301       8.159  -0.347  54.117  0.00  0.00    -0.389 OA
ATOM     94  C3  UAP d 301       9.102  -0.101  53.105  0.00  0.00     0.086 C 
ATOM     95  S   UAP d 301      10.109   2.812  51.410  0.00  0.00     0.252 S 
ATOM     96  O2  UAP d 301       9.617   1.165  51.170  0.00  0.00    -0.244 OA
ATOM     97  C5  UAP d 301       9.383  -1.823  51.443  0.00  0.00     0.147 C 
ATOM     98  O2S UAP d 301      11.277   3.043  50.593  0.00  0.00    -0.572 OA
ATOM     99  C2  UAP d 301       8.537   0.717  51.940  0.00  0.00     0.135 C 
ATOM    100  C4  UAP d 301       9.622  -1.355  52.661  0.00  0.00    -0.034 C 
ATOM    101  O5  UAP d 301       8.605  -1.192  50.531  0.00  0.00    -0.311 OA
ATOM    102  H   UAP d 301       7.379   0.358  50.131  0.00  0.00     0.134 H 
ATOM    103  H   UAP d 301       7.794   0.495  54.431  0.00  0.00     0.210 HD
ATOM    104  H   UAP d 301       9.886   0.501  53.513  0.00  0.00     0.093 H 
ATOM    105  H   UAP d 301       7.931   1.497  52.351  0.00  0.00     0.097 H 
ATOM    106  H   UAP d 301      10.200  -1.914  53.307  0.00  0.00     0.085 H 
ENDROOT
TORSDOF 33
ENDMDL
MODEL 52
REMARK VINA RESULT:      -5.6      3.419      5.206
REMARK  0 active torsions:
REMARK  status: ('A' for Active; 'I' for Inactive)
REMARK       I    between atoms: C4_1  and  O4_32 
REMARK       I    between atoms: C2_2  and  N_17 
REMARK       I    between atoms: C4_3  and  O4_45 
REMARK       I    between atoms: C5_5  and  C6_20 
REMARK       I    between atoms: C5_7  and  C6_42 
REMARK       I    between atoms: C2_8  and  N_48 
REMARK       I    between atoms: O1_9  and  C1_58 
REMARK       I    between atoms: O1_9  and  C4_62 
REMARK       I    between atoms: C3_11  and  O3_46 
REMARK       I    between atoms: O1S_13  and  S1_14 
REMARK       I    between atoms: S1_14  and  N_48 
REMARK       I    between atoms: S1_14  and  O2S_39 
REMARK       I    between atoms: S1_14  and  O3S_16 
REMARK       I    between atoms: N_17  and  S1_64 
REMARK       I    between atoms: C1_18  and  O4_45 
REMARK       I    between atoms: C6_20  and  O6_41 
REMARK       I    between atoms: O1S_22  and  S1_64 
REMARK       I    between atoms: O3S_25  and  S1_64 
REMARK       I    between atoms: O1_26  and  C1_61 
REMARK       I    between atoms: S_27  and  O2_57 
REMARK       I    between atoms: O6_29  and  C6_42 
REMARK       I    between atoms: O6_29  and  S2_68 
REMARK       I    between atoms: C6_30  and  C5_54 
REMARK       I    between atoms: C1_31  and  O4_32 
REMARK       I    between atoms: C5_35  and  C6_36 
REMARK       I    between atoms: O3_37  and  C3_38 
REMARK       I    between atoms: C3_40  and  O3_44 
REMARK       I    between atoms: O6_41  and  S2_52 
REMARK       I    between atoms: S_43  and  O2_53 
REMARK       I    between atoms: O3_47  and  C3_69 
REMARK       I    between atoms: O2S_49  and  S1_64 
REMARK       I    between atoms: O2_53  and  C2_59 
REMARK       I    between atoms: O2_57  and  C2_65 
ROOT
ATOM      1  C4  SGN d 304      -2.947   2.821  53.442  0.00  0.00     0.095 C 
ATOM      2  C2  SGN d 304      -5.058   2.361  52.124  0.00  0.00     0.081 C 
ATOM      3  O5S SGN d 304      -1.219   6.370  50.807  0.00  0.00    -0.572 OA
ATOM      4  C5  SGN d 304      -3.599   4.155  53.837  0.00  0.00     0.091 C 
ATOM      5  N   SGN d 304      -6.209   1.462  52.103  0.00  0.00    -0.210 NA
ATOM      6  O4S SGN d 304       0.054   6.600  52.787  0.00  0.00    -0.572 OA
ATOM      7  O1S SGN d 304      -7.565   1.687  49.873  0.00  0.00    -0.296 OA
ATOM      8  O3S SGN d 304      -5.654   0.364  49.744  0.00  0.00    -0.296 OA
ATOM      9  O1  SGN d 304      -6.590   3.861  53.410  0.00  0.00    -0.369 OA
ATOM     10  O6  SGN d 304      -2.433   6.092  53.142  0.00  0.00    -0.254 OA
ATOM     11  O4  SGN d 304      -2.130   2.285  54.518  0.00  0.00    -0.348 OA
ATOM     12  O5  SGN d 304      -4.418   4.639  52.750  0.00  0.00    -0.350 OA
ATOM     13  C3  SGN d 304      -4.112   1.852  53.202  0.00  0.00     0.083 C 
ATOM     14  C6  SGN d 304      -2.622   5.228  54.258  0.00  0.00     0.067 C 
ATOM     15  O3  SGN d 304      -3.601   0.622  52.781  0.00  0.00    -0.391 OA
ATOM     16  O2S SGN d 304      -7.547  -0.439  50.853  0.00  0.00    -0.296 OA
ATOM     17  C1  SGN d 304      -5.534   3.789  52.442  0.00  0.00     0.147 C 
ATOM     18  S1  SGN d 304      -6.769   0.731  50.572  0.00  0.00     0.156 S 
ATOM     19  O6S SGN d 304      -0.678   4.455  52.050  0.00  0.00    -0.572 OA
ATOM     20  S2  SGN d 304      -0.997   5.860  52.138  0.00  0.00     0.251 S 
ATOM     21  H   SGN d 304      -2.316   2.955  52.590  0.00  0.00     0.091 H 
ATOM     22  H   SGN d 304      -4.558   2.384  51.179  0.00  0.00     0.076 H 
ATOM     23  H   SGN d 304      -4.195   3.947  54.701  0.00  0.00     0.090 H 
ATOM     24  H   SGN d 304      -6.997   1.988  52.479  0.00  0.00     0.140 HD
ATOM     25  H   SGN d 304      -7.032   2.476  49.686  0.00  0.00     0.231 HD
ATOM     26  H   SGN d 304      -5.123   1.152  49.550  0.00  0.00     0.231 HD
ATOM     27  H   SGN d 304      -7.310   3.268  53.147  0.00  0.00     0.212 HD
ATOM     28  H   SGN d 304      -4.654   1.759  54.119  0.00  0.00     0.089 H 
ATOM     29  H   SGN d 304      -1.689   4.785  54.538  0.00  0.00     0.080 H 
ATOM     30  H   SGN d 304      -2.997   5.773  55.099  0.00  0.00     0.080 H 
ATOM     31  H   SGN d 304      -3.117   0.740  51.949  0.00  0.00     0.210 HD
ATOM     32  H   SGN d 304      -8.302  -0.199  51.413  0.00  0.00     0.231 HD
ATOM     33  H   SGN d 304      -5.991   4.163  51.550  0.00  0.00     0.131 H 
ATOM     34  C4  SGN d 302       5.518   1.268  53.099  0.00  0.00     0.095 C 
ATOM     35  C5  SGN d 302       4.291   0.697  52.402  0.00  0.00     0.091 C 
ATOM     36  C2  SGN d 302       4.511   0.806  55.251  0.00  0.00     0.081 C 
ATOM     37  O1  SGN d 302       2.240   0.916  54.397  0.00  0.00    -0.348 OA
ATOM     38  C3  SGN d 302       5.121   1.883  54.413  0.00  0.00     0.083 C 
ATOM     39  O1S SGN d 302       3.726   1.373  58.981  0.00  0.00    -0.296 OA
ATOM     40  S1  SGN d 302       4.036   0.503  57.860  0.00  0.00     0.156 S 
ATOM     41  O4S SGN d 302       6.651  -3.362  51.106  0.00  0.00    -0.572 OA
ATOM     42  O3S SGN d 302       3.122  -0.606  57.696  0.00  0.00    -0.296 OA
ATOM     43  C6  SGN d 302       4.681  -0.005  51.129  0.00  0.00     0.067 C 
ATOM     44  O6S SGN d 302       4.880  -2.666  49.750  0.00  0.00    -0.572 OA
ATOM     45  O5S SGN d 302       7.068  -1.710  49.519  0.00  0.00    -0.572 OA
ATOM     46  O2S SGN d 302       5.389   0.084  58.005  0.00  0.00    -0.296 OA
ATOM     47  O6  SGN d 302       5.613  -0.996  51.547  0.00  0.00    -0.254 OA
ATOM     48  O4  SGN d 302       6.027   2.339  52.335  0.00  0.00    -0.348 OA
ATOM     49  O3  SGN d 302       6.292   2.384  55.018  0.00  0.00    -0.391 OA
ATOM     50  N   SGN d 302       3.894   1.437  56.378  0.00  0.00    -0.210 NA
ATOM     51  S2  SGN d 302       6.085  -2.250  50.419  0.00  0.00     0.251 S 
ATOM     52  C1  SGN d 302       3.392   0.121  54.505  0.00  0.00     0.150 C 
ATOM     53  O5  SGN d 302       3.818  -0.315  53.234  0.00  0.00    -0.349 OA
ATOM     54  H   SGN d 302       6.227   0.476  53.225  0.00  0.00     0.091 H 
ATOM     55  H   SGN d 302       3.594   1.483  52.201  0.00  0.00     0.090 H 
ATOM     56  H   SGN d 302       5.272   0.103  55.517  0.00  0.00     0.076 H 
ATOM     57  H   SGN d 302       4.415   2.679  54.294  0.00  0.00     0.089 H 
ATOM     58  H   SGN d 302       4.379   2.088  59.026  0.00  0.00     0.231 HD
ATOM     59  H   SGN d 302       2.218  -0.267  57.603  0.00  0.00     0.231 HD
ATOM     60  H   SGN d 302       5.135   0.678  50.443  0.00  0.00     0.080 H 
ATOM     61  H   SGN d 302       3.839  -0.424  50.618  0.00  0.00     0.080 H 
ATOM     62  H   SGN d 302       5.959   0.863  58.112  0.00  0.00     0.231 HD
ATOM     63  H   SGN d 302       6.932   1.665  55.127  0.00  0.00     0.210 HD
ATOM     64  H   SGN d 302       2.904   1.569  56.174  0.00  0.00     0.140 HD
ATOM     65  H   SGN d 302       3.124  -0.736  55.087  0.00  0.00     0.131 H 
ATOM     66  O61 IDS d 303       1.135  -1.150  52.094  0.00  0.00    -0.646 OA
ATOM     67  O5  IDS d 303      -0.027   1.946  53.355  0.00  0.00    -0.340 OA
ATOM     68  S   IDS d 303       1.163   4.105  56.971  0.00  0.00     0.252 S 
ATOM     69  C1  IDS d 303      -0.709   2.512  54.482  0.00  0.00     0.161 C 
ATOM     70  C5  IDS d 303       0.123   0.515  53.405  0.00  0.00     0.152 C 
ATOM     71  C6  IDS d 303       0.797   0.045  52.144  0.00  0.00     0.206 C 
ATOM     72  O3  IDS d 303      -0.810  -0.166  56.089  0.00  0.00    -0.390 OA
ATOM     73  O2S IDS d 303       0.904   3.615  58.306  0.00  0.00    -0.572 OA
ATOM     74  O62 IDS d 303       1.162   0.903  51.324  0.00  0.00    -0.646 OA
ATOM     75  O1S IDS d 303       2.432   4.772  56.911  0.00  0.00    -0.572 OA
ATOM     76  O2  IDS d 303       1.219   2.795  55.863  0.00  0.00    -0.244 OA
ATOM     77  C4  IDS d 303       1.027   0.170  54.573  0.00  0.00     0.103 C 
ATOM     78  C2  IDS d 303       0.031   2.090  55.759  0.00  0.00     0.134 C 
ATOM     79  C3  IDS d 303       0.343   0.596  55.863  0.00  0.00     0.094 C 
ATOM     80  O3S IDS d 303       0.076   4.940  56.662  0.00  0.00    -0.572 OA
ATOM     81  H   IDS d 303      -0.671   3.578  54.392  0.00  0.00     0.133 H 
ATOM     82  H   IDS d 303      -0.836   0.053  53.509  0.00  0.00     0.104 H 
ATOM     83  H   IDS d 303      -0.571  -1.104  56.148  0.00  0.00     0.210 HD
ATOM     84  H   IDS d 303       1.230  -0.879  54.618  0.00  0.00     0.092 H 
ATOM     85  H   IDS d 303      -0.642   2.315  56.559  0.00  0.00     0.097 H 
ATOM     86  H   IDS d 303       0.985   0.426  56.702  0.00  0.00     0.091 H 
ATOM     87  O1S UAP d 301       7.578   2.421  47.650  0.00  0.00    -0.572 OA
ATOM     88  O61 UAP d 301       9.991   4.664  54.212  0.00  0.00    -0.642 OA
ATOM     89  C1  UAP d 301       7.228   2.117  51.628  0.00  0.00     0.167 C 
ATOM     90  O62 UAP d 301      10.238   2.512  54.277  0.00  0.00    -0.642 OA
ATOM     91  O3S UAP d 301       7.971   4.666  48.013  0.00  0.00    -0.572 OA
ATOM     92  C6  UAP d 301       9.675   3.527  53.856  0.00  0.00     0.233 C 
ATOM     93  O3  UAP d 301       6.125   5.063  51.801  0.00  0.00    -0.389 OA
ATOM     94  C3  UAP d 301       7.369   4.600  51.342  0.00  0.00     0.086 C 
ATOM     95  S   UAP d 301       8.479   3.343  48.250  0.00  0.00     0.252 S 
ATOM     96  O2  UAP d 301       8.492   3.038  49.959  0.00  0.00    -0.244 OA
ATOM     97  C5  UAP d 301       8.739   3.418  52.934  0.00  0.00     0.147 C 
ATOM     98  O2S UAP d 301       9.826   3.158  47.763  0.00  0.00    -0.572 OA
ATOM     99  C2  UAP d 301       7.286   3.242  50.638  0.00  0.00     0.135 C 
ATOM    100  C4  UAP d 301       8.270   4.561  52.451  0.00  0.00    -0.034 C 
ATOM    101  O5  UAP d 301       8.389   2.198  52.463  0.00  0.00    -0.311 OA
ATOM    102  H   UAP d 301       7.231   1.137  51.197  0.00  0.00     0.134 H 
ATOM    103  H   UAP d 301       5.499   5.096  51.060  0.00  0.00     0.210 HD
ATOM    104  H   UAP d 301       7.728   5.277  50.597  0.00  0.00     0.093 H 
ATOM    105  H   UAP d 301       6.418   3.251  50.012  0.00  0.00     0.097 H 
ATOM    106  H   UAP d 301       8.563   5.448  52.888  0.00  0.00     0.085 H 
ENDROOT
TORSDOF 33
ENDMDL
MODEL 53
REMARK VINA RESULT:      -5.6      2.814      4.592
REMARK  0 active torsions:
REMARK  status: ('A' for Active; 'I' for Inactive)
REMARK       I    between atoms: C4_1  and  O4_32 
REMARK       I    between atoms: C2_2  and  N_17 
REMARK       I    between atoms: C4_3  and  O4_45 
REMARK       I    between atoms: C5_5  and  C6_20 
REMARK       I    between atoms: C5_7  and  C6_42 
REMARK       I    between atoms: C2_8  and  N_48 
REMARK       I    between atoms: O1_9  and  C1_58 
REMARK       I    between atoms: O1_9  and  C4_62 
REMARK       I    between atoms: C3_11  and  O3_46 
REMARK       I    between atoms: O1S_13  and  S1_14 
REMARK       I    between atoms: S1_14  and  N_48 
REMARK       I    between atoms: S1_14  and  O2S_39 
REMARK       I    between atoms: S1_14  and  O3S_16 
REMARK       I    between atoms: N_17  and  S1_64 
REMARK       I    between atoms: C1_18  and  O4_45 
REMARK       I    between atoms: C6_20  and  O6_41 
REMARK       I    between atoms: O1S_22  and  S1_64 
REMARK       I    between atoms: O3S_25  and  S1_64 
REMARK       I    between atoms: O1_26  and  C1_61 
REMARK       I    between atoms: S_27  and  O2_57 
REMARK       I    between atoms: O6_29  and  C6_42 
REMARK       I    between atoms: O6_29  and  S2_68 
REMARK       I    between atoms: C6_30  and  C5_54 
REMARK       I    between atoms: C1_31  and  O4_32 
REMARK       I    between atoms: C5_35  and  C6_36 
REMARK       I    between atoms: O3_37  and  C3_38 
REMARK       I    between atoms: C3_40  and  O3_44 
REMARK       I    between atoms: O6_41  and  S2_52 
REMARK       I    between atoms: S_43  and  O2_53 
REMARK       I    between atoms: O3_47  and  C3_69 
REMARK       I    between atoms: O2S_49  and  S1_64 
REMARK       I    between atoms: O2_53  and  C2_59 
REMARK       I    between atoms: O2_57  and  C2_65 
ROOT
ATOM      1  C4  SGN d 304      -2.146  -0.116  52.805  0.00  0.00     0.095 C 
ATOM      2  C2  SGN d 304      -4.238  -0.023  51.382  0.00  0.00     0.081 C 
ATOM      3  O5S SGN d 304       0.428   3.138  50.500  0.00  0.00    -0.572 OA
ATOM      4  C5  SGN d 304      -2.518   1.300  53.273  0.00  0.00     0.091 C 
ATOM      5  N   SGN d 304      -5.551  -0.649  51.254  0.00  0.00    -0.210 NA
ATOM      6  O4S SGN d 304       1.619   2.961  52.536  0.00  0.00    -0.572 OA
ATOM      7  O1S SGN d 304      -6.714   0.006  49.000  0.00  0.00    -0.296 OA
ATOM      8  O3S SGN d 304      -5.125  -1.687  48.842  0.00  0.00    -0.296 OA
ATOM      9  O1  SGN d 304      -5.478   1.687  52.720  0.00  0.00    -0.369 OA
ATOM     10  O6  SGN d 304      -0.933   2.979  52.764  0.00  0.00    -0.254 OA
ATOM     11  O4  SGN d 304      -1.518  -0.883  53.866  0.00  0.00    -0.348 OA
ATOM     12  O5  SGN d 304      -3.160   2.018  52.196  0.00  0.00    -0.350 OA
ATOM     13  C3  SGN d 304      -3.477  -0.793  52.452  0.00  0.00     0.083 C 
ATOM     14  C6  SGN d 304      -1.357   2.107  53.806  0.00  0.00     0.067 C 
ATOM     15  O3  SGN d 304      -3.220  -2.074  51.961  0.00  0.00    -0.391 OA
ATOM     16  O2S SGN d 304      -7.199  -2.132  49.822  0.00  0.00    -0.296 OA
ATOM     17  C1  SGN d 304      -4.414   1.451  51.787  0.00  0.00     0.147 C 
ATOM     18  S1  SGN d 304      -6.176  -1.143  49.655  0.00  0.00     0.156 S 
ATOM     19  O6S SGN d 304       0.486   1.076  51.617  0.00  0.00    -0.572 OA
ATOM     20  S2  SGN d 304       0.469   2.508  51.797  0.00  0.00     0.251 S 
ATOM     21  H   SGN d 304      -1.459  -0.066  51.987  0.00  0.00     0.091 H 
ATOM     22  H   SGN d 304      -3.697  -0.048  50.460  0.00  0.00     0.076 H 
ATOM     23  H   SGN d 304      -3.188   1.170  54.097  0.00  0.00     0.090 H 
ATOM     24  H   SGN d 304      -6.227   0.010  51.640  0.00  0.00     0.140 HD
ATOM     25  H   SGN d 304      -6.017   0.672  48.890  0.00  0.00     0.231 HD
ATOM     26  H   SGN d 304      -4.429  -1.022  48.725  0.00  0.00     0.231 HD
ATOM     27  H   SGN d 304      -6.294   1.281  52.388  0.00  0.00     0.212 HD
ATOM     28  H   SGN d 304      -4.072  -0.825  53.341  0.00  0.00     0.089 H 
ATOM     29  H   SGN d 304      -0.556   1.456  54.086  0.00  0.00     0.080 H 
ATOM     30  H   SGN d 304      -1.650   2.665  54.671  0.00  0.00     0.080 H 
ATOM     31  H   SGN d 304      -2.680  -2.011  51.157  0.00  0.00     0.210 HD
ATOM     32  H   SGN d 304      -7.913  -1.771  50.370  0.00  0.00     0.231 HD
ATOM     33  H   SGN d 304      -4.736   1.971  50.910  0.00  0.00     0.131 H 
ATOM     34  C4  SGN d 302       5.800  -3.435  52.649  0.00  0.00     0.095 C 
ATOM     35  C5  SGN d 302       4.516  -3.681  51.869  0.00  0.00     0.091 C 
ATOM     36  C2  SGN d 302       4.610  -3.805  54.724  0.00  0.00     0.081 C 
ATOM     37  O1  SGN d 302       2.461  -3.153  53.801  0.00  0.00    -0.348 OA
ATOM     38  C3  SGN d 302       5.477  -2.834  53.990  0.00  0.00     0.083 C 
ATOM     39  O1S SGN d 302       3.777  -3.322  58.456  0.00  0.00    -0.296 OA
ATOM     40  S1  SGN d 302       3.951  -4.165  57.286  0.00  0.00     0.156 S 
ATOM     41  O4S SGN d 302       6.020  -8.062  50.363  0.00  0.00    -0.572 OA
ATOM     42  O3S SGN d 302       2.831  -5.037  57.009  0.00  0.00    -0.296 OA
ATOM     43  C6  SGN d 302       4.811  -4.368  50.563  0.00  0.00     0.067 C 
ATOM     44  O6S SGN d 302       4.508  -6.915  49.000  0.00  0.00    -0.572 OA
ATOM     45  O5S SGN d 302       6.858  -6.441  48.918  0.00  0.00    -0.572 OA
ATOM     46  O2S SGN d 302       5.174  -4.874  57.448  0.00  0.00    -0.296 OA
ATOM     47  O6  SGN d 302       5.488  -5.561  50.940  0.00  0.00    -0.254 OA
ATOM     48  O4  SGN d 302       6.563  -2.453  51.985  0.00  0.00    -0.348 OA
ATOM     49  O3  SGN d 302       6.695  -2.637  54.671  0.00  0.00    -0.391 OA
ATOM     50  N   SGN d 302       4.086  -3.130  55.873  0.00  0.00    -0.210 NA
ATOM     51  S2  SGN d 302       5.739  -6.813  49.741  0.00  0.00     0.251 S 
ATOM     52  C1  SGN d 302       3.410  -4.183  53.891  0.00  0.00     0.150 C 
ATOM     53  O5  SGN d 302       3.797  -4.618  52.607  0.00  0.00    -0.349 OA
ATOM     54  H   SGN d 302       6.317  -4.368  52.742  0.00  0.00     0.091 H 
ATOM     55  H   SGN d 302       4.014  -2.752  51.702  0.00  0.00     0.090 H 
ATOM     56  H   SGN d 302       5.189  -4.672  54.965  0.00  0.00     0.076 H 
ATOM     57  H   SGN d 302       4.963  -1.898  53.905  0.00  0.00     0.089 H 
ATOM     58  H   SGN d 302       4.564  -2.769  58.576  0.00  0.00     0.231 HD
ATOM     59  H   SGN d 302       2.025  -4.506  56.908  0.00  0.00     0.231 HD
ATOM     60  H   SGN d 302       5.435  -3.757  49.945  0.00  0.00     0.080 H 
ATOM     61  H   SGN d 302       3.926  -4.562  49.993  0.00  0.00     0.080 H 
ATOM     62  H   SGN d 302       5.890  -4.246  57.632  0.00  0.00     0.231 HD
ATOM     63  H   SGN d 302       7.162  -3.484  54.749  0.00  0.00     0.210 HD
ATOM     64  H   SGN d 302       3.158  -2.773  55.643  0.00  0.00     0.140 HD
ATOM     65  H   SGN d 302       2.936  -4.997  54.399  0.00  0.00     0.131 H 
ATOM     66  O61 IDS d 303       1.058  -4.780  51.314  0.00  0.00    -0.646 OA
ATOM     67  O5  IDS d 303       0.521  -1.593  52.758  0.00  0.00    -0.340 OA
ATOM     68  S   IDS d 303       1.959   0.021  56.562  0.00  0.00     0.252 S 
ATOM     69  C1  IDS d 303      -0.081  -0.966  53.898  0.00  0.00     0.161 C 
ATOM     70  C5  IDS d 303       0.359  -3.022  52.707  0.00  0.00     0.152 C 
ATOM     71  C6  IDS d 303       0.981  -3.546  51.440  0.00  0.00     0.206 C 
ATOM     72  O3  IDS d 303      -0.831  -3.657  55.299  0.00  0.00    -0.390 OA
ATOM     73  O2S IDS d 303       1.535  -0.485  57.847  0.00  0.00    -0.572 OA
ATOM     74  O62 IDS d 303       1.561  -2.736  50.699  0.00  0.00    -0.646 OA
ATOM     75  O1S IDS d 303       3.342   0.401  56.596  0.00  0.00    -0.572 OA
ATOM     76  O2  IDS d 303       1.791  -1.196  55.364  0.00  0.00    -0.244 OA
ATOM     77  C4  IDS d 303       1.109  -3.629  53.878  0.00  0.00     0.103 C 
ATOM     78  C2  IDS d 303       0.487  -1.619  55.166  0.00  0.00     0.134 C 
ATOM     79  C3  IDS d 303       0.468  -3.149  55.171  0.00  0.00     0.094 C 
ATOM     80  O3S IDS d 303       1.092   1.090  56.277  0.00  0.00    -0.572 OA
ATOM     81  H   IDS d 303       0.187   0.070  53.887  0.00  0.00     0.133 H 
ATOM     82  H   IDS d 303      -0.680  -3.273  52.743  0.00  0.00     0.104 H 
ATOM     83  H   IDS d 303      -0.800  -4.626  55.298  0.00  0.00     0.210 HD
ATOM     84  H   IDS d 303       1.082  -4.698  53.853  0.00  0.00     0.092 H 
ATOM     85  H   IDS d 303      -0.162  -1.306  55.956  0.00  0.00     0.097 H 
ATOM     86  H   IDS d 303       1.015  -3.506  56.018  0.00  0.00     0.091 H 
ATOM     87  O1S UAP d 301       8.331  -2.407  47.376  0.00  0.00    -0.572 OA
ATOM     88  O61 UAP d 301      10.832  -1.163  54.167  0.00  0.00    -0.642 OA
ATOM     89  C1  UAP d 301       7.723  -2.883  51.306  0.00  0.00     0.167 C 
ATOM     90  O62 UAP d 301      10.611  -3.318  54.082  0.00  0.00    -0.642 OA
ATOM     91  O3S UAP d 301       9.173  -0.328  47.917  0.00  0.00    -0.572 OA
ATOM     92  C6  UAP d 301      10.299  -2.181  53.717  0.00  0.00     0.233 C 
ATOM     93  O3  UAP d 301       7.266   0.214  51.655  0.00  0.00    -0.389 OA
ATOM     94  C3  UAP d 301       8.404  -0.476  51.209  0.00  0.00     0.086 C 
ATOM     95  S   UAP d 301       9.376  -1.742  48.074  0.00  0.00     0.252 S 
ATOM     96  O2  UAP d 301       9.237  -2.152  49.756  0.00  0.00    -0.244 OA
ATOM     97  C5  UAP d 301       9.409  -2.025  52.757  0.00  0.00     0.147 C 
ATOM     98  O2S UAP d 301      10.675  -2.182  47.623  0.00  0.00    -0.572 OA
ATOM     99  C2  UAP d 301       8.069  -1.736  50.405  0.00  0.00     0.135 C 
ATOM    100  C4  UAP d 301       9.219  -0.779  52.343  0.00  0.00    -0.034 C 
ATOM    101  O5  UAP d 301       8.831  -3.108  52.185  0.00  0.00    -0.311 OA
ATOM    102  H   UAP d 301       7.539  -3.810  50.805  0.00  0.00     0.134 H 
ATOM    103  H   UAP d 301       6.699   0.429  50.898  0.00  0.00     0.210 HD
ATOM    104  H   UAP d 301       8.936   0.154  50.528  0.00  0.00     0.093 H 
ATOM    105  H   UAP d 301       7.257  -1.499  49.750  0.00  0.00     0.097 H 
ATOM    106  H   UAP d 301       9.672  -0.007  52.854  0.00  0.00     0.085 H 
ENDROOT
TORSDOF 33
ENDMDL
MODEL 54
REMARK VINA RESULT:      -5.6      3.568      7.421
REMARK  0 active torsions:
REMARK  status: ('A' for Active; 'I' for Inactive)
REMARK       I    between atoms: C4_1  and  O4_32 
REMARK       I    between atoms: C2_2  and  N_17 
REMARK       I    between atoms: C4_3  and  O4_45 
REMARK       I    between atoms: C5_5  and  C6_20 
REMARK       I    between atoms: C5_7  and  C6_42 
REMARK       I    between atoms: C2_8  and  N_48 
REMARK       I    between atoms: O1_9  and  C1_58 
REMARK       I    between atoms: O1_9  and  C4_62 
REMARK       I    between atoms: C3_11  and  O3_46 
REMARK       I    between atoms: O1S_13  and  S1_14 
REMARK       I    between atoms: S1_14  and  N_48 
REMARK       I    between atoms: S1_14  and  O2S_39 
REMARK       I    between atoms: S1_14  and  O3S_16 
REMARK       I    between atoms: N_17  and  S1_64 
REMARK       I    between atoms: C1_18  and  O4_45 
REMARK       I    between atoms: C6_20  and  O6_41 
REMARK       I    between atoms: O1S_22  and  S1_64 
REMARK       I    between atoms: O3S_25  and  S1_64 
REMARK       I    between atoms: O1_26  and  C1_61 
REMARK       I    between atoms: S_27  and  O2_57 
REMARK       I    between atoms: O6_29  and  C6_42 
REMARK       I    between atoms: O6_29  and  S2_68 
REMARK       I    between atoms: C6_30  and  C5_54 
REMARK       I    between atoms: C1_31  and  O4_32 
REMARK       I    between atoms: C5_35  and  C6_36 
REMARK       I    between atoms: O3_37  and  C3_38 
REMARK       I    between atoms: C3_40  and  O3_44 
REMARK       I    between atoms: O6_41  and  S2_52 
REMARK       I    between atoms: S_43  and  O2_53 
REMARK       I    between atoms: O3_47  and  C3_69 
REMARK       I    between atoms: O2S_49  and  S1_64 
REMARK       I    between atoms: O2_53  and  C2_59 
REMARK       I    between atoms: O2_57  and  C2_65 
ROOT
ATOM      1  C4  SGN d 304      -0.696  -2.654  55.261  0.00  0.00     0.095 C 
ATOM      2  C2  SGN d 304      -1.447  -4.850  56.271  0.00  0.00     0.081 C 
ATOM      3  O5S SGN d 304      -0.562  -3.974  50.704  0.00  0.00    -0.572 OA
ATOM      4  C5  SGN d 304      -2.097  -2.575  54.633  0.00  0.00     0.091 C 
ATOM      5  N   SGN d 304      -1.734  -5.465  57.565  0.00  0.00    -0.210 NA
ATOM      6  O4S SGN d 304      -0.525  -1.618  50.506  0.00  0.00    -0.572 OA
ATOM      7  O1S SGN d 304      -2.006  -8.062  57.358  0.00  0.00    -0.296 OA
ATOM      8  O3S SGN d 304       0.191  -7.296  57.433  0.00  0.00    -0.296 OA
ATOM      9  O1  SGN d 304      -3.909  -4.416  56.229  0.00  0.00    -0.369 OA
ATOM     10  O6  SGN d 304      -2.141  -2.538  52.269  0.00  0.00    -0.254 OA
ATOM     11  O4  SGN d 304      -0.197  -1.339  55.625  0.00  0.00    -0.348 OA
ATOM     12  O5  SGN d 304      -2.563  -3.904  54.309  0.00  0.00    -0.350 OA
ATOM     13  C3  SGN d 304      -0.871  -3.469  56.549  0.00  0.00     0.083 C 
ATOM     14  C6  SGN d 304      -2.185  -1.690  53.412  0.00  0.00     0.067 C 
ATOM     15  O3  SGN d 304       0.376  -3.636  57.155  0.00  0.00    -0.391 OA
ATOM     16  O2S SGN d 304      -1.108  -7.281  59.375  0.00  0.00    -0.296 OA
ATOM     17  C1  SGN d 304      -2.747  -4.749  55.456  0.00  0.00     0.147 C 
ATOM     18  S1  SGN d 304      -1.134  -7.102  57.954  0.00  0.00     0.156 S 
ATOM     19  O6S SGN d 304       0.489  -2.701  52.372  0.00  0.00    -0.572 OA
ATOM     20  S2  SGN d 304      -0.600  -2.725  51.424  0.00  0.00     0.251 S 
ATOM     21  H   SGN d 304      -0.004  -3.086  54.570  0.00  0.00     0.091 H 
ATOM     22  H   SGN d 304      -0.749  -5.431  55.706  0.00  0.00     0.076 H 
ATOM     23  H   SGN d 304      -2.724  -2.120  55.371  0.00  0.00     0.090 H 
ATOM     24  H   SGN d 304      -2.750  -5.499  57.652  0.00  0.00     0.140 HD
ATOM     25  H   SGN d 304      -2.019  -7.935  56.396  0.00  0.00     0.231 HD
ATOM     26  H   SGN d 304       0.180  -7.176  56.470  0.00  0.00     0.231 HD
ATOM     27  H   SGN d 304      -3.977  -5.019  56.985  0.00  0.00     0.212 HD
ATOM     28  H   SGN d 304      -1.548  -2.936  57.183  0.00  0.00     0.089 H 
ATOM     29  H   SGN d 304      -1.360  -1.009  53.393  0.00  0.00     0.080 H 
ATOM     30  H   SGN d 304      -3.089  -1.118  53.424  0.00  0.00     0.080 H 
ATOM     31  H   SGN d 304       0.965  -4.122  56.557  0.00  0.00     0.210 HD
ATOM     32  H   SGN d 304      -2.000  -7.151  59.734  0.00  0.00     0.231 HD
ATOM     33  H   SGN d 304      -2.962  -5.735  55.102  0.00  0.00     0.131 H 
ATOM     34  C4  SGN d 302       6.414   1.107  52.183  0.00  0.00     0.095 C 
ATOM     35  C5  SGN d 302       6.131  -0.121  53.037  0.00  0.00     0.091 C 
ATOM     36  C2  SGN d 302       5.160   2.476  53.735  0.00  0.00     0.081 C 
ATOM     37  O1  SGN d 302       3.787   0.630  54.512  0.00  0.00    -0.348 OA
ATOM     38  C3  SGN d 302       5.276   2.084  52.298  0.00  0.00     0.083 C 
ATOM     39  O1S SGN d 302       2.870   5.371  54.843  0.00  0.00    -0.296 OA
ATOM     40  S1  SGN d 302       4.023   4.510  55.038  0.00  0.00     0.156 S 
ATOM     41  O4S SGN d 302      10.696  -0.262  54.729  0.00  0.00    -0.572 OA
ATOM     42  O3S SGN d 302       4.082   3.878  56.338  0.00  0.00    -0.296 OA
ATOM     43  C6  SGN d 302       7.300  -1.070  53.009  0.00  0.00     0.067 C 
ATOM     44  O6S SGN d 302       9.524  -2.280  54.625  0.00  0.00    -0.572 OA
ATOM     45  O5S SGN d 302      10.616  -1.379  52.688  0.00  0.00    -0.572 OA
ATOM     46  O2S SGN d 302       5.185   5.279  54.747  0.00  0.00    -0.296 OA
ATOM     47  O6  SGN d 302       8.395  -0.290  53.476  0.00  0.00    -0.254 OA
ATOM     48  O4  SGN d 302       6.434   0.730  50.825  0.00  0.00    -0.348 OA
ATOM     49  O3  SGN d 302       5.595   3.202  51.499  0.00  0.00    -0.391 OA
ATOM     50  N   SGN d 302       3.926   3.184  53.889  0.00  0.00    -0.210 NA
ATOM     51  S2  SGN d 302       9.893  -1.093  53.898  0.00  0.00     0.251 S 
ATOM     52  C1  SGN d 302       5.040   1.254  54.613  0.00  0.00     0.150 C 
ATOM     53  O5  SGN d 302       6.077   0.335  54.352  0.00  0.00    -0.349 OA
ATOM     54  H   SGN d 302       7.342   1.531  52.508  0.00  0.00     0.091 H 
ATOM     55  H   SGN d 302       5.244  -0.605  52.687  0.00  0.00     0.090 H 
ATOM     56  H   SGN d 302       6.020   3.051  54.007  0.00  0.00     0.076 H 
ATOM     57  H   SGN d 302       4.346   1.668  51.970  0.00  0.00     0.089 H 
ATOM     58  H   SGN d 302       2.901   5.756  53.954  0.00  0.00     0.231 HD
ATOM     59  H   SGN d 302       3.269   3.370  56.487  0.00  0.00     0.231 HD
ATOM     60  H   SGN d 302       7.480  -1.420  52.015  0.00  0.00     0.080 H 
ATOM     61  H   SGN d 302       7.134  -1.942  53.607  0.00  0.00     0.080 H 
ATOM     62  H   SGN d 302       5.096   5.680  53.868  0.00  0.00     0.231 HD
ATOM     63  H   SGN d 302       6.437   3.580  51.795  0.00  0.00     0.210 HD
ATOM     64  H   SGN d 302       3.214   2.528  54.212  0.00  0.00     0.140 HD
ATOM     65  H   SGN d 302       5.134   1.598  55.621  0.00  0.00     0.131 H 
ATOM     66  O61 IDS d 303       5.071  -1.999  56.007  0.00  0.00    -0.646 OA
ATOM     67  O5  IDS d 303       1.944  -1.343  54.483  0.00  0.00    -0.340 OA
ATOM     68  S   IDS d 303       0.176   2.476  53.284  0.00  0.00     0.252 S 
ATOM     69  C1  IDS d 303       0.701  -0.669  54.721  0.00  0.00     0.161 C 
ATOM     70  C5  IDS d 303       2.875  -1.283  55.580  0.00  0.00     0.152 C 
ATOM     71  C6  IDS d 303       4.107  -2.073  55.226  0.00  0.00     0.206 C 
ATOM     72  O3  IDS d 303       1.605   0.579  57.439  0.00  0.00    -0.390 OA
ATOM     73  O2S IDS d 303      -0.220   3.496  54.229  0.00  0.00    -0.572 OA
ATOM     74  O62 IDS d 303       4.170  -2.577  54.093  0.00  0.00    -0.646 OA
ATOM     75  O1S IDS d 303       0.715   3.067  52.093  0.00  0.00    -0.572 OA
ATOM     76  O2  IDS d 303       1.401   1.486  53.965  0.00  0.00    -0.244 OA
ATOM     77  C4  IDS d 303       3.290   0.163  55.775  0.00  0.00     0.103 C 
ATOM     78  C2  IDS d 303       1.003   0.788  55.094  0.00  0.00     0.134 C 
ATOM     79  C3  IDS d 303       2.067   0.973  56.178  0.00  0.00     0.094 C 
ATOM     80  O3S IDS d 303      -0.979   1.710  53.054  0.00  0.00    -0.572 OA
ATOM     81  H   IDS d 303       0.134  -0.689  53.813  0.00  0.00     0.133 H 
ATOM     82  H   IDS d 303       2.421  -1.677  56.464  0.00  0.00     0.104 H 
ATOM     83  H   IDS d 303       2.306   0.710  58.096  0.00  0.00     0.210 HD
ATOM     84  H   IDS d 303       4.037   0.261  56.534  0.00  0.00     0.092 H 
ATOM     85  H   IDS d 303       0.089   1.168  55.500  0.00  0.00     0.097 H 
ATOM     86  H   IDS d 303       2.313   2.011  56.259  0.00  0.00     0.091 H 
ATOM     87  O1S UAP d 301       9.248  -2.600  48.510  0.00  0.00    -0.572 OA
ATOM     88  O61 UAP d 301       7.206   4.389  47.559  0.00  0.00    -0.642 OA
ATOM     89  C1  UAP d 301       7.690   0.689  50.182  0.00  0.00     0.167 C 
ATOM     90  O62 UAP d 301       8.626   4.481  49.194  0.00  0.00    -0.642 OA
ATOM     91  O3S UAP d 301       8.073  -2.004  46.616  0.00  0.00    -0.572 OA
ATOM     92  C6  UAP d 301       7.783   3.879  48.523  0.00  0.00     0.233 C 
ATOM     93  O3  UAP d 301       5.101   0.417  48.408  0.00  0.00    -0.389 OA
ATOM     94  C3  UAP d 301       6.437   0.605  48.017  0.00  0.00     0.086 C 
ATOM     95  S   UAP d 301       9.128  -1.602  47.505  0.00  0.00     0.252 S 
ATOM     96  O2  UAP d 301       8.678  -0.116  48.282  0.00  0.00    -0.244 OA
ATOM     97  C5  UAP d 301       7.520   2.615  48.787  0.00  0.00     0.147 C 
ATOM     98  O2S UAP d 301      10.384  -1.378  46.829  0.00  0.00    -0.572 OA
ATOM     99  C2  UAP d 301       7.439  -0.103  48.933  0.00  0.00     0.135 C 
ATOM    100  C4  UAP d 301       6.691   2.009  47.947  0.00  0.00    -0.034 C 
ATOM    101  O5  UAP d 301       8.163   1.986  49.800  0.00  0.00    -0.311 OA
ATOM    102  H   UAP d 301       8.430   0.276  50.836  0.00  0.00     0.134 H 
ATOM    103  H   UAP d 301       4.910  -0.532  48.461  0.00  0.00     0.210 HD
ATOM    104  H   UAP d 301       6.574   0.156  47.056  0.00  0.00     0.093 H 
ATOM    105  H   UAP d 301       7.046  -1.071  49.161  0.00  0.00     0.097 H 
ATOM    106  H   UAP d 301       6.216   2.569  47.222  0.00  0.00     0.085 H 
ENDROOT
TORSDOF 33
ENDMDL
MODEL 55
REMARK VINA RESULT:      -5.5      3.372      6.995
REMARK  0 active torsions:
REMARK  status: ('A' for Active; 'I' for Inactive)
REMARK       I    between atoms: C4_1  and  O4_32 
REMARK       I    between atoms: C2_2  and  N_17 
REMARK       I    between atoms: C4_3  and  O4_45 
REMARK       I    between atoms: C5_5  and  C6_20 
REMARK       I    between atoms: C5_7  and  C6_42 
REMARK       I    between atoms: C2_8  and  N_48 
REMARK       I    between atoms: O1_9  and  C1_58 
REMARK       I    between atoms: O1_9  and  C4_62 
REMARK       I    between atoms: C3_11  and  O3_46 
REMARK       I    between atoms: O1S_13  and  S1_14 
REMARK       I    between atoms: S1_14  and  N_48 
REMARK       I    between atoms: S1_14  and  O2S_39 
REMARK       I    between atoms: S1_14  and  O3S_16 
REMARK       I    between atoms: N_17  and  S1_64 
REMARK       I    between atoms: C1_18  and  O4_45 
REMARK       I    between atoms: C6_20  and  O6_41 
REMARK       I    between atoms: O1S_22  and  S1_64 
REMARK       I    between atoms: O3S_25  and  S1_64 
REMARK       I    between atoms: O1_26  and  C1_61 
REMARK       I    between atoms: S_27  and  O2_57 
REMARK       I    between atoms: O6_29  and  C6_42 
REMARK       I    between atoms: O6_29  and  S2_68 
REMARK       I    between atoms: C6_30  and  C5_54 
REMARK       I    between atoms: C1_31  and  O4_32 
REMARK       I    between atoms: C5_35  and  C6_36 
REMARK       I    between atoms: O3_37  and  C3_38 
REMARK       I    between atoms: C3_40  and  O3_44 
REMARK       I    between atoms: O6_41  and  S2_52 
REMARK       I    between atoms: S_43  and  O2_53 
REMARK       I    between atoms: O3_47  and  C3_69 
REMARK       I    between atoms: O2S_49  and  S1_64 
REMARK       I    between atoms: O2_53  and  C2_59 
REMARK       I    between atoms: O2_57  and  C2_65 
ROOT
ATOM      1  C4  SGN d 304      -0.096  -1.158  52.964  0.00  0.00     0.095 C 
ATOM      2  C2  SGN d 304      -1.753  -3.072  52.919  0.00  0.00     0.081 C 
ATOM      3  O5S SGN d 304       0.438  -0.568  48.285  0.00  0.00    -0.572 OA
ATOM      4  C5  SGN d 304      -1.230  -0.291  52.395  0.00  0.00     0.091 C 
ATOM      5  N   SGN d 304      -2.482  -3.963  53.818  0.00  0.00    -0.210 NA
ATOM      6  O4S SGN d 304       1.341   1.455  49.114  0.00  0.00    -0.572 OA
ATOM      7  O1S SGN d 304      -3.607  -5.936  52.513  0.00  0.00    -0.296 OA
ATOM      8  O3S SGN d 304      -1.339  -6.208  52.964  0.00  0.00    -0.296 OA
ATOM      9  O1  SGN d 304      -3.846  -1.707  53.004  0.00  0.00    -0.369 OA
ATOM     10  O6  SGN d 304      -0.803   0.662  50.273  0.00  0.00    -0.254 OA
ATOM     11  O4  SGN d 304       0.755  -0.403  53.868  0.00  0.00    -0.348 OA
ATOM     12  O5  SGN d 304      -2.063  -1.086  51.522  0.00  0.00    -0.350 OA
ATOM     13  C3  SGN d 304      -0.792  -2.259  53.775  0.00  0.00     0.083 C 
ATOM     14  C6  SGN d 304      -0.764   0.949  51.667  0.00  0.00     0.067 C 
ATOM     15  O3  SGN d 304       0.174  -3.130  54.283  0.00  0.00    -0.391 OA
ATOM     16  O2S SGN d 304      -2.897  -6.418  54.693  0.00  0.00    -0.296 OA
ATOM     17  C1  SGN d 304      -2.751  -2.154  52.192  0.00  0.00     0.147 C 
ATOM     18  S1  SGN d 304      -2.584  -5.715  53.484  0.00  0.00     0.156 S 
ATOM     19  O6S SGN d 304       1.529  -0.567  50.363  0.00  0.00    -0.572 OA
ATOM     20  S2  SGN d 304       0.706   0.213  49.468  0.00  0.00     0.251 S 
ATOM     21  H   SGN d 304       0.518  -1.530  52.172  0.00  0.00     0.091 H 
ATOM     22  H   SGN d 304      -1.209  -3.618  52.177  0.00  0.00     0.076 H 
ATOM     23  H   SGN d 304      -1.786   0.058  53.240  0.00  0.00     0.090 H 
ATOM     24  H   SGN d 304      -3.441  -3.618  53.855  0.00  0.00     0.140 HD
ATOM     25  H   SGN d 304      -3.388  -5.458  51.698  0.00  0.00     0.231 HD
ATOM     26  H   SGN d 304      -1.121  -5.736  52.146  0.00  0.00     0.231 HD
ATOM     27  H   SGN d 304      -4.267  -2.471  53.427  0.00  0.00     0.212 HD
ATOM     28  H   SGN d 304      -1.346  -1.786  54.559  0.00  0.00     0.089 H 
ATOM     29  H   SGN d 304       0.235   1.192  51.962  0.00  0.00     0.080 H 
ATOM     30  H   SGN d 304      -1.392   1.783  51.900  0.00  0.00     0.080 H 
ATOM     31  H   SGN d 304       0.658  -3.541  53.550  0.00  0.00     0.210 HD
ATOM     32  H   SGN d 304      -3.737  -6.089  55.050  0.00  0.00     0.231 HD
ATOM     33  H   SGN d 304      -3.227  -2.753  51.445  0.00  0.00     0.131 H 
ATOM     34  C4  SGN d 302       8.334   0.300  51.971  0.00  0.00     0.095 C 
ATOM     35  C5  SGN d 302       7.477  -0.936  52.211  0.00  0.00     0.091 C 
ATOM     36  C2  SGN d 302       7.369   1.348  53.927  0.00  0.00     0.081 C 
ATOM     37  O1  SGN d 302       5.311   0.065  53.805  0.00  0.00    -0.348 OA
ATOM     38  C3  SGN d 302       7.614   1.525  52.464  0.00  0.00     0.083 C 
ATOM     39  O1S SGN d 302       6.079   4.253  56.108  0.00  0.00    -0.296 OA
ATOM     40  S1  SGN d 302       6.794   2.999  55.945  0.00  0.00     0.156 S 
ATOM     41  O4S SGN d 302      11.282  -3.531  53.796  0.00  0.00    -0.572 OA
ATOM     42  O3S SGN d 302       6.375   1.952  56.851  0.00  0.00    -0.296 OA
ATOM     43  C6  SGN d 302       8.218  -2.183  51.810  0.00  0.00     0.067 C 
ATOM     44  O6S SGN d 302       9.517  -4.701  52.809  0.00  0.00    -0.572 OA
ATOM     45  O5S SGN d 302      11.207  -3.647  51.472  0.00  0.00    -0.572 OA
ATOM     46  O2S SGN d 302       8.186   3.284  56.040  0.00  0.00    -0.296 OA
ATOM     47  O6  SGN d 302       9.406  -2.152  52.592  0.00  0.00    -0.254 OA
ATOM     48  O4  SGN d 302       8.481   0.497  50.583  0.00  0.00    -0.348 OA
ATOM     49  O3  SGN d 302       8.453   2.633  52.228  0.00  0.00    -0.391 OA
ATOM     50  N   SGN d 302       6.459   2.374  54.338  0.00  0.00    -0.210 NA
ATOM     51  S2  SGN d 302      10.413  -3.582  52.669  0.00  0.00     0.251 S 
ATOM     52  C1  SGN d 302       6.659   0.043  54.194  0.00  0.00     0.150 C 
ATOM     53  O5  SGN d 302       7.335  -1.037  53.593  0.00  0.00    -0.349 OA
ATOM     54  H   SGN d 302       9.270   0.156  52.470  0.00  0.00     0.091 H 
ATOM     55  H   SGN d 302       6.561  -0.849  51.665  0.00  0.00     0.090 H 
ATOM     56  H   SGN d 302       8.307   1.378  54.441  0.00  0.00     0.076 H 
ATOM     57  H   SGN d 302       6.679   1.677  51.966  0.00  0.00     0.089 H 
ATOM     58  H   SGN d 302       6.414   4.901  55.469  0.00  0.00     0.231 HD
ATOM     59  H   SGN d 302       5.422   1.798  56.747  0.00  0.00     0.231 HD
ATOM     60  H   SGN d 302       8.451  -2.167  50.766  0.00  0.00     0.080 H 
ATOM     61  H   SGN d 302       7.644  -3.071  51.973  0.00  0.00     0.080 H 
ATOM     62  H   SGN d 302       8.414   3.990  55.415  0.00  0.00     0.231 HD
ATOM     63  H   SGN d 302       9.301   2.497  52.679  0.00  0.00     0.210 HD
ATOM     64  H   SGN d 302       5.513   1.990  54.331  0.00  0.00     0.140 HD
ATOM     65  H   SGN d 302       6.673  -0.094  55.255  0.00  0.00     0.131 H 
ATOM     66  O61 IDS d 303       5.272  -3.210  54.065  0.00  0.00    -0.646 OA
ATOM     67  O5  IDS d 303       2.934  -0.828  52.889  0.00  0.00    -0.340 OA
ATOM     68  S   IDS d 303       2.892   3.519  53.393  0.00  0.00     0.252 S 
ATOM     69  C1  IDS d 303       1.987   0.141  53.360  0.00  0.00     0.161 C 
ATOM     70  C5  IDS d 303       3.596  -1.570  53.929  0.00  0.00     0.152 C 
ATOM     71  C6  IDS d 303       4.514  -2.586  53.303  0.00  0.00     0.206 C 
ATOM     72  O3  IDS d 303       2.731  -0.223  56.373  0.00  0.00    -0.390 OA
ATOM     73  O2S IDS d 303       2.706   4.165  54.672  0.00  0.00    -0.572 OA
ATOM     74  O62 IDS d 303       4.612  -2.598  52.065  0.00  0.00    -0.646 OA
ATOM     75  O1S IDS d 303       3.823   4.250  52.583  0.00  0.00    -0.572 OA
ATOM     76  O2  IDS d 303       3.533   1.943  53.616  0.00  0.00    -0.244 OA
ATOM     77  C4  IDS d 303       4.448  -0.607  54.734  0.00  0.00     0.103 C 
ATOM     78  C2  IDS d 303       2.706   1.090  54.328  0.00  0.00     0.134 C 
ATOM     79  C3  IDS d 303       3.536   0.402  55.413  0.00  0.00     0.094 C 
ATOM     80  O3S IDS d 303       1.608   3.432  52.828  0.00  0.00    -0.572 OA
ATOM     81  H   IDS d 303       1.636   0.699  52.517  0.00  0.00     0.133 H 
ATOM     82  H   IDS d 303       2.871  -2.055  54.548  0.00  0.00     0.104 H 
ATOM     83  H   IDS d 303       3.293  -0.646  57.041  0.00  0.00     0.210 HD
ATOM     84  H   IDS d 303       5.020  -1.116  55.481  0.00  0.00     0.092 H 
ATOM     85  H   IDS d 303       1.924   1.617  54.834  0.00  0.00     0.097 H 
ATOM     86  H   IDS d 303       4.112   1.137  55.936  0.00  0.00     0.091 H 
ATOM     87  O1S UAP d 301      10.330  -2.517  47.139  0.00  0.00    -0.572 OA
ATOM     88  O61 UAP d 301      11.107   4.483  49.216  0.00  0.00    -0.642 OA
ATOM     89  C1  UAP d 301       9.740   0.206  50.017  0.00  0.00     0.167 C 
ATOM     90  O62 UAP d 301      12.125   3.365  50.769  0.00  0.00    -0.642 OA
ATOM     91  O3S UAP d 301       9.828  -0.825  45.653  0.00  0.00    -0.572 OA
ATOM     92  C6  UAP d 301      11.269   3.459  49.884  0.00  0.00     0.233 C 
ATOM     93  O3  UAP d 301       7.615   1.696  48.232  0.00  0.00    -0.389 OA
ATOM     94  C3  UAP d 301       8.980   1.467  47.992  0.00  0.00     0.086 C 
ATOM     95  S   UAP d 301      10.765  -1.253  46.655  0.00  0.00     0.252 S 
ATOM     96  O2  UAP d 301      10.727  -0.134  47.981  0.00  0.00    -0.244 OA
ATOM     97  C5  UAP d 301      10.532   2.411  49.576  0.00  0.00     0.147 C 
ATOM     98  O2S UAP d 301      12.124  -1.312  46.171  0.00  0.00    -0.572 OA
ATOM     99  C2  UAP d 301       9.472   0.125  48.543  0.00  0.00     0.135 C 
ATOM    100  C4  UAP d 301       9.721   2.560  48.537  0.00  0.00    -0.034 C 
ATOM    101  O5  UAP d 301      10.704   1.241  50.238  0.00  0.00    -0.311 OA
ATOM    102  H   UAP d 301      10.146  -0.685  50.450  0.00  0.00     0.134 H 
ATOM    103  H   UAP d 301       7.095   0.962  47.868  0.00  0.00     0.210 HD
ATOM    104  H   UAP d 301       9.132   1.405  46.936  0.00  0.00     0.093 H 
ATOM    105  H   UAP d 301       8.726  -0.611  48.325  0.00  0.00     0.097 H 
ATOM    106  H   UAP d 301       9.623   3.493  48.109  0.00  0.00     0.085 H 
ENDROOT
TORSDOF 33
ENDMDL
MODEL 56
REMARK VINA RESULT:      -5.5      2.307      3.461
REMARK  0 active torsions:
REMARK  status: ('A' for Active; 'I' for Inactive)
REMARK       I    between atoms: C4_1  and  O4_32 
REMARK       I    between atoms: C2_2  and  N_17 
REMARK       I    between atoms: C4_3  and  O4_45 
REMARK       I    between atoms: C5_5  and  C6_20 
REMARK       I    between atoms: C5_7  and  C6_42 
REMARK       I    between atoms: C2_8  and  N_48 
REMARK       I    between atoms: O1_9  and  C1_58 
REMARK       I    between atoms: O1_9  and  C4_62 
REMARK       I    between atoms: C3_11  and  O3_46 
REMARK       I    between atoms: O1S_13  and  S1_14 
REMARK       I    between atoms: S1_14  and  N_48 
REMARK       I    between atoms: S1_14  and  O2S_39 
REMARK       I    between atoms: S1_14  and  O3S_16 
REMARK       I    between atoms: N_17  and  S1_64 
REMARK       I    between atoms: C1_18  and  O4_45 
REMARK       I    between atoms: C6_20  and  O6_41 
REMARK       I    between atoms: O1S_22  and  S1_64 
REMARK       I    between atoms: O3S_25  and  S1_64 
REMARK       I    between atoms: O1_26  and  C1_61 
REMARK       I    between atoms: S_27  and  O2_57 
REMARK       I    between atoms: O6_29  and  C6_42 
REMARK       I    between atoms: O6_29  and  S2_68 
REMARK       I    between atoms: C6_30  and  C5_54 
REMARK       I    between atoms: C1_31  and  O4_32 
REMARK       I    between atoms: C5_35  and  C6_36 
REMARK       I    between atoms: O3_37  and  C3_38 
REMARK       I    between atoms: C3_40  and  O3_44 
REMARK       I    between atoms: O6_41  and  S2_52 
REMARK       I    between atoms: S_43  and  O2_53 
REMARK       I    between atoms: O3_47  and  C3_69 
REMARK       I    between atoms: O2S_49  and  S1_64 
REMARK       I    between atoms: O2_53  and  C2_59 
REMARK       I    between atoms: O2_57  and  C2_65 
ROOT
ATOM      1  C4  SGN d 304      -2.947  -0.355  53.106  0.00  0.00     0.095 C 
ATOM      2  C2  SGN d 304      -4.936  -0.462  51.545  0.00  0.00     0.081 C 
ATOM      3  O5S SGN d 304      -1.213   3.855  51.765  0.00  0.00    -0.572 OA
ATOM      4  C5  SGN d 304      -3.689   0.788  53.818  0.00  0.00     0.091 C 
ATOM      5  N   SGN d 304      -6.038  -1.345  51.170  0.00  0.00    -0.210 NA
ATOM      6  O4S SGN d 304      -0.094   3.527  53.823  0.00  0.00    -0.572 OA
ATOM      7  O1S SGN d 304      -7.244  -0.510  49.000  0.00  0.00    -0.296 OA
ATOM      8  O3S SGN d 304      -5.267  -1.687  48.647  0.00  0.00    -0.296 OA
ATOM      9  O1  SGN d 304      -6.625   0.555  53.083  0.00  0.00    -0.369 OA
ATOM     10  O6  SGN d 304      -2.572   2.872  53.813  0.00  0.00    -0.254 OA
ATOM     11  O4  SGN d 304      -2.182  -1.162  54.042  0.00  0.00    -0.348 OA
ATOM     12  O5  SGN d 304      -4.453   1.548  52.856  0.00  0.00    -0.350 OA
ATOM     13  C3  SGN d 304      -4.044  -1.241  52.501  0.00  0.00     0.083 C 
ATOM     14  C6  SGN d 304      -2.796   1.715  54.610  0.00  0.00     0.067 C 
ATOM     15  O3  SGN d 304      -3.446  -2.279  51.784  0.00  0.00    -0.391 OA
ATOM     16  O2S SGN d 304      -7.192  -2.829  49.318  0.00  0.00    -0.296 OA
ATOM     17  C1  SGN d 304      -5.502   0.797  52.225  0.00  0.00     0.147 C 
ATOM     18  S1  SGN d 304      -6.454  -1.609  49.453  0.00  0.00     0.156 S 
ATOM     19  O6S SGN d 304      -0.668   1.674  52.437  0.00  0.00    -0.572 OA
ATOM     20  S2  SGN d 304      -1.060   2.983  52.904  0.00  0.00     0.251 S 
ATOM     21  H   SGN d 304      -2.265   0.040  52.383  0.00  0.00     0.091 H 
ATOM     22  H   SGN d 304      -4.373  -0.149  50.691  0.00  0.00     0.076 H 
ATOM     23  H   SGN d 304      -4.333   0.319  54.532  0.00  0.00     0.090 H 
ATOM     24  H   SGN d 304      -6.875  -0.972  51.618  0.00  0.00     0.140 HD
ATOM     25  H   SGN d 304      -6.738   0.313  49.094  0.00  0.00     0.231 HD
ATOM     26  H   SGN d 304      -4.763  -0.863  48.734  0.00  0.00     0.231 HD
ATOM     27  H   SGN d 304      -7.296   0.046  52.601  0.00  0.00     0.212 HD
ATOM     28  H   SGN d 304      -4.644  -1.612  53.305  0.00  0.00     0.089 H 
ATOM     29  H   SGN d 304      -1.865   1.232  54.824  0.00  0.00     0.080 H 
ATOM     30  H   SGN d 304      -3.255   1.978  55.540  0.00  0.00     0.080 H 
ATOM     31  H   SGN d 304      -2.911  -1.910  51.064  0.00  0.00     0.210 HD
ATOM     32  H   SGN d 304      -7.995  -2.784  49.860  0.00  0.00     0.231 HD
ATOM     33  H   SGN d 304      -5.913   1.404  51.446  0.00  0.00     0.131 H 
ATOM     34  C4  SGN d 302       5.587  -1.519  53.013  0.00  0.00     0.095 C 
ATOM     35  C5  SGN d 302       4.440  -1.892  52.083  0.00  0.00     0.091 C 
ATOM     36  C2  SGN d 302       4.455  -2.618  54.849  0.00  0.00     0.081 C 
ATOM     37  O1  SGN d 302       2.247  -2.322  53.883  0.00  0.00    -0.348 OA
ATOM     38  C3  SGN d 302       5.069  -1.327  54.413  0.00  0.00     0.083 C 
ATOM     39  O1S SGN d 302       3.385  -3.192  58.507  0.00  0.00    -0.296 OA
ATOM     40  S1  SGN d 302       3.814  -3.686  57.211  0.00  0.00     0.156 S 
ATOM     41  O4S SGN d 302       7.078  -5.330  49.859  0.00  0.00    -0.572 OA
ATOM     42  O3S SGN d 302       2.969  -4.721  56.658  0.00  0.00    -0.296 OA
ATOM     43  C6  SGN d 302       4.951  -2.180  50.697  0.00  0.00     0.067 C 
ATOM     44  O6S SGN d 302       5.375  -4.313  48.625  0.00  0.00    -0.572 OA
ATOM     45  O5S SGN d 302       7.525  -3.274  48.860  0.00  0.00    -0.572 OA
ATOM     46  O2S SGN d 302       5.172  -4.094  57.337  0.00  0.00    -0.296 OA
ATOM     47  O6  SGN d 302       5.899  -3.225  50.883  0.00  0.00    -0.254 OA
ATOM     48  O4  SGN d 302       6.095  -0.259  52.637  0.00  0.00    -0.348 OA
ATOM     49  O3  SGN d 302       6.169  -0.996  55.230  0.00  0.00    -0.391 OA
ATOM     50  N   SGN d 302       3.731  -2.363  56.057  0.00  0.00    -0.210 NA
ATOM     51  S2  SGN d 302       6.509  -4.080  49.482  0.00  0.00     0.251 S 
ATOM     52  C1  SGN d 302       3.425  -3.083  53.848  0.00  0.00     0.150 C 
ATOM     53  O5  SGN d 302       3.960  -3.116  52.544  0.00  0.00    -0.349 OA
ATOM     54  H   SGN d 302       6.322  -2.295  52.961  0.00  0.00     0.091 H 
ATOM     55  H   SGN d 302       3.722  -1.100  52.064  0.00  0.00     0.090 H 
ATOM     56  H   SGN d 302       5.229  -3.349  54.960  0.00  0.00     0.076 H 
ATOM     57  H   SGN d 302       4.335  -0.550  54.473  0.00  0.00     0.089 H 
ATOM     58  H   SGN d 302       3.998  -2.504  58.810  0.00  0.00     0.231 HD
ATOM     59  H   SGN d 302       2.057  -4.393  56.594  0.00  0.00     0.231 HD
ATOM     60  H   SGN d 302       5.419  -1.314  50.278  0.00  0.00     0.080 H 
ATOM     61  H   SGN d 302       4.169  -2.452  50.020  0.00  0.00     0.080 H 
ATOM     62  H   SGN d 302       5.695  -3.367  57.710  0.00  0.00     0.231 HD
ATOM     63  H   SGN d 302       6.835  -1.699  55.176  0.00  0.00     0.210 HD
ATOM     64  H   SGN d 302       2.752  -2.201  55.820  0.00  0.00     0.140 HD
ATOM     65  H   SGN d 302       3.159  -4.080  54.133  0.00  0.00     0.131 H 
ATOM     66  O61 IDS d 303       1.406  -3.649  50.997  0.00  0.00    -0.646 OA
ATOM     67  O5  IDS d 303       0.011  -1.090  53.006  0.00  0.00    -0.340 OA
ATOM     68  S   IDS d 303       0.840  -0.058  57.177  0.00  0.00     0.252 S 
ATOM     69  C1  IDS d 303      -0.775  -0.897  54.189  0.00  0.00     0.161 C 
ATOM     70  C5  IDS d 303       0.226  -2.468  52.649  0.00  0.00     0.152 C 
ATOM     71  C6  IDS d 303       1.009  -2.530  51.365  0.00  0.00     0.206 C 
ATOM     72  O3  IDS d 303      -0.858  -3.931  54.934  0.00  0.00    -0.390 OA
ATOM     73  O2S IDS d 303       0.512  -0.924  58.286  0.00  0.00    -0.572 OA
ATOM     74  O62 IDS d 303       1.388  -1.460  50.862  0.00  0.00    -0.646 OA
ATOM     75  O1S IDS d 303       2.075   0.630  57.415  0.00  0.00    -0.572 OA
ATOM     76  O2  IDS d 303       1.036  -0.983  55.744  0.00  0.00    -0.244 OA
ATOM     77  C4  IDS d 303       1.061  -3.117  53.736  0.00  0.00     0.103 C 
ATOM     78  C2  IDS d 303      -0.106  -1.656  55.344  0.00  0.00     0.134 C 
ATOM     79  C3  IDS d 303       0.270  -3.107  55.034  0.00  0.00     0.094 C 
ATOM     80  O3S IDS d 303      -0.262   0.804  57.037  0.00  0.00    -0.572 OA
ATOM     81  H   IDS d 303      -0.783   0.149  54.416  0.00  0.00     0.133 H 
ATOM     82  H   IDS d 303      -0.715  -2.965  52.536  0.00  0.00     0.104 H 
ATOM     83  H   IDS d 303      -0.579  -4.839  54.738  0.00  0.00     0.210 HD
ATOM     84  H   IDS d 303       1.312  -4.128  53.490  0.00  0.00     0.092 H 
ATOM     85  H   IDS d 303      -0.844  -1.693  56.117  0.00  0.00     0.097 H 
ATOM     86  H   IDS d 303       0.858  -3.498  55.837  0.00  0.00     0.091 H 
ATOM     87  O1S UAP d 301       7.964   1.235  48.320  0.00  0.00    -0.572 OA
ATOM     88  O61 UAP d 301       9.801   1.515  55.424  0.00  0.00    -0.642 OA
ATOM     89  C1  UAP d 301       7.352  -0.233  51.996  0.00  0.00     0.167 C 
ATOM     90  O62 UAP d 301      10.147  -0.554  54.880  0.00  0.00    -0.642 OA
ATOM     91  O3S UAP d 301       8.221   3.283  49.351  0.00  0.00    -0.572 OA
ATOM     92  C6  UAP d 301       9.566   0.524  54.728  0.00  0.00     0.233 C 
ATOM     93  O3  UAP d 301       6.098   2.503  52.927  0.00  0.00    -0.389 OA
ATOM     94  C3  UAP d 301       7.392   2.228  52.456  0.00  0.00     0.086 C 
ATOM     95  S   UAP d 301       8.775   1.963  49.233  0.00  0.00     0.252 S 
ATOM     96  O2  UAP d 301       8.684   1.170  50.775  0.00  0.00    -0.244 OA
ATOM     97  C5  UAP d 301       8.704   0.667  53.741  0.00  0.00     0.147 C 
ATOM     98  O2S UAP d 301      10.160   1.964  48.824  0.00  0.00    -0.572 OA
ATOM     99  C2  UAP d 301       7.424   1.135  51.384  0.00  0.00     0.135 C 
ATOM    100  C4  UAP d 301       8.214   1.888  53.575  0.00  0.00    -0.034 C 
ATOM    101  O5  UAP d 301       8.446  -0.370  52.909  0.00  0.00    -0.311 OA
ATOM    102  H   UAP d 301       7.432  -1.042  51.301  0.00  0.00     0.134 H 
ATOM    103  H   UAP d 301       5.525   2.736  52.180  0.00  0.00     0.210 HD
ATOM    104  H   UAP d 301       7.769   3.103  51.972  0.00  0.00     0.093 H 
ATOM    105  H   UAP d 301       6.603   1.305  50.719  0.00  0.00     0.097 H 
ATOM    106  H   UAP d 301       8.433   2.615  54.273  0.00  0.00     0.085 H 
ENDROOT
TORSDOF 33
ENDMDL
MODEL 57
REMARK VINA RESULT:      -5.5      2.822      4.739
REMARK  0 active torsions:
REMARK  status: ('A' for Active; 'I' for Inactive)
REMARK       I    between atoms: C4_1  and  O4_32 
REMARK       I    between atoms: C2_2  and  N_17 
REMARK       I    between atoms: C4_3  and  O4_45 
REMARK       I    between atoms: C5_5  and  C6_20 
REMARK       I    between atoms: C5_7  and  C6_42 
REMARK       I    between atoms: C2_8  and  N_48 
REMARK       I    between atoms: O1_9  and  C1_58 
REMARK       I    between atoms: O1_9  and  C4_62 
REMARK       I    between atoms: C3_11  and  O3_46 
REMARK       I    between atoms: O1S_13  and  S1_14 
REMARK       I    between atoms: S1_14  and  N_48 
REMARK       I    between atoms: S1_14  and  O2S_39 
REMARK       I    between atoms: S1_14  and  O3S_16 
REMARK       I    between atoms: N_17  and  S1_64 
REMARK       I    between atoms: C1_18  and  O4_45 
REMARK       I    between atoms: C6_20  and  O6_41 
REMARK       I    between atoms: O1S_22  and  S1_64 
REMARK       I    between atoms: O3S_25  and  S1_64 
REMARK       I    between atoms: O1_26  and  C1_61 
REMARK       I    between atoms: S_27  and  O2_57 
REMARK       I    between atoms: O6_29  and  C6_42 
REMARK       I    between atoms: O6_29  and  S2_68 
REMARK       I    between atoms: C6_30  and  C5_54 
REMARK       I    between atoms: C1_31  and  O4_32 
REMARK       I    between atoms: C5_35  and  C6_36 
REMARK       I    between atoms: O3_37  and  C3_38 
REMARK       I    between atoms: C3_40  and  O3_44 
REMARK       I    between atoms: O6_41  and  S2_52 
REMARK       I    between atoms: S_43  and  O2_53 
REMARK       I    between atoms: O3_47  and  C3_69 
REMARK       I    between atoms: O2S_49  and  S1_64 
REMARK       I    between atoms: O2_53  and  C2_59 
REMARK       I    between atoms: O2_57  and  C2_65 
ROOT
ATOM      1  C4  SGN d 304      -1.048   0.581  52.846  0.00  0.00     0.095 C 
ATOM      2  C2  SGN d 304      -3.211   1.871  53.098  0.00  0.00     0.081 C 
ATOM      3  O5S SGN d 304      -0.001   0.040  57.444  0.00  0.00    -0.572 OA
ATOM      4  C5  SGN d 304      -1.807  -0.618  53.437  0.00  0.00     0.091 C 
ATOM      5  N   SGN d 304      -4.248   2.514  52.296  0.00  0.00    -0.210 NA
ATOM      6  O4S SGN d 304       1.423  -1.567  56.452  0.00  0.00    -0.572 OA
ATOM      7  O1S SGN d 304      -5.832   3.989  53.773  0.00  0.00    -0.296 OA
ATOM      8  O3S SGN d 304      -3.804   4.977  53.197  0.00  0.00    -0.296 OA
ATOM      9  O1  SGN d 304      -4.772  -0.082  53.069  0.00  0.00    -0.369 OA
ATOM     10  O6  SGN d 304      -0.943  -1.455  55.472  0.00  0.00    -0.254 OA
ATOM     11  O4  SGN d 304      -0.075   0.162  51.852  0.00  0.00    -0.348 OA
ATOM     12  O5  SGN d 304      -2.778  -0.155  54.401  0.00  0.00    -0.350 OA
ATOM     13  C3  SGN d 304      -2.112   1.432  52.141  0.00  0.00     0.083 C 
ATOM     14  C6  SGN d 304      -0.922  -1.669  54.066  0.00  0.00     0.067 C 
ATOM     15  O3  SGN d 304      -1.508   2.578  51.622  0.00  0.00    -0.391 OA
ATOM     16  O2S SGN d 304      -5.476   4.740  51.583  0.00  0.00    -0.296 OA
ATOM     17  C1  SGN d 304      -3.814   0.662  53.834  0.00  0.00     0.147 C 
ATOM     18  S1  SGN d 304      -4.868   4.133  52.729  0.00  0.00     0.156 S 
ATOM     19  O6S SGN d 304       0.873   0.450  55.306  0.00  0.00    -0.572 OA
ATOM     20  S2  SGN d 304       0.406  -0.578  56.205  0.00  0.00     0.251 S 
ATOM     21  H   SGN d 304      -0.522   1.103  53.618  0.00  0.00     0.091 H 
ATOM     22  H   SGN d 304      -2.811   2.537  53.833  0.00  0.00     0.076 H 
ATOM     23  H   SGN d 304      -2.288  -1.097  52.610  0.00  0.00     0.090 H 
ATOM     24  H   SGN d 304      -5.051   1.885  52.299  0.00  0.00     0.140 HD
ATOM     25  H   SGN d 304      -5.413   3.578  54.545  0.00  0.00     0.231 HD
ATOM     26  H   SGN d 304      -3.388   4.572  53.974  0.00  0.00     0.231 HD
ATOM     27  H   SGN d 304      -5.442   0.523  52.715  0.00  0.00     0.212 HD
ATOM     28  H   SGN d 304      -2.549   0.833  51.368  0.00  0.00     0.089 H 
ATOM     29  H   SGN d 304       0.078  -1.575  53.696  0.00  0.00     0.080 H 
ATOM     30  H   SGN d 304      -1.273  -2.651  53.827  0.00  0.00     0.080 H 
ATOM     31  H   SGN d 304      -1.124   3.098  52.345  0.00  0.00     0.210 HD
ATOM     32  H   SGN d 304      -6.195   4.174  51.261  0.00  0.00     0.231 HD
ATOM     33  H   SGN d 304      -4.395   1.056  54.641  0.00  0.00     0.131 H 
ATOM     34  C4  SGN d 302       7.465   1.830  53.234  0.00  0.00     0.095 C 
ATOM     35  C5  SGN d 302       6.249   2.738  53.116  0.00  0.00     0.091 C 
ATOM     36  C2  SGN d 302       6.731   0.593  51.287  0.00  0.00     0.081 C 
ATOM     37  O1  SGN d 302       4.390   1.156  51.607  0.00  0.00    -0.348 OA
ATOM     38  C3  SGN d 302       7.129   0.456  52.721  0.00  0.00     0.083 C 
ATOM     39  O1S SGN d 302       6.253  -2.498  49.036  0.00  0.00    -0.296 OA
ATOM     40  S1  SGN d 302       6.550  -1.089  49.222  0.00  0.00     0.156 S 
ATOM     41  O4S SGN d 302       8.920   6.451  51.441  0.00  0.00    -0.572 OA
ATOM     42  O3S SGN d 302       5.757  -0.200  48.402  0.00  0.00    -0.296 OA
ATOM     43  C6  SGN d 302       6.591   4.142  53.537  0.00  0.00     0.067 C 
ATOM     44  O6S SGN d 302       6.958   6.972  52.598  0.00  0.00    -0.572 OA
ATOM     45  O5S SGN d 302       8.989   6.464  53.768  0.00  0.00    -0.572 OA
ATOM     46  O2S SGN d 302       7.949  -0.917  49.025  0.00  0.00    -0.296 OA
ATOM     47  O6  SGN d 302       7.666   4.513  52.682  0.00  0.00    -0.254 OA
ATOM     48  O4  SGN d 302       7.771   1.644  54.598  0.00  0.00    -0.348 OA
ATOM     49  O3  SGN d 302       8.289  -0.337  52.843  0.00  0.00    -0.391 OA
ATOM     50  N   SGN d 302       6.159  -0.654  50.879  0.00  0.00    -0.210 NA
ATOM     51  S2  SGN d 302       8.167   6.190  52.621  0.00  0.00     0.251 S 
ATOM     52  C1  SGN d 302       5.630   1.615  51.136  0.00  0.00     0.150 C 
ATOM     53  O5  SGN d 302       5.978   2.834  51.753  0.00  0.00    -0.349 OA
ATOM     54  H   SGN d 302       8.269   2.277  52.686  0.00  0.00     0.091 H 
ATOM     55  H   SGN d 302       5.451   2.349  53.712  0.00  0.00     0.090 H 
ATOM     56  H   SGN d 302       7.590   0.878  50.716  0.00  0.00     0.076 H 
ATOM     57  H   SGN d 302       6.329   0.001  53.267  0.00  0.00     0.089 H 
ATOM     58  H   SGN d 302       6.821  -3.028  49.616  0.00  0.00     0.231 HD
ATOM     59  H   SGN d 302       4.815  -0.357  48.573  0.00  0.00     0.231 HD
ATOM     60  H   SGN d 302       6.896   4.167  54.562  0.00  0.00     0.080 H 
ATOM     61  H   SGN d 302       5.757   4.808  53.458  0.00  0.00     0.080 H 
ATOM     62  H   SGN d 302       8.434  -1.534  49.596  0.00  0.00     0.231 HD
ATOM     63  H   SGN d 302       9.015   0.074  52.349  0.00  0.00     0.210 HD
ATOM     64  H   SGN d 302       5.144  -0.588  50.965  0.00  0.00     0.140 HD
ATOM     65  H   SGN d 302       5.520   1.784  50.085  0.00  0.00     0.131 H 
ATOM     66  O61 IDS d 303       3.309   4.258  51.528  0.00  0.00    -0.646 OA
ATOM     67  O5  IDS d 303       1.930   1.222  52.715  0.00  0.00    -0.340 OA
ATOM     68  S   IDS d 303       3.212  -2.897  51.979  0.00  0.00     0.252 S 
ATOM     69  C1  IDS d 303       1.301   0.020  52.252  0.00  0.00     0.161 C 
ATOM     70  C5  IDS d 303       2.246   2.169  51.678  0.00  0.00     0.152 C 
ATOM     71  C6  IDS d 303       2.845   3.402  52.300  0.00  0.00     0.206 C 
ATOM     72  O3  IDS d 303       1.663   0.697  49.223  0.00  0.00    -0.390 OA
ATOM     73  O2S IDS d 303       3.141  -3.527  50.681  0.00  0.00    -0.572 OA
ATOM     74  O62 IDS d 303       3.028   3.404  53.528  0.00  0.00    -0.646 OA
ATOM     75  O1S IDS d 303       4.384  -3.322  52.689  0.00  0.00    -0.572 OA
ATOM     76  O2  IDS d 303       3.309  -1.192  51.803  0.00  0.00    -0.244 OA
ATOM     77  C4  IDS d 303       3.293   1.551  50.771  0.00  0.00     0.103 C 
ATOM     78  C2  IDS d 303       2.205  -0.622  51.191  0.00  0.00     0.134 C 
ATOM     79  C3  IDS d 303       2.694   0.327  50.096  0.00  0.00     0.094 C 
ATOM     80  O3S IDS d 303       2.012  -3.238  52.626  0.00  0.00    -0.572 OA
ATOM     81  H   IDS d 303       1.207  -0.647  53.083  0.00  0.00     0.133 H 
ATOM     82  H   IDS d 303       1.361   2.419  51.132  0.00  0.00     0.104 H 
ATOM     83  H   IDS d 303       2.012   1.297  48.545  0.00  0.00     0.210 HD
ATOM     84  H   IDS d 303       3.618   2.238  50.018  0.00  0.00     0.092 H 
ATOM     85  H   IDS d 303       1.591  -1.352  50.707  0.00  0.00     0.097 H 
ATOM     86  H   IDS d 303       3.429  -0.171  49.498  0.00  0.00     0.091 H 
ATOM     87  O1S UAP d 301       8.841   4.976  58.079  0.00  0.00    -0.572 OA
ATOM     88  O61 UAP d 301      11.608  -1.350  55.581  0.00  0.00    -0.642 OA
ATOM     89  C1  UAP d 301       8.916   2.300  55.100  0.00  0.00     0.167 C 
ATOM     90  O62 UAP d 301      12.104   0.081  54.031  0.00  0.00    -0.642 OA
ATOM     91  O3S UAP d 301       9.008   3.165  59.499  0.00  0.00    -0.572 OA
ATOM     92  C6  UAP d 301      11.391  -0.306  54.960  0.00  0.00     0.233 C 
ATOM     93  O3  UAP d 301       7.506   0.158  56.929  0.00  0.00    -0.389 OA
ATOM     94  C3  UAP d 301       8.744   0.799  57.096  0.00  0.00     0.086 C 
ATOM     95  S   UAP d 301       9.685   3.899  58.466  0.00  0.00     0.252 S 
ATOM     96  O2  UAP d 301       9.899   2.868  57.086  0.00  0.00    -0.244 OA
ATOM     97  C5  UAP d 301      10.388   0.445  55.370  0.00  0.00     0.147 C 
ATOM     98  O2S UAP d 301      10.990   4.368  58.867  0.00  0.00    -0.572 OA
ATOM     99  C2  UAP d 301       8.748   2.244  56.589  0.00  0.00     0.135 C 
ATOM    100  C4  UAP d 301       9.746   0.014  56.448  0.00  0.00    -0.034 C 
ATOM    101  O5  UAP d 301      10.135   1.629  54.763  0.00  0.00    -0.311 OA
ATOM    102  H   UAP d 301       8.988   3.286  54.691  0.00  0.00     0.134 H 
ATOM    103  H   UAP d 301       6.811   0.678  57.363  0.00  0.00     0.210 HD
ATOM    104  H   UAP d 301       8.949   0.871  58.143  0.00  0.00     0.093 H 
ATOM    105  H   UAP d 301       7.829   2.700  56.893  0.00  0.00     0.097 H 
ATOM    106  H   UAP d 301       9.978  -0.916  56.830  0.00  0.00     0.085 H 
ENDROOT
TORSDOF 33
ENDMDL
MODEL 58
REMARK VINA RESULT:      -5.4      2.846     10.935
REMARK  0 active torsions:
REMARK  status: ('A' for Active; 'I' for Inactive)
REMARK       I    between atoms: C4_1  and  O4_32 
REMARK       I    between atoms: C2_2  and  N_17 
REMARK       I    between atoms: C4_3  and  O4_45 
REMARK       I    between atoms: C5_5  and  C6_20 
REMARK       I    between atoms: C5_7  and  C6_42 
REMARK       I    between atoms: C2_8  and  N_48 
REMARK       I    between atoms: O1_9  and  C1_58 
REMARK       I    between atoms: O1_9  and  C4_62 
REMARK       I    between atoms: C3_11  and  O3_46 
REMARK       I    between atoms: O1S_13  and  S1_14 
REMARK       I    between atoms: S1_14  and  N_48 
REMARK       I    between atoms: S1_14  and  O2S_39 
REMARK       I    between atoms: S1_14  and  O3S_16 
REMARK       I    between atoms: N_17  and  S1_64 
REMARK       I    between atoms: C1_18  and  O4_45 
REMARK       I    between atoms: C6_20  and  O6_41 
REMARK       I    between atoms: O1S_22  and  S1_64 
REMARK       I    between atoms: O3S_25  and  S1_64 
REMARK       I    between atoms: O1_26  and  C1_61 
REMARK       I    between atoms: S_27  and  O2_57 
REMARK       I    between atoms: O6_29  and  C6_42 
REMARK       I    between atoms: O6_29  and  S2_68 
REMARK       I    between atoms: C6_30  and  C5_54 
REMARK       I    between atoms: C1_31  and  O4_32 
REMARK       I    between atoms: C5_35  and  C6_36 
REMARK       I    between atoms: O3_37  and  C3_38 
REMARK       I    between atoms: C3_40  and  O3_44 
REMARK       I    between atoms: O6_41  and  S2_52 
REMARK       I    between atoms: S_43  and  O2_53 
REMARK       I    between atoms: O3_47  and  C3_69 
REMARK       I    between atoms: O2S_49  and  S1_64 
REMARK       I    between atoms: O2_53  and  C2_59 
REMARK       I    between atoms: O2_57  and  C2_65 
ROOT
ATOM      1  C4  SGN d 304       6.184   0.321  54.078  0.00  0.00     0.095 C 
ATOM      2  C2  SGN d 304       7.863   1.351  55.669  0.00  0.00     0.081 C 
ATOM      3  O5S SGN d 304       4.161   4.312  52.497  0.00  0.00    -0.572 OA
ATOM      4  C5  SGN d 304       7.021   0.941  52.948  0.00  0.00     0.091 C 
ATOM      5  N   SGN d 304       8.896   0.971  56.630  0.00  0.00    -0.210 NA
ATOM      6  O4S SGN d 304       3.436   2.751  50.875  0.00  0.00    -0.572 OA
ATOM      7  O1S SGN d 304       9.677   3.021  58.062  0.00  0.00    -0.296 OA
ATOM      8  O3S SGN d 304       7.691   2.025  58.756  0.00  0.00    -0.296 OA
ATOM      9  O1  SGN d 304       9.782   1.513  54.074  0.00  0.00    -0.369 OA
ATOM     10  O6  SGN d 304       5.883   2.515  51.598  0.00  0.00    -0.254 OA
ATOM     11  O4  SGN d 304       5.615  -0.956  53.686  0.00  0.00    -0.348 OA
ATOM     12  O5  SGN d 304       7.585   2.196  53.389  0.00  0.00    -0.350 OA
ATOM     13  C3  SGN d 304       7.171   0.070  55.226  0.00  0.00     0.083 C 
ATOM     14  C6  SGN d 304       6.268   1.146  51.654  0.00  0.00     0.067 C 
ATOM     15  O3  SGN d 304       6.474  -0.445  56.321  0.00  0.00    -0.391 OA
ATOM     16  O2S SGN d 304       9.726   0.941  59.135  0.00  0.00    -0.296 OA
ATOM     17  C1  SGN d 304       8.518   2.062  54.473  0.00  0.00     0.147 C 
ATOM     18  S1  SGN d 304       9.001   1.774  58.223  0.00  0.00     0.156 S 
ATOM     19  O6S SGN d 304       3.786   2.087  53.138  0.00  0.00    -0.572 OA
ATOM     20  S2  SGN d 304       4.231   2.939  52.061  0.00  0.00     0.251 S 
ATOM     21  H   SGN d 304       5.377   0.972  54.340  0.00  0.00     0.091 H 
ATOM     22  H   SGN d 304       7.150   2.022  56.100  0.00  0.00     0.076 H 
ATOM     23  H   SGN d 304       7.791   0.231  52.730  0.00  0.00     0.090 H 
ATOM     24  H   SGN d 304       9.792   1.122  56.169  0.00  0.00     0.140 HD
ATOM     25  H   SGN d 304       9.181   3.581  57.443  0.00  0.00     0.231 HD
ATOM     26  H   SGN d 304       7.195   2.589  58.142  0.00  0.00     0.231 HD
ATOM     27  H   SGN d 304      10.364   1.449  54.847  0.00  0.00     0.212 HD
ATOM     28  H   SGN d 304       7.912  -0.617  54.874  0.00  0.00     0.089 H 
ATOM     29  H   SGN d 304       5.400   0.521  51.632  0.00  0.00     0.080 H 
ATOM     30  H   SGN d 304       6.882   0.891  50.815  0.00  0.00     0.080 H 
ATOM     31  H   SGN d 304       5.812   0.200  56.616  0.00  0.00     0.210 HD
ATOM     32  H   SGN d 304      10.612   0.767  58.781  0.00  0.00     0.231 HD
ATOM     33  H   SGN d 304       8.772   3.047  54.806  0.00  0.00     0.131 H 
ATOM     34  C4  SGN d 302      -2.204  -1.587  53.662  0.00  0.00     0.095 C 
ATOM     35  C5  SGN d 302      -1.237  -1.231  54.783  0.00  0.00     0.091 C 
ATOM     36  C2  SGN d 302      -0.741  -3.387  52.971  0.00  0.00     0.081 C 
ATOM     37  O1  SGN d 302       1.252  -2.338  53.879  0.00  0.00    -0.348 OA
ATOM     38  C3  SGN d 302      -1.447  -2.159  52.495  0.00  0.00     0.083 C 
ATOM     39  O1S SGN d 302       0.978  -5.794  50.500  0.00  0.00    -0.296 OA
ATOM     40  S1  SGN d 302       0.332  -5.517  51.771  0.00  0.00     0.156 S 
ATOM     41  O4S SGN d 302      -4.167  -3.096  58.197  0.00  0.00    -0.572 OA
ATOM     42  O3S SGN d 302       1.084  -5.950  52.928  0.00  0.00    -0.296 OA
ATOM     43  C6  SGN d 302      -1.983  -0.744  55.996  0.00  0.00     0.067 C 
ATOM     44  O6S SGN d 302      -2.732  -1.367  58.837  0.00  0.00    -0.572 OA
ATOM     45  O5S SGN d 302      -4.823  -0.906  57.756  0.00  0.00    -0.572 OA
ATOM     46  O2S SGN d 302      -0.973  -6.081  51.720  0.00  0.00    -0.296 OA
ATOM     47  O6  SGN d 302      -2.862  -1.815  56.319  0.00  0.00    -0.254 OA
ATOM     48  O4  SGN d 302      -2.795  -0.405  53.170  0.00  0.00    -0.348 OA
ATOM     49  O3  SGN d 302      -2.389  -2.479  51.495  0.00  0.00    -0.391 OA
ATOM     50  N   SGN d 302       0.183  -3.775  51.949  0.00  0.00    -0.210 NA
ATOM     51  S2  SGN d 302      -3.698  -1.795  57.858  0.00  0.00     0.251 S 
ATOM     52  C1  SGN d 302       0.100  -3.080  54.186  0.00  0.00     0.150 C 
ATOM     53  O5  SGN d 302      -0.659  -2.434  55.182  0.00  0.00    -0.349 OA
ATOM     54  H   SGN d 302      -2.923  -2.278  54.052  0.00  0.00     0.091 H 
ATOM     55  H   SGN d 302      -0.548  -0.488  54.440  0.00  0.00     0.090 H 
ATOM     56  H   SGN d 302      -1.469  -4.138  53.197  0.00  0.00     0.076 H 
ATOM     57  H   SGN d 302      -0.729  -1.471  52.098  0.00  0.00     0.089 H 
ATOM     58  H   SGN d 302       0.417  -5.476  49.776  0.00  0.00     0.231 HD
ATOM     59  H   SGN d 302       1.963  -5.538  52.915  0.00  0.00     0.231 HD
ATOM     60  H   SGN d 302      -2.534   0.145  55.770  0.00  0.00     0.080 H 
ATOM     61  H   SGN d 302      -1.330  -0.491  56.805  0.00  0.00     0.080 H 
ATOM     62  H   SGN d 302      -1.433  -5.760  50.928  0.00  0.00     0.231 HD
ATOM     63  H   SGN d 302      -3.040  -3.102  51.854  0.00  0.00     0.210 HD
ATOM     64  H   SGN d 302       1.100  -3.393  52.180  0.00  0.00     0.140 HD
ATOM     65  H   SGN d 302       0.432  -4.023  54.567  0.00  0.00     0.131 H 
ATOM     66  O61 IDS d 303       1.585  -1.694  57.084  0.00  0.00    -0.646 OA
ATOM     67  O5  IDS d 303       3.271  -0.572  54.181  0.00  0.00    -0.340 OA
ATOM     68  S   IDS d 303       3.185  -2.181  50.112  0.00  0.00     0.252 S 
ATOM     69  C1  IDS d 303       4.253  -0.990  53.223  0.00  0.00     0.161 C 
ATOM     70  C5  IDS d 303       3.021  -1.522  55.233  0.00  0.00     0.152 C 
ATOM     71  C6  IDS d 303       2.021  -0.941  56.196  0.00  0.00     0.206 C 
ATOM     72  O3  IDS d 303       4.524  -3.879  54.382  0.00  0.00    -0.390 OA
ATOM     73  O2S IDS d 303       3.723  -3.476  49.762  0.00  0.00    -0.572 OA
ATOM     74  O62 IDS d 303       1.538   0.173  55.933  0.00  0.00    -0.646 OA
ATOM     75  O1S IDS d 303       2.000  -1.900  49.355  0.00  0.00    -0.572 OA
ATOM     76  O2  IDS d 303       2.752  -2.152  51.772  0.00  0.00    -0.244 OA
ATOM     77  C4  IDS d 303       2.406  -2.765  54.618  0.00  0.00     0.103 C 
ATOM     78  C2  IDS d 303       3.816  -2.340  52.639  0.00  0.00     0.134 C 
ATOM     79  C3  IDS d 303       3.418  -3.395  53.673  0.00  0.00     0.094 C 
ATOM     80  O3S IDS d 303       4.228  -1.268  49.878  0.00  0.00    -0.572 OA
ATOM     81  H   IDS d 303       4.282  -0.262  52.438  0.00  0.00     0.133 H 
ATOM     82  H   IDS d 303       3.935  -1.753  55.739  0.00  0.00     0.104 H 
ATOM     83  H   IDS d 303       4.231  -4.543  55.026  0.00  0.00     0.210 HD
ATOM     84  H   IDS d 303       2.134  -3.481  55.364  0.00  0.00     0.092 H 
ATOM     85  H   IDS d 303       4.681  -2.720  52.137  0.00  0.00     0.097 H 
ATOM     86  H   IDS d 303       2.990  -4.238  53.172  0.00  0.00     0.091 H 
ATOM     87  O1S UAP d 301      -5.436   3.031  55.532  0.00  0.00    -0.572 OA
ATOM     88  O61 UAP d 301      -5.973  -0.967  49.397  0.00  0.00    -0.642 OA
ATOM     89  C1  UAP d 301      -4.147  -0.170  53.500  0.00  0.00     0.167 C 
ATOM     90  O62 UAP d 301      -6.373  -2.392  50.981  0.00  0.00    -0.642 OA
ATOM     91  O3S UAP d 301      -5.541   4.092  53.486  0.00  0.00    -0.572 OA
ATOM     92  C6  UAP d 301      -5.849  -1.356  50.561  0.00  0.00     0.233 C 
ATOM     93  O3  UAP d 301      -2.797   1.687  51.343  0.00  0.00    -0.389 OA
ATOM     94  C3  UAP d 301      -4.149   1.575  51.705  0.00  0.00     0.086 C 
ATOM     95  S   UAP d 301      -6.083   3.015  54.267  0.00  0.00     0.252 S 
ATOM     96  O2  UAP d 301      -5.702   1.507  53.494  0.00  0.00    -0.244 OA
ATOM     97  C5  UAP d 301      -5.180  -0.581  51.391  0.00  0.00     0.147 C 
ATOM     98  O2S UAP d 301      -7.519   3.082  54.407  0.00  0.00    -0.572 OA
ATOM     99  C2  UAP d 301      -4.353   1.283  53.195  0.00  0.00     0.135 C 
ATOM    100  C4  UAP d 301      -4.750   0.569  50.888  0.00  0.00    -0.034 C 
ATOM    101  O5  UAP d 301      -5.056  -0.928  52.695  0.00  0.00    -0.311 OA
ATOM    102  H   UAP d 301      -4.335  -0.449  54.516  0.00  0.00     0.134 H 
ATOM    103  H   UAP d 301      -2.371   2.367  51.889  0.00  0.00     0.210 HD
ATOM    104  H   UAP d 301      -4.623   2.519  51.540  0.00  0.00     0.093 H 
ATOM    105  H   UAP d 301      -3.668   1.895  53.745  0.00  0.00     0.097 H 
ATOM    106  H   UAP d 301      -4.854   0.743  49.876  0.00  0.00     0.085 H 
ENDROOT
TORSDOF 33
ENDMDL
MODEL 59
REMARK VINA RESULT:      -5.4      3.514     10.377
REMARK  0 active torsions:
REMARK  status: ('A' for Active; 'I' for Inactive)
REMARK       I    between atoms: C4_1  and  O4_32 
REMARK       I    between atoms: C2_2  and  N_17 
REMARK       I    between atoms: C4_3  and  O4_45 
REMARK       I    between atoms: C5_5  and  C6_20 
REMARK       I    between atoms: C5_7  and  C6_42 
REMARK       I    between atoms: C2_8  and  N_48 
REMARK       I    between atoms: O1_9  and  C1_58 
REMARK       I    between atoms: O1_9  and  C4_62 
REMARK       I    between atoms: C3_11  and  O3_46 
REMARK       I    between atoms: O1S_13  and  S1_14 
REMARK       I    between atoms: S1_14  and  N_48 
REMARK       I    between atoms: S1_14  and  O2S_39 
REMARK       I    between atoms: S1_14  and  O3S_16 
REMARK       I    between atoms: N_17  and  S1_64 
REMARK       I    between atoms: C1_18  and  O4_45 
REMARK       I    between atoms: C6_20  and  O6_41 
REMARK       I    between atoms: O1S_22  and  S1_64 
REMARK       I    between atoms: O3S_25  and  S1_64 
REMARK       I    between atoms: O1_26  and  C1_61 
REMARK       I    between atoms: S_27  and  O2_57 
REMARK       I    between atoms: O6_29  and  C6_42 
REMARK       I    between atoms: O6_29  and  S2_68 
REMARK       I    between atoms: C6_30  and  C5_54 
REMARK       I    between atoms: C1_31  and  O4_32 
REMARK       I    between atoms: C5_35  and  C6_36 
REMARK       I    between atoms: O3_37  and  C3_38 
REMARK       I    between atoms: C3_40  and  O3_44 
REMARK       I    between atoms: O6_41  and  S2_52 
REMARK       I    between atoms: S_43  and  O2_53 
REMARK       I    between atoms: O3_47  and  C3_69 
REMARK       I    between atoms: O2S_49  and  S1_64 
REMARK       I    between atoms: O2_53  and  C2_59 
REMARK       I    between atoms: O2_57  and  C2_65 
ROOT
ATOM      1  C4  SGN d 304       5.104   4.678  55.234  0.00  0.00     0.095 C 
ATOM      2  C2  SGN d 304       7.095   5.595  56.500  0.00  0.00     0.081 C 
ATOM      3  O5S SGN d 304       2.417   3.426  58.940  0.00  0.00    -0.572 OA
ATOM      4  C5  SGN d 304       4.327   5.889  55.772  0.00  0.00     0.091 C 
ATOM      5  N   SGN d 304       8.419   6.168  56.272  0.00  0.00    -0.210 NA
ATOM      6  O4S SGN d 304       0.830   3.400  57.187  0.00  0.00    -0.572 OA
ATOM      7  O1S SGN d 304       9.799   6.320  58.493  0.00  0.00    -0.296 OA
ATOM      8  O3S SGN d 304       9.773   4.224  57.481  0.00  0.00    -0.296 OA
ATOM      9  O1  SGN d 304       6.367   7.985  56.588  0.00  0.00    -0.369 OA
ATOM     10  O6  SGN d 304       2.471   5.368  57.143  0.00  0.00    -0.254 OA
ATOM     11  O4  SGN d 304       4.669   4.313  53.897  0.00  0.00    -0.348 OA
ATOM     12  O5  SGN d 304       4.807   6.232  57.091  0.00  0.00    -0.350 OA
ATOM     13  C3  SGN d 304       6.566   5.136  55.149  0.00  0.00     0.083 C 
ATOM     14  C6  SGN d 304       2.827   5.705  55.806  0.00  0.00     0.067 C 
ATOM     15  O3  SGN d 304       7.354   4.067  54.718  0.00  0.00    -0.391 OA
ATOM     16  O2S SGN d 304      11.036   5.949  56.539  0.00  0.00    -0.296 OA
ATOM     17  C1  SGN d 304       6.176   6.665  57.115  0.00  0.00     0.147 C 
ATOM     18  S1  SGN d 304       9.824   5.639  57.239  0.00  0.00     0.156 S 
ATOM     19  O6S SGN d 304       3.110   2.836  56.778  0.00  0.00    -0.572 OA
ATOM     20  S2  SGN d 304       2.202   3.666  57.534  0.00  0.00     0.251 S 
ATOM     21  H   SGN d 304       4.955   3.831  55.869  0.00  0.00     0.091 H 
ATOM     22  H   SGN d 304       7.135   4.768  57.178  0.00  0.00     0.076 H 
ATOM     23  H   SGN d 304       4.508   6.686  55.081  0.00  0.00     0.090 H 
ATOM     24  H   SGN d 304       8.330   7.174  56.416  0.00  0.00     0.140 HD
ATOM     25  H   SGN d 304       8.977   6.105  58.962  0.00  0.00     0.231 HD
ATOM     26  H   SGN d 304       8.954   4.007  57.954  0.00  0.00     0.231 HD
ATOM     27  H   SGN d 304       7.307   8.218  56.631  0.00  0.00     0.212 HD
ATOM     28  H   SGN d 304       6.612   5.958  54.466  0.00  0.00     0.089 H 
ATOM     29  H   SGN d 304       2.541   4.916  55.142  0.00  0.00     0.080 H 
ATOM     30  H   SGN d 304       2.329   6.599  55.495  0.00  0.00     0.080 H 
ATOM     31  H   SGN d 304       7.292   3.340  55.358  0.00  0.00     0.210 HD
ATOM     32  H   SGN d 304      11.077   6.904  56.372  0.00  0.00     0.231 HD
ATOM     33  H   SGN d 304       6.468   6.765  58.139  0.00  0.00     0.131 H 
ATOM     34  C4  SGN d 302       1.672  -2.868  52.899  0.00  0.00     0.095 C 
ATOM     35  C5  SGN d 302       3.033  -2.419  53.414  0.00  0.00     0.091 C 
ATOM     36  C2  SGN d 302       1.815  -1.246  51.108  0.00  0.00     0.081 C 
ATOM     37  O1  SGN d 302       3.302   0.228  52.338  0.00  0.00    -0.348 OA
ATOM     38  C3  SGN d 302       0.965  -1.712  52.245  0.00  0.00     0.083 C 
ATOM     39  O1S SGN d 302       0.500   1.312  48.543  0.00  0.00    -0.296 OA
ATOM     40  S1  SGN d 302       1.379   0.219  48.919  0.00  0.00     0.156 S 
ATOM     41  O4S SGN d 302       5.223  -6.449  51.775  0.00  0.00    -0.572 OA
ATOM     42  O3S SGN d 302       2.778   0.457  48.644  0.00  0.00    -0.296 OA
ATOM     43  C6  SGN d 302       3.795  -3.583  53.988  0.00  0.00     0.067 C 
ATOM     44  O6S SGN d 302       6.171  -5.385  53.627  0.00  0.00    -0.572 OA
ATOM     45  O5S SGN d 302       4.316  -6.886  53.875  0.00  0.00    -0.572 OA
ATOM     46  O2S SGN d 302       0.887  -0.960  48.291  0.00  0.00    -0.296 OA
ATOM     47  O6  SGN d 302       3.870  -4.515  52.916  0.00  0.00    -0.254 OA
ATOM     48  O4  SGN d 302       0.858  -3.221  53.994  0.00  0.00    -0.348 OA
ATOM     49  O3  SGN d 302      -0.279  -2.185  51.779  0.00  0.00    -0.391 OA
ATOM     50  N   SGN d 302       1.285   0.006  50.661  0.00  0.00    -0.210 NA
ATOM     51  S2  SGN d 302       4.949  -5.888  53.055  0.00  0.00     0.251 S 
ATOM     52  C1  SGN d 302       3.218  -0.950  51.578  0.00  0.00     0.150 C 
ATOM     53  O5  SGN d 302       3.760  -2.041  52.287  0.00  0.00    -0.349 OA
ATOM     54  H   SGN d 302       1.827  -3.680  52.218  0.00  0.00     0.091 H 
ATOM     55  H   SGN d 302       2.903  -1.653  54.149  0.00  0.00     0.090 H 
ATOM     56  H   SGN d 302       1.824  -2.002  50.351  0.00  0.00     0.076 H 
ATOM     57  H   SGN d 302       0.804  -0.898  52.922  0.00  0.00     0.089 H 
ATOM     58  H   SGN d 302      -0.416   1.079  48.757  0.00  0.00     0.231 HD
ATOM     59  H   SGN d 302       3.062   1.269  49.093  0.00  0.00     0.231 HD
ATOM     60  H   SGN d 302       3.274  -4.004  54.821  0.00  0.00     0.080 H 
ATOM     61  H   SGN d 302       4.761  -3.300  54.353  0.00  0.00     0.080 H 
ATOM     62  H   SGN d 302      -0.052  -1.074  48.506  0.00  0.00     0.231 HD
ATOM     63  H   SGN d 302      -0.134  -2.923  51.167  0.00  0.00     0.210 HD
ATOM     64  H   SGN d 302       1.810   0.758  51.107  0.00  0.00     0.140 HD
ATOM     65  H   SGN d 302       3.803  -0.791  50.696  0.00  0.00     0.131 H 
ATOM     66  O61 IDS d 303       6.288  -0.725  53.325  0.00  0.00    -0.646 OA
ATOM     67  O5  IDS d 303       4.164   1.961  54.219  0.00  0.00    -0.340 OA
ATOM     68  S   IDS d 303       0.595   3.484  52.196  0.00  0.00     0.252 S 
ATOM     69  C1  IDS d 303       3.719   3.241  53.751  0.00  0.00     0.161 C 
ATOM     70  C5  IDS d 303       5.136   1.321  53.372  0.00  0.00     0.152 C 
ATOM     71  C6  IDS d 303       5.561   0.022  54.002  0.00  0.00     0.206 C 
ATOM     72  O3  IDS d 303       5.212   3.044  51.014  0.00  0.00    -0.390 OA
ATOM     73  O2S IDS d 303       0.632   4.120  50.899  0.00  0.00    -0.572 OA
ATOM     74  O62 IDS d 303       5.006  -0.322  55.058  0.00  0.00    -0.646 OA
ATOM     75  O1S IDS d 303      -0.591   2.690  52.341  0.00  0.00    -0.572 OA
ATOM     76  O2  IDS d 303       1.940   2.434  52.376  0.00  0.00    -0.244 OA
ATOM     77  C4  IDS d 303       4.476   1.001  52.045  0.00  0.00     0.103 C 
ATOM     78  C2  IDS d 303       3.168   3.073  52.329  0.00  0.00     0.134 C 
ATOM     79  C3  IDS d 303       4.078   2.303  51.369  0.00  0.00     0.094 C 
ATOM     80  O3S IDS d 303       0.684   4.532  53.128  0.00  0.00    -0.572 OA
ATOM     81  H   IDS d 303       2.930   3.574  54.395  0.00  0.00     0.133 H 
ATOM     82  H   IDS d 303       5.981   1.964  53.238  0.00  0.00     0.104 H 
ATOM     83  H   IDS d 303       5.762   2.524  50.407  0.00  0.00     0.210 HD
ATOM     84  H   IDS d 303       5.133   0.460  51.397  0.00  0.00     0.092 H 
ATOM     85  H   IDS d 303       3.090   4.066  51.940  0.00  0.00     0.097 H 
ATOM     86  H   IDS d 303       3.549   2.109  50.460  0.00  0.00     0.091 H 
ATOM     87  O1S UAP d 301       1.598  -6.588  57.527  0.00  0.00    -0.572 OA
ATOM     88  O61 UAP d 301      -3.764  -4.662  52.895  0.00  0.00    -0.642 OA
ATOM     89  C1  UAP d 301       0.606  -4.595  54.197  0.00  0.00     0.167 C 
ATOM     90  O62 UAP d 301      -2.311  -5.647  51.625  0.00  0.00    -0.642 OA
ATOM     91  O3S UAP d 301      -0.434  -5.885  58.365  0.00  0.00    -0.572 OA
ATOM     92  C6  UAP d 301      -2.608  -5.004  52.635  0.00  0.00     0.233 C 
ATOM     93  O3  UAP d 301      -1.050  -2.513  55.884  0.00  0.00    -0.389 OA
ATOM     94  C3  UAP d 301      -1.233  -3.898  55.746  0.00  0.00     0.086 C 
ATOM     95  S   UAP d 301       0.191  -6.687  57.349  0.00  0.00     0.252 S 
ATOM     96  O2  UAP d 301      -0.196  -6.028  55.790  0.00  0.00    -0.244 OA
ATOM     97  C5  UAP d 301      -1.677  -4.716  53.523  0.00  0.00     0.147 C 
ATOM     98  O2S UAP d 301      -0.248  -8.062  57.363  0.00  0.00    -0.572 OA
ATOM     99  C2  UAP d 301       0.082  -4.670  55.600  0.00  0.00     0.135 C 
ATOM    100  C4  UAP d 301      -2.100  -4.128  54.634  0.00  0.00    -0.034 C 
ATOM    101  O5  UAP d 301      -0.398  -5.114  53.319  0.00  0.00    -0.311 OA
ATOM    102  H   UAP d 301       1.493  -5.167  54.017  0.00  0.00     0.134 H 
ATOM    103  H   UAP d 301      -0.462  -2.338  56.636  0.00  0.00     0.210 HD
ATOM    104  H   UAP d 301      -1.676  -4.272  56.644  0.00  0.00     0.093 H 
ATOM    105  H   UAP d 301       0.782  -4.257  56.297  0.00  0.00     0.097 H 
ATOM    106  H   UAP d 301      -3.085  -3.826  54.696  0.00  0.00     0.085 H 
ENDROOT
TORSDOF 33
ENDMDL
