MODEL 1
REMARK VINA RESULT:      -6.2      0.000      0.000
REMARK  0 active torsions:
REMARK  status: ('A' for Active; 'I' for Inactive)
REMARK       I    between atoms: O2S_2  and  S1_19 
REMARK       I    between atoms: C3_3  and  O3_35 
REMARK       I    between atoms: O2_5  and  C2_22 
REMARK       I    between atoms: O2_5  and  S_7 
REMARK       I    between atoms: O1_6  and  C1_12 
REMARK       I    between atoms: O4_8  and  C1_32 
REMARK       I    between atoms: O4_8  and  C4_20 
REMARK       I    between atoms: C5_10  and  C6_33 
REMARK       I    between atoms: C5_14  and  C6_23 
REMARK       I    between atoms: O3_17  and  C3_31 
REMARK       I    between atoms: S1_19  and  N_30 
REMARK       I    between atoms: S1_19  and  O1S_28 
REMARK       I    between atoms: S1_19  and  O3S_25 
REMARK       I    between atoms: S2_21  and  O6_29 
REMARK       I    between atoms: C2_24  and  N_30 
REMARK       I    between atoms: O6_29  and  C6_33 
ROOT
ATOM      1  O5S SGN d5702      65.404  36.220  37.847  0.00  0.00    -0.572 OA
ATOM      2  O2S SGN d5702      59.618  44.937  37.332  0.00  0.00    -0.296 OA
ATOM      3  O1  SGN d5702      60.888  40.265  37.284  0.00  0.00    -0.369 OA
ATOM      4  O4  SGN d5702      64.615  40.250  34.524  0.00  0.00    -0.348 OA
ATOM      5  O5  SGN d5702      63.148  40.365  37.851  0.00  0.00    -0.350 OA
ATOM      6  C5  SGN d5702      63.717  39.791  36.699  0.00  0.00     0.091 C 
ATOM      7  O4S SGN d5702      65.468  35.557  35.611  0.00  0.00    -0.572 OA
ATOM      8  C1  SGN d5702      61.946  41.115  37.654  0.00  0.00     0.147 C 
ATOM      9  O3  SGN d5702      62.897  42.640  34.408  0.00  0.00    -0.391 OA
ATOM     10  S1  SGN d5702      60.955  44.441  37.315  0.00  0.00     0.156 S 
ATOM     11  C4  SGN d5702      64.018  40.906  35.677  0.00  0.00     0.095 C 
ATOM     12  S2  SGN d5702      65.851  36.579  36.531  0.00  0.00     0.251 S 
ATOM     13  C2  SGN d5702      62.206  42.205  36.629  0.00  0.00     0.081 C 
ATOM     14  O3S SGN d5702      61.870  45.308  36.598  0.00  0.00    -0.296 OA
ATOM     15  O1S SGN d5702      61.344  44.188  38.688  0.00  0.00    -0.296 OA
ATOM     16  O6  SGN d5702      65.145  38.102  36.109  0.00  0.00    -0.254 OA
ATOM     17  N   SGN d5702      60.983  42.910  36.435  0.00  0.00    -0.210 NA
ATOM     18  C3  SGN d5702      62.674  41.601  35.331  0.00  0.00     0.083 C 
ATOM     19  C6  SGN d5702      64.956  39.070  37.130  0.00  0.00     0.067 C 
ATOM     20  O6S SGN d5702      67.267  36.785  36.451  0.00  0.00    -0.572 OA
ATOM     21  H   SGN d5702      59.051  44.322  37.822  0.00  0.00     0.231 HD
ATOM     22  H   SGN d5702      60.762  39.589  37.969  0.00  0.00     0.212 HD
ATOM     23  H   SGN d5702      63.056  39.097  36.224  0.00  0.00     0.090 H 
ATOM     24  H   SGN d5702      61.650  41.586  38.569  0.00  0.00     0.131 H 
ATOM     25  H   SGN d5702      63.199  42.264  33.567  0.00  0.00     0.210 HD
ATOM     26  H   SGN d5702      64.689  41.655  36.040  0.00  0.00     0.091 H 
ATOM     27  H   SGN d5702      62.972  42.869  36.974  0.00  0.00     0.076 H 
ATOM     28  H   SGN d5702      61.552  45.436  35.691  0.00  0.00     0.231 HD
ATOM     29  H   SGN d5702      60.692  43.605  39.107  0.00  0.00     0.231 HD
ATOM     30  H   SGN d5702      60.867  43.101  35.439  0.00  0.00     0.140 HD
ATOM     31  H   SGN d5702      61.968  40.919  34.907  0.00  0.00     0.089 H 
ATOM     32  H   SGN d5702      64.814  38.601  38.081  0.00  0.00     0.080 H 
ATOM     33  H   SGN d5702      65.797  39.721  37.251  0.00  0.00     0.080 H 
ATOM     34  C3  IDU d1623      64.745  39.883  30.764  0.00  0.00     0.069 C 
ATOM     35  O1S IDU d1623      68.985  39.410  32.058  0.00  0.00    -0.572 OA
ATOM     36  O2  IDU d1623      66.520  39.951  32.392  0.00  0.00    -0.244 OA
ATOM     37  S   IDU d1623      67.701  38.867  31.734  0.00  0.00     0.252 S 
ATOM     38  C4  IDU d1623      65.038  41.356  30.439  0.00  0.00    -0.005 C 
ATOM     39  C5  IDU d1623      64.271  42.263  31.415  0.00  0.00     0.127 C 
ATOM     40  O3S IDU d1623      67.500  37.554  32.223  0.00  0.00    -0.572 OA
ATOM     41  O5  IDU d1623      64.662  41.918  32.791  0.00  0.00    -0.343 OA
ATOM     42  O61 IDU d1623      64.323  44.112  29.949  0.00  0.00    -0.646 OA
ATOM     43  C2  IDU d1623      65.159  39.634  32.223  0.00  0.00     0.132 C 
ATOM     44  C6  IDU d1623      64.606  43.693  31.090  0.00  0.00     0.203 C 
ATOM     45  O62 IDU d1623      65.144  44.383  31.970  0.00  0.00    -0.646 OA
ATOM     46  O2S IDU d1623      67.573  38.780  30.288  0.00  0.00    -0.572 OA
ATOM     47  C1  IDU d1623      64.351  40.538  33.167  0.00  0.00     0.161 C 
ATOM     48  O3  IDU d1623      63.376  39.632  30.603  0.00  0.00    -0.393 OA
ATOM     49  H   IDU d1623      65.288  39.234  30.109  0.00  0.00     0.087 H 
ATOM     50  H   IDU d1623      64.728  41.568  29.437  0.00  0.00     0.041 H 
ATOM     51  H   IDU d1623      66.088  41.538  30.535  0.00  0.00     0.041 H 
ATOM     52  H   IDU d1623      63.214  42.127  31.324  0.00  0.00     0.100 H 
ATOM     53  H   IDU d1623      64.979  38.604  32.449  0.00  0.00     0.097 H 
ATOM     54  H   IDU d1623      63.299  40.367  33.065  0.00  0.00     0.133 H 
ATOM     55  H   IDU d1623      62.870  40.214  31.192  0.00  0.00     0.210 HD
ENDROOT
TORSDOF 16
ENDMDL
MODEL 2
REMARK VINA RESULT:      -6.1      3.800      7.630
REMARK  0 active torsions:
REMARK  status: ('A' for Active; 'I' for Inactive)
REMARK       I    between atoms: O2S_2  and  S1_19 
REMARK       I    between atoms: C3_3  and  O3_35 
REMARK       I    between atoms: O2_5  and  C2_22 
REMARK       I    between atoms: O2_5  and  S_7 
REMARK       I    between atoms: O1_6  and  C1_12 
REMARK       I    between atoms: O4_8  and  C1_32 
REMARK       I    between atoms: O4_8  and  C4_20 
REMARK       I    between atoms: C5_10  and  C6_33 
REMARK       I    between atoms: C5_14  and  C6_23 
REMARK       I    between atoms: O3_17  and  C3_31 
REMARK       I    between atoms: S1_19  and  N_30 
REMARK       I    between atoms: S1_19  and  O1S_28 
REMARK       I    between atoms: S1_19  and  O3S_25 
REMARK       I    between atoms: S2_21  and  O6_29 
REMARK       I    between atoms: C2_24  and  N_30 
REMARK       I    between atoms: O6_29  and  C6_33 
ROOT
ATOM      1  O5S SGN d5702      60.583  44.588  42.724  0.00  0.00    -0.572 OA
ATOM      2  O2S SGN d5702      63.073  44.725  32.550  0.00  0.00    -0.296 OA
ATOM      3  O1  SGN d5702      60.492  44.454  36.638  0.00  0.00    -0.369 OA
ATOM      4  O4  SGN d5702      62.934  41.447  39.188  0.00  0.00    -0.348 OA
ATOM      5  O5  SGN d5702      62.108  44.868  38.267  0.00  0.00    -0.350 OA
ATOM      6  C5  SGN d5702      62.043  43.663  38.992  0.00  0.00     0.091 C 
ATOM      7  O4S SGN d5702      60.083  42.335  43.063  0.00  0.00    -0.572 OA
ATOM      8  C1  SGN d5702      61.843  44.775  36.865  0.00  0.00     0.147 C 
ATOM      9  O3  SGN d5702      63.528  41.518  36.303  0.00  0.00    -0.391 OA
ATOM     10  S1  SGN d5702      63.612  44.603  33.865  0.00  0.00     0.156 S 
ATOM     11  C4  SGN d5702      63.041  42.656  38.387  0.00  0.00     0.095 C 
ATOM     12  S2  SGN d5702      61.117  43.256  42.717  0.00  0.00     0.251 S 
ATOM     13  C2  SGN d5702      62.795  43.768  36.247  0.00  0.00     0.081 C 
ATOM     14  O3S SGN d5702      64.852  43.851  33.900  0.00  0.00    -0.296 OA
ATOM     15  O1S SGN d5702      63.723  45.938  34.418  0.00  0.00    -0.296 OA
ATOM     16  O6  SGN d5702      61.751  42.928  41.140  0.00  0.00    -0.254 OA
ATOM     17  N   SGN d5702      62.482  43.678  34.859  0.00  0.00    -0.210 NA
ATOM     18  C3  SGN d5702      62.636  42.424  36.907  0.00  0.00     0.083 C 
ATOM     19  C6  SGN d5702      62.361  43.988  40.418  0.00  0.00     0.067 C 
ATOM     20  O6S SGN d5702      62.225  43.086  43.611  0.00  0.00    -0.572 OA
ATOM     21  H   SGN d5702      62.249  45.234  32.585  0.00  0.00     0.231 HD
ATOM     22  H   SGN d5702      59.926  45.125  37.051  0.00  0.00     0.212 HD
ATOM     23  H   SGN d5702      61.072  43.215  38.943  0.00  0.00     0.090 H 
ATOM     24  H   SGN d5702      62.012  45.722  36.393  0.00  0.00     0.131 H 
ATOM     25  H   SGN d5702      63.435  40.648  36.720  0.00  0.00     0.210 HD
ATOM     26  H   SGN d5702      64.056  42.995  38.398  0.00  0.00     0.091 H 
ATOM     27  H   SGN d5702      63.810  44.079  36.384  0.00  0.00     0.076 H 
ATOM     28  H   SGN d5702      64.708  42.972  33.516  0.00  0.00     0.231 HD
ATOM     29  H   SGN d5702      62.863  46.382  34.363  0.00  0.00     0.231 HD
ATOM     30  H   SGN d5702      62.520  42.698  34.576  0.00  0.00     0.140 HD
ATOM     31  H   SGN d5702      61.645  42.029  36.821  0.00  0.00     0.089 H 
ATOM     32  H   SGN d5702      61.943  44.932  40.698  0.00  0.00     0.080 H 
ATOM     33  H   SGN d5702      63.411  44.070  40.604  0.00  0.00     0.080 H 
ATOM     34  C3  IDU d1623      62.659  37.678  39.268  0.00  0.00     0.069 C 
ATOM     35  O1S IDU d1623      65.211  38.665  42.788  0.00  0.00    -0.572 OA
ATOM     36  O2  IDU d1623      63.950  39.182  40.638  0.00  0.00    -0.244 OA
ATOM     37  S   IDU d1623      63.934  38.414  42.190  0.00  0.00     0.252 S 
ATOM     38  C4  IDU d1623      63.933  37.376  38.464  0.00  0.00    -0.005 C 
ATOM     39  C5  IDU d1623      64.106  38.428  37.356  0.00  0.00     0.127 C 
ATOM     40  O3S IDU d1623      62.844  38.876  42.966  0.00  0.00    -0.572 OA
ATOM     41  O5  IDU d1623      64.151  39.764  37.973  0.00  0.00    -0.343 OA
ATOM     42  O61 IDU d1623      65.466  37.017  36.042  0.00  0.00    -0.646 OA
ATOM     43  C2  IDU d1623      62.792  39.096  39.842  0.00  0.00     0.132 C 
ATOM     44  C6  IDU d1623      65.378  38.124  36.612  0.00  0.00     0.203 C 
ATOM     45  O62 IDU d1623      66.271  38.985  36.602  0.00  0.00    -0.646 OA
ATOM     46  O2S IDU d1623      63.749  36.977  42.054  0.00  0.00    -0.572 OA
ATOM     47  C1  IDU d1623      62.933  40.120  38.704  0.00  0.00     0.161 C 
ATOM     48  O3  IDU d1623      61.544  37.603  38.423  0.00  0.00    -0.393 OA
ATOM     49  H   IDU d1623      62.532  36.969  40.059  0.00  0.00     0.087 H 
ATOM     50  H   IDU d1623      63.855  36.404  38.023  0.00  0.00     0.041 H 
ATOM     51  H   IDU d1623      64.780  37.406  39.117  0.00  0.00     0.041 H 
ATOM     52  H   IDU d1623      63.289  38.406  36.666  0.00  0.00     0.100 H 
ATOM     53  H   IDU d1623      61.917  39.304  40.423  0.00  0.00     0.097 H 
ATOM     54  H   IDU d1623      62.094  40.085  38.042  0.00  0.00     0.133 H 
ATOM     55  H   IDU d1623      61.645  38.242  37.699  0.00  0.00     0.210 HD
ENDROOT
TORSDOF 16
ENDMDL
MODEL 3
REMARK VINA RESULT:      -5.8      3.475      7.380
REMARK  0 active torsions:
REMARK  status: ('A' for Active; 'I' for Inactive)
REMARK       I    between atoms: O2S_2  and  S1_19 
REMARK       I    between atoms: C3_3  and  O3_35 
REMARK       I    between atoms: O2_5  and  C2_22 
REMARK       I    between atoms: O2_5  and  S_7 
REMARK       I    between atoms: O1_6  and  C1_12 
REMARK       I    between atoms: O4_8  and  C1_32 
REMARK       I    between atoms: O4_8  and  C4_20 
REMARK       I    between atoms: C5_10  and  C6_33 
REMARK       I    between atoms: C5_14  and  C6_23 
REMARK       I    between atoms: O3_17  and  C3_31 
REMARK       I    between atoms: S1_19  and  N_30 
REMARK       I    between atoms: S1_19  and  O1S_28 
REMARK       I    between atoms: S1_19  and  O3S_25 
REMARK       I    between atoms: S2_21  and  O6_29 
REMARK       I    between atoms: C2_24  and  N_30 
REMARK       I    between atoms: O6_29  and  C6_33 
ROOT
ATOM      1  O5S SGN d5702      64.793  39.536  33.184  0.00  0.00    -0.572 OA
ATOM      2  O2S SGN d5702      61.193  36.951  42.675  0.00  0.00    -0.296 OA
ATOM      3  O1  SGN d5702      61.404  37.694  37.895  0.00  0.00    -0.369 OA
ATOM      4  O4  SGN d5702      63.212  41.955  37.606  0.00  0.00    -0.348 OA
ATOM      5  O5  SGN d5702      63.625  38.341  37.597  0.00  0.00    -0.350 OA
ATOM      6  C5  SGN d5702      63.437  39.631  37.066  0.00  0.00     0.091 C 
ATOM      7  O4S SGN d5702      63.625  41.509  32.751  0.00  0.00    -0.572 OA
ATOM      8  C1  SGN d5702      62.641  37.896  38.535  0.00  0.00     0.147 C 
ATOM      9  O3  SGN d5702      62.125  41.158  40.225  0.00  0.00    -0.391 OA
ATOM     10  S1  SGN d5702      62.232  37.645  41.989  0.00  0.00     0.156 S 
ATOM     11  C4  SGN d5702      63.391  40.650  38.222  0.00  0.00     0.095 C 
ATOM     12  S2  SGN d5702      64.589  40.893  33.605  0.00  0.00     0.251 S 
ATOM     13  C2  SGN d5702      62.554  38.897  39.672  0.00  0.00     0.081 C 
ATOM     14  O3S SGN d5702      62.815  38.714  42.778  0.00  0.00    -0.296 OA
ATOM     15  O1S SGN d5702      63.195  36.658  41.541  0.00  0.00    -0.296 OA
ATOM     16  O6  SGN d5702      64.056  40.882  35.252  0.00  0.00    -0.254 OA
ATOM     17  N   SGN d5702      61.545  38.440  40.569  0.00  0.00    -0.210 NA
ATOM     18  C3  SGN d5702      62.203  40.263  39.142  0.00  0.00     0.083 C 
ATOM     19  C6  SGN d5702      64.574  39.892  36.127  0.00  0.00     0.067 C 
ATOM     20  O6S SGN d5702      65.792  41.673  33.603  0.00  0.00    -0.572 OA
ATOM     21  H   SGN d5702      60.841  36.250  42.104  0.00  0.00     0.231 HD
ATOM     22  H   SGN d5702      61.513  37.049  37.179  0.00  0.00     0.212 HD
ATOM     23  H   SGN d5702      62.515  39.717  36.531  0.00  0.00     0.090 H 
ATOM     24  H   SGN d5702      62.925  36.950  38.948  0.00  0.00     0.131 H 
ATOM     25  H   SGN d5702      61.899  42.042  39.897  0.00  0.00     0.210 HD
ATOM     26  H   SGN d5702      64.277  40.664  38.821  0.00  0.00     0.091 H 
ATOM     27  H   SGN d5702      63.496  38.976  40.175  0.00  0.00     0.076 H 
ATOM     28  H   SGN d5702      62.119  39.335  43.044  0.00  0.00     0.231 HD
ATOM     29  H   SGN d5702      62.741  35.976  41.022  0.00  0.00     0.231 HD
ATOM     30  H   SGN d5702      60.990  39.240  40.876  0.00  0.00     0.140 HD
ATOM     31  H   SGN d5702      61.270  40.283  38.620  0.00  0.00     0.089 H 
ATOM     32  H   SGN d5702      64.837  39.005  35.589  0.00  0.00     0.080 H 
ATOM     33  H   SGN d5702      65.467  40.202  36.628  0.00  0.00     0.080 H 
ATOM     34  C3  IDU d1623      61.402  45.274  37.611  0.00  0.00     0.069 C 
ATOM     35  O1S IDU d1623      65.563  46.297  36.379  0.00  0.00    -0.572 OA
ATOM     36  O2  IDU d1623      63.728  44.760  37.245  0.00  0.00    -0.244 OA
ATOM     37  S   IDU d1623      64.212  45.938  36.070  0.00  0.00     0.252 S 
ATOM     38  C4  IDU d1623      61.757  45.683  39.049  0.00  0.00    -0.005 C 
ATOM     39  C5  IDU d1623      61.750  44.441  39.955  0.00  0.00     0.127 C 
ATOM     40  O3S IDU d1623      64.044  45.433  34.759  0.00  0.00    -0.572 OA
ATOM     41  O5  IDU d1623      62.699  43.454  39.417  0.00  0.00    -0.343 OA
ATOM     42  O61 IDU d1623      61.406  45.709  41.916  0.00  0.00    -0.646 OA
ATOM     43  C2  IDU d1623      62.429  44.226  37.154  0.00  0.00     0.132 C 
ATOM     44  C6  IDU d1623      62.134  44.871  41.345  0.00  0.00     0.203 C 
ATOM     45  O62 IDU d1623      63.150  44.372  41.852  0.00  0.00    -0.646 OA
ATOM     46  O2S IDU d1623      63.374  47.124  36.152  0.00  0.00    -0.572 OA
ATOM     47  C1  IDU d1623      62.370  42.991  38.067  0.00  0.00     0.161 C 
ATOM     48  O3  IDU d1623      60.113  44.727  37.585  0.00  0.00    -0.393 OA
ATOM     49  H   IDU d1623      61.423  46.122  36.958  0.00  0.00     0.087 H 
ATOM     50  H   IDU d1623      61.038  46.389  39.406  0.00  0.00     0.041 H 
ATOM     51  H   IDU d1623      62.731  46.125  39.061  0.00  0.00     0.041 H 
ATOM     52  H   IDU d1623      60.781  43.989  39.990  0.00  0.00     0.100 H 
ATOM     53  H   IDU d1623      62.201  43.954  36.145  0.00  0.00     0.097 H 
ATOM     54  H   IDU d1623      61.394  42.552  38.067  0.00  0.00     0.133 H 
ATOM     55  H   IDU d1623      60.077  43.956  38.173  0.00  0.00     0.210 HD
ENDROOT
TORSDOF 16
ENDMDL
MODEL 4
REMARK VINA RESULT:      -5.7      3.299      5.238
REMARK  0 active torsions:
REMARK  status: ('A' for Active; 'I' for Inactive)
REMARK       I    between atoms: O2S_2  and  S1_19 
REMARK       I    between atoms: C3_3  and  O3_35 
REMARK       I    between atoms: O2_5  and  C2_22 
REMARK       I    between atoms: O2_5  and  S_7 
REMARK       I    between atoms: O1_6  and  C1_12 
REMARK       I    between atoms: O4_8  and  C1_32 
REMARK       I    between atoms: O4_8  and  C4_20 
REMARK       I    between atoms: C5_10  and  C6_33 
REMARK       I    between atoms: C5_14  and  C6_23 
REMARK       I    between atoms: O3_17  and  C3_31 
REMARK       I    between atoms: S1_19  and  N_30 
REMARK       I    between atoms: S1_19  and  O1S_28 
REMARK       I    between atoms: S1_19  and  O3S_25 
REMARK       I    between atoms: S2_21  and  O6_29 
REMARK       I    between atoms: C2_24  and  N_30 
REMARK       I    between atoms: O6_29  and  C6_33 
ROOT
ATOM      1  O5S SGN d5702      66.769  34.756  36.838  0.00  0.00    -0.572 OA
ATOM      2  O2S SGN d5702      59.598  38.544  43.467  0.00  0.00    -0.296 OA
ATOM      3  O1  SGN d5702      61.648  36.024  39.876  0.00  0.00    -0.369 OA
ATOM      4  O4  SGN d5702      64.119  39.253  37.646  0.00  0.00    -0.348 OA
ATOM      5  O5  SGN d5702      63.900  36.584  40.108  0.00  0.00    -0.350 OA
ATOM      6  C5  SGN d5702      64.135  37.184  38.857  0.00  0.00     0.091 C 
ATOM      7  O4S SGN d5702      66.183  35.815  34.843  0.00  0.00    -0.572 OA
ATOM      8  C1  SGN d5702      62.584  36.740  40.645  0.00  0.00     0.147 C 
ATOM      9  O3  SGN d5702      62.040  40.225  39.493  0.00  0.00    -0.391 OA
ATOM     10  S1  SGN d5702      60.915  38.746  42.959  0.00  0.00     0.156 S 
ATOM     11  C4  SGN d5702      63.843  38.695  38.960  0.00  0.00     0.095 C 
ATOM     12  S2  SGN d5702      66.655  36.023  36.174  0.00  0.00     0.251 S 
ATOM     13  C2  SGN d5702      62.258  38.220  40.732  0.00  0.00     0.081 C 
ATOM     14  O3S SGN d5702      61.341  40.131  43.025  0.00  0.00    -0.296 OA
ATOM     15  O1S SGN d5702      61.796  37.830  43.656  0.00  0.00    -0.296 OA
ATOM     16  O6  SGN d5702      65.568  37.020  37.079  0.00  0.00    -0.254 OA
ATOM     17  N   SGN d5702      60.931  38.338  41.241  0.00  0.00    -0.210 NA
ATOM     18  C3  SGN d5702      62.355  38.859  39.372  0.00  0.00     0.083 C 
ATOM     19  C6  SGN d5702      65.561  36.908  38.495  0.00  0.00     0.067 C 
ATOM     20  O6S SGN d5702      67.889  36.752  36.132  0.00  0.00    -0.572 OA
ATOM     21  H   SGN d5702      59.365  37.606  43.399  0.00  0.00     0.231 HD
ATOM     22  H   SGN d5702      61.899  35.087  39.852  0.00  0.00     0.212 HD
ATOM     23  H   SGN d5702      63.497  36.790  38.093  0.00  0.00     0.090 H 
ATOM     24  H   SGN d5702      62.537  36.333  41.634  0.00  0.00     0.131 H 
ATOM     25  H   SGN d5702      62.100  40.648  38.623  0.00  0.00     0.210 HD
ATOM     26  H   SGN d5702      64.441  39.201  39.689  0.00  0.00     0.091 H 
ATOM     27  H   SGN d5702      62.953  38.719  41.376  0.00  0.00     0.076 H 
ATOM     28  H   SGN d5702      60.710  40.686  42.541  0.00  0.00     0.231 HD
ATOM     29  H   SGN d5702      61.454  36.926  43.573  0.00  0.00     0.231 HD
ATOM     30  H   SGN d5702      60.444  39.071  40.724  0.00  0.00     0.140 HD
ATOM     31  H   SGN d5702      61.692  38.422  38.655  0.00  0.00     0.089 H 
ATOM     32  H   SGN d5702      65.850  35.924  38.802  0.00  0.00     0.080 H 
ATOM     33  H   SGN d5702      66.250  37.574  38.971  0.00  0.00     0.080 H 
ATOM     34  C3  IDU d1623      63.009  41.529  34.840  0.00  0.00     0.069 C 
ATOM     35  O1S IDU d1623      67.442  41.999  34.944  0.00  0.00    -0.572 OA
ATOM     36  O2  IDU d1623      65.189  41.187  35.808  0.00  0.00    -0.244 OA
ATOM     37  S   IDU d1623      66.255  41.366  34.454  0.00  0.00     0.252 S 
ATOM     38  C4  IDU d1623      62.882  42.813  35.675  0.00  0.00    -0.005 C 
ATOM     39  C5  IDU d1623      62.340  42.469  37.072  0.00  0.00     0.127 C 
ATOM     40  O3S IDU d1623      66.492  40.115  33.836  0.00  0.00    -0.572 OA
ATOM     41  O5  IDU d1623      63.242  41.493  37.704  0.00  0.00    -0.343 OA
ATOM     42  O61 IDU d1623      61.525  44.652  37.441  0.00  0.00    -0.646 OA
ATOM     43  C2  IDU d1623      63.942  40.570  35.595  0.00  0.00     0.132 C 
ATOM     44  C6  IDU d1623      62.260  43.741  37.872  0.00  0.00     0.203 C 
ATOM     45  O62 IDU d1623      62.925  43.818  38.916  0.00  0.00    -0.646 OA
ATOM     46  O2S IDU d1623      65.654  42.209  33.431  0.00  0.00    -0.572 OA
ATOM     47  C1  IDU d1623      63.352  40.229  36.973  0.00  0.00     0.161 C 
ATOM     48  O3  IDU d1623      61.745  40.947  34.683  0.00  0.00    -0.393 OA
ATOM     49  H   IDU d1623      63.406  41.745  33.870  0.00  0.00     0.087 H 
ATOM     50  H   IDU d1623      62.210  43.489  35.189  0.00  0.00     0.041 H 
ATOM     51  H   IDU d1623      63.844  43.271  35.770  0.00  0.00     0.041 H 
ATOM     52  H   IDU d1623      61.364  42.035  37.016  0.00  0.00     0.100 H 
ATOM     53  H   IDU d1623      64.053  39.683  35.008  0.00  0.00     0.097 H 
ATOM     54  H   IDU d1623      62.384  39.781  36.882  0.00  0.00     0.133 H 
ATOM     55  H   IDU d1623      61.371  40.746  35.555  0.00  0.00     0.210 HD
ENDROOT
TORSDOF 16
ENDMDL
MODEL 5
REMARK VINA RESULT:      -5.6      2.603      6.406
REMARK  0 active torsions:
REMARK  status: ('A' for Active; 'I' for Inactive)
REMARK       I    between atoms: O2S_2  and  S1_19 
REMARK       I    between atoms: C3_3  and  O3_35 
REMARK       I    between atoms: O2_5  and  C2_22 
REMARK       I    between atoms: O2_5  and  S_7 
REMARK       I    between atoms: O1_6  and  C1_12 
REMARK       I    between atoms: O4_8  and  C1_32 
REMARK       I    between atoms: O4_8  and  C4_20 
REMARK       I    between atoms: C5_10  and  C6_33 
REMARK       I    between atoms: C5_14  and  C6_23 
REMARK       I    between atoms: O3_17  and  C3_31 
REMARK       I    between atoms: S1_19  and  N_30 
REMARK       I    between atoms: S1_19  and  O1S_28 
REMARK       I    between atoms: S1_19  and  O3S_25 
REMARK       I    between atoms: S2_21  and  O6_29 
REMARK       I    between atoms: C2_24  and  N_30 
REMARK       I    between atoms: O6_29  and  C6_33 
ROOT
ATOM      1  O5S SGN d5702      59.734  43.892  37.448  0.00  0.00    -0.572 OA
ATOM      2  O2S SGN d5702      64.173  34.828  40.253  0.00  0.00    -0.296 OA
ATOM      3  O1  SGN d5702      62.955  39.515  40.192  0.00  0.00    -0.369 OA
ATOM      4  O4  SGN d5702      63.548  40.662  35.737  0.00  0.00    -0.348 OA
ATOM      5  O5  SGN d5702      61.391  39.592  38.464  0.00  0.00    -0.350 OA
ATOM      6  C5  SGN d5702      62.034  40.486  37.588  0.00  0.00     0.091 C 
ATOM      7  O4S SGN d5702      61.546  45.053  36.546  0.00  0.00    -0.572 OA
ATOM      8  C1  SGN d5702      62.244  38.752  39.246  0.00  0.00     0.147 C 
ATOM      9  O3  SGN d5702      64.807  38.154  36.632  0.00  0.00    -0.391 OA
ATOM     10  S1  SGN d5702      63.475  35.490  39.200  0.00  0.00     0.156 S 
ATOM     11  C4  SGN d5702      62.929  39.686  36.619  0.00  0.00     0.095 C 
ATOM     12  S2  SGN d5702      60.708  43.908  36.393  0.00  0.00     0.251 S 
ATOM     13  C2  SGN d5702      63.156  37.972  38.318  0.00  0.00     0.081 C 
ATOM     14  O3S SGN d5702      63.775  34.942  37.891  0.00  0.00    -0.296 OA
ATOM     15  O1S SGN d5702      62.064  35.472  39.532  0.00  0.00    -0.296 OA
ATOM     16  O6  SGN d5702      61.623  42.441  36.471  0.00  0.00    -0.254 OA
ATOM     17  N   SGN d5702      64.012  37.172  39.131  0.00  0.00    -0.210 NA
ATOM     18  C3  SGN d5702      63.971  38.914  37.471  0.00  0.00     0.083 C 
ATOM     19  C6  SGN d5702      60.965  41.248  36.870  0.00  0.00     0.067 C 
ATOM     20  O6S SGN d5702      60.123  43.918  35.084  0.00  0.00    -0.572 OA
ATOM     21  H   SGN d5702      63.936  35.233  41.102  0.00  0.00     0.231 HD
ATOM     22  H   SGN d5702      62.330  39.992  40.758  0.00  0.00     0.212 HD
ATOM     23  H   SGN d5702      62.667  41.175  38.106  0.00  0.00     0.090 H 
ATOM     24  H   SGN d5702      61.660  38.049  39.804  0.00  0.00     0.131 H 
ATOM     25  H   SGN d5702      65.337  38.750  36.081  0.00  0.00     0.210 HD
ATOM     26  H   SGN d5702      62.395  38.970  36.029  0.00  0.00     0.091 H 
ATOM     27  H   SGN d5702      62.581  37.356  37.658  0.00  0.00     0.076 H 
ATOM     28  H   SGN d5702      64.731  34.984  37.735  0.00  0.00     0.231 HD
ATOM     29  H   SGN d5702      61.935  35.851  40.416  0.00  0.00     0.231 HD
ATOM     30  H   SGN d5702      64.955  37.200  38.744  0.00  0.00     0.140 HD
ATOM     31  H   SGN d5702      64.583  39.574  38.049  0.00  0.00     0.089 H 
ATOM     32  H   SGN d5702      60.145  41.464  37.523  0.00  0.00     0.080 H 
ATOM     33  H   SGN d5702      60.546  40.707  36.048  0.00  0.00     0.080 H 
ATOM     34  C3  IDU d1623      66.689  41.896  34.033  0.00  0.00     0.069 C 
ATOM     35  O1S IDU d1623      63.462  42.625  31.044  0.00  0.00    -0.572 OA
ATOM     36  O2  IDU d1623      64.434  41.696  33.205  0.00  0.00    -0.244 OA
ATOM     37  S   IDU d1623      64.285  43.050  32.136  0.00  0.00     0.252 S 
ATOM     38  C4  IDU d1623      67.033  40.590  33.300  0.00  0.00    -0.005 C 
ATOM     39  C5  IDU d1623      66.684  39.388  34.194  0.00  0.00     0.127 C 
ATOM     40  O3S IDU d1623      63.777  44.177  32.824  0.00  0.00    -0.572 OA
ATOM     41  O5  IDU d1623      65.257  39.458  34.546  0.00  0.00    -0.343 OA
ATOM     42  O61 IDU d1623      68.184  37.949  33.077  0.00  0.00    -0.646 OA
ATOM     43  C2  IDU d1623      65.192  41.857  34.381  0.00  0.00     0.132 C 
ATOM     44  C6  IDU d1623      67.001  38.129  33.435  0.00  0.00     0.203 C 
ATOM     45  O62 IDU d1623      66.076  37.335  33.204  0.00  0.00    -0.646 OA
ATOM     46  O2S IDU d1623      65.587  43.448  31.621  0.00  0.00    -0.572 OA
ATOM     47  C1  IDU d1623      64.890  40.661  35.296  0.00  0.00     0.161 C 
ATOM     48  O3  IDU d1623      67.452  41.990  35.204  0.00  0.00    -0.393 OA
ATOM     49  H   IDU d1623      66.904  42.744  33.419  0.00  0.00     0.087 H 
ATOM     50  H   IDU d1623      68.079  40.573  33.074  0.00  0.00     0.041 H 
ATOM     51  H   IDU d1623      66.470  40.533  32.393  0.00  0.00     0.041 H 
ATOM     52  H   IDU d1623      67.252  39.398  35.100  0.00  0.00     0.100 H 
ATOM     53  H   IDU d1623      64.941  42.774  34.871  0.00  0.00     0.097 H 
ATOM     54  H   IDU d1623      65.460  40.707  36.200  0.00  0.00     0.133 H 
ATOM     55  H   IDU d1623      67.267  41.227  35.772  0.00  0.00     0.210 HD
ENDROOT
TORSDOF 16
ENDMDL
MODEL 6
REMARK VINA RESULT:      -5.6      3.375      8.850
REMARK  0 active torsions:
REMARK  status: ('A' for Active; 'I' for Inactive)
REMARK       I    between atoms: O2S_2  and  S1_19 
REMARK       I    between atoms: C3_3  and  O3_35 
REMARK       I    between atoms: O2_5  and  C2_22 
REMARK       I    between atoms: O2_5  and  S_7 
REMARK       I    between atoms: O1_6  and  C1_12 
REMARK       I    between atoms: O4_8  and  C1_32 
REMARK       I    between atoms: O4_8  and  C4_20 
REMARK       I    between atoms: C5_10  and  C6_33 
REMARK       I    between atoms: C5_14  and  C6_23 
REMARK       I    between atoms: O3_17  and  C3_31 
REMARK       I    between atoms: S1_19  and  N_30 
REMARK       I    between atoms: S1_19  and  O1S_28 
REMARK       I    between atoms: S1_19  and  O3S_25 
REMARK       I    between atoms: S2_21  and  O6_29 
REMARK       I    between atoms: C2_24  and  N_30 
REMARK       I    between atoms: O6_29  and  C6_33 
ROOT
ATOM      1  O5S SGN d5702      61.119  47.048  40.077  0.00  0.00    -0.572 OA
ATOM      2  O2S SGN d5702      64.000  41.134  31.926  0.00  0.00    -0.296 OA
ATOM      3  O1  SGN d5702      61.248  43.509  35.125  0.00  0.00    -0.369 OA
ATOM      4  O4  SGN d5702      63.071  42.221  39.191  0.00  0.00    -0.348 OA
ATOM      5  O5  SGN d5702      62.845  44.588  36.439  0.00  0.00    -0.350 OA
ATOM      6  C5  SGN d5702      62.557  44.021  37.694  0.00  0.00     0.091 C 
ATOM      7  O4S SGN d5702      60.249  45.454  41.541  0.00  0.00    -0.572 OA
ATOM      8  C1  SGN d5702      62.624  43.750  35.301  0.00  0.00     0.147 C 
ATOM      9  O3  SGN d5702      63.782  40.583  36.848  0.00  0.00    -0.391 OA
ATOM     10  S1  SGN d5702      64.459  41.717  33.144  0.00  0.00     0.156 S 
ATOM     11  C4  SGN d5702      63.403  42.745  37.876  0.00  0.00     0.095 C 
ATOM     12  S2  SGN d5702      61.431  45.896  40.874  0.00  0.00     0.251 S 
ATOM     13  C2  SGN d5702      63.425  42.471  35.467  0.00  0.00     0.081 C 
ATOM     14  O3S SGN d5702      65.559  40.984  33.741  0.00  0.00    -0.296 OA
ATOM     15  O1S SGN d5702      64.762  43.108  32.874  0.00  0.00    -0.296 OA
ATOM     16  O6  SGN d5702      62.065  44.666  39.834  0.00  0.00    -0.254 OA
ATOM     17  N   SGN d5702      63.156  41.648  34.334  0.00  0.00    -0.210 NA
ATOM     18  C3  SGN d5702      63.024  41.763  36.734  0.00  0.00     0.083 C 
ATOM     19  C6  SGN d5702      62.866  45.057  38.729  0.00  0.00     0.067 C 
ATOM     20  O6S SGN d5702      62.461  46.139  41.842  0.00  0.00    -0.572 OA
ATOM     21  H   SGN d5702      63.268  41.661  31.571  0.00  0.00     0.231 HD
ATOM     22  H   SGN d5702      60.783  44.354  35.024  0.00  0.00     0.212 HD
ATOM     23  H   SGN d5702      61.530  43.734  37.782  0.00  0.00     0.090 H 
ATOM     24  H   SGN d5702      62.961  44.238  34.411  0.00  0.00     0.131 H 
ATOM     25  H   SGN d5702      63.534  40.117  37.661  0.00  0.00     0.210 HD
ATOM     26  H   SGN d5702      64.458  42.915  37.823  0.00  0.00     0.091 H 
ATOM     27  H   SGN d5702      64.471  42.690  35.533  0.00  0.00     0.076 H 
ATOM     28  H   SGN d5702      65.290  40.065  33.893  0.00  0.00     0.231 HD
ATOM     29  H   SGN d5702      63.988  43.537  32.477  0.00  0.00     0.231 HD
ATOM     30  H   SGN d5702      63.047  40.683  34.647  0.00  0.00     0.140 HD
ATOM     31  H   SGN d5702      61.987  41.502  36.760  0.00  0.00     0.089 H 
ATOM     32  H   SGN d5702      62.595  46.034  38.386  0.00  0.00     0.080 H 
ATOM     33  H   SGN d5702      63.908  45.112  38.966  0.00  0.00     0.080 H 
ATOM     34  C3  IDU d1623      62.188  39.215  41.307  0.00  0.00     0.069 C 
ATOM     35  O1S IDU d1623      64.725  41.728  43.977  0.00  0.00    -0.572 OA
ATOM     36  O2  IDU d1623      63.650  41.076  41.763  0.00  0.00    -0.244 OA
ATOM     37  S   IDU d1623      63.449  41.327  43.466  0.00  0.00     0.252 S 
ATOM     38  C4  IDU d1623      63.428  38.373  40.969  0.00  0.00    -0.005 C 
ATOM     39  C5  IDU d1623      63.812  38.588  39.496  0.00  0.00     0.127 C 
ATOM     40  O3S IDU d1623      62.418  42.264  43.714  0.00  0.00    -0.572 OA
ATOM     41  O5  IDU d1623      64.047  40.023  39.271  0.00  0.00    -0.343 OA
ATOM     42  O61 IDU d1623      64.977  36.540  39.360  0.00  0.00    -0.646 OA
ATOM     43  C2  IDU d1623      62.525  40.685  41.012  0.00  0.00     0.132 C 
ATOM     44  C6  IDU d1623      65.046  37.777  39.208  0.00  0.00     0.203 C 
ATOM     45  O62 IDU d1623      66.066  38.376  38.834  0.00  0.00    -0.646 OA
ATOM     46  O2S IDU d1623      63.039  40.096  44.125  0.00  0.00    -0.572 OA
ATOM     47  C1  IDU d1623      62.875  40.863  39.526  0.00  0.00     0.161 C 
ATOM     48  O3  IDU d1623      61.111  38.801  40.514  0.00  0.00    -0.393 OA
ATOM     49  H   IDU d1623      61.917  39.097  42.335  0.00  0.00     0.087 H 
ATOM     50  H   IDU d1623      63.211  37.338  41.133  0.00  0.00     0.041 H 
ATOM     51  H   IDU d1623      64.242  38.673  41.595  0.00  0.00     0.041 H 
ATOM     52  H   IDU d1623      63.030  38.270  38.838  0.00  0.00     0.100 H 
ATOM     53  H   IDU d1623      61.673  41.280  41.267  0.00  0.00     0.097 H 
ATOM     54  H   IDU d1623      62.068  40.553  38.896  0.00  0.00     0.133 H 
ATOM     55  H   IDU d1623      61.341  38.902  39.577  0.00  0.00     0.210 HD
ENDROOT
TORSDOF 16
ENDMDL
MODEL 7
REMARK VINA RESULT:      -5.6      2.838      7.984
REMARK  0 active torsions:
REMARK  status: ('A' for Active; 'I' for Inactive)
REMARK       I    between atoms: O2S_2  and  S1_19 
REMARK       I    between atoms: C3_3  and  O3_35 
REMARK       I    between atoms: O2_5  and  C2_22 
REMARK       I    between atoms: O2_5  and  S_7 
REMARK       I    between atoms: O1_6  and  C1_12 
REMARK       I    between atoms: O4_8  and  C1_32 
REMARK       I    between atoms: O4_8  and  C4_20 
REMARK       I    between atoms: C5_10  and  C6_33 
REMARK       I    between atoms: C5_14  and  C6_23 
REMARK       I    between atoms: O3_17  and  C3_31 
REMARK       I    between atoms: S1_19  and  N_30 
REMARK       I    between atoms: S1_19  and  O1S_28 
REMARK       I    between atoms: S1_19  and  O3S_25 
REMARK       I    between atoms: S2_21  and  O6_29 
REMARK       I    between atoms: C2_24  and  N_30 
REMARK       I    between atoms: O6_29  and  C6_33 
ROOT
ATOM      1  O5S SGN d5702      61.748  47.125  38.693  0.00  0.00    -0.572 OA
ATOM      2  O2S SGN d5702      65.610  42.391  30.184  0.00  0.00    -0.296 OA
ATOM      3  O1  SGN d5702      62.506  44.465  33.270  0.00  0.00    -0.369 OA
ATOM      4  O4  SGN d5702      63.481  42.341  37.276  0.00  0.00    -0.348 OA
ATOM      5  O5  SGN d5702      63.916  45.145  34.999  0.00  0.00    -0.350 OA
ATOM      6  C5  SGN d5702      63.370  44.408  36.067  0.00  0.00     0.091 C 
ATOM      7  O4S SGN d5702      60.521  45.404  39.682  0.00  0.00    -0.572 OA
ATOM      8  C1  SGN d5702      63.842  44.534  33.708  0.00  0.00     0.147 C 
ATOM      9  O3  SGN d5702      64.481  41.053  34.822  0.00  0.00    -0.391 OA
ATOM     10  S1  SGN d5702      65.885  42.714  31.546  0.00  0.00     0.156 S 
ATOM     11  C4  SGN d5702      64.079  43.041  36.150  0.00  0.00     0.095 C 
ATOM     12  S2  SGN d5702      61.831  45.831  39.308  0.00  0.00     0.251 S 
ATOM     13  C2  SGN d5702      64.509  43.172  33.767  0.00  0.00     0.081 C 
ATOM     14  O3S SGN d5702      66.807  41.786  32.171  0.00  0.00    -0.296 OA
ATOM     15  O1S SGN d5702      66.327  44.094  31.586  0.00  0.00    -0.296 OA
ATOM     16  O6  SGN d5702      62.552  44.734  38.180  0.00  0.00    -0.254 OA
ATOM     17  N   SGN d5702      64.389  42.579  32.476  0.00  0.00    -0.210 NA
ATOM     18  C3  SGN d5702      63.841  42.306  34.803  0.00  0.00     0.083 C 
ATOM     19  C6  SGN d5702      63.562  45.221  37.309  0.00  0.00     0.067 C 
ATOM     20  O6S SGN d5702      62.686  45.805  40.458  0.00  0.00    -0.572 OA
ATOM     21  H   SGN d5702      64.991  43.041  29.817  0.00  0.00     0.231 HD
ATOM     22  H   SGN d5702      62.127  45.357  33.249  0.00  0.00     0.212 HD
ATOM     23  H   SGN d5702      62.326  44.215  35.933  0.00  0.00     0.090 H 
ATOM     24  H   SGN d5702      64.366  45.127  32.988  0.00  0.00     0.131 H 
ATOM     25  H   SGN d5702      64.060  40.486  35.486  0.00  0.00     0.210 HD
ATOM     26  H   SGN d5702      65.136  43.111  36.301  0.00  0.00     0.091 H 
ATOM     27  H   SGN d5702      65.539  43.270  34.041  0.00  0.00     0.076 H 
ATOM     28  H   SGN d5702      66.451  40.886  32.109  0.00  0.00     0.231 HD
ATOM     29  H   SGN d5702      65.668  44.658  31.153  0.00  0.00     0.231 HD
ATOM     30  H   SGN d5702      64.158  41.592  32.587  0.00  0.00     0.140 HD
ATOM     31  H   SGN d5702      62.800  42.150  34.611  0.00  0.00     0.089 H 
ATOM     32  H   SGN d5702      63.426  46.263  37.109  0.00  0.00     0.080 H 
ATOM     33  H   SGN d5702      64.547  45.130  37.719  0.00  0.00     0.080 H 
ATOM     34  C3  IDU d1623      62.027  39.129  38.639  0.00  0.00     0.069 C 
ATOM     35  O1S IDU d1623      64.219  40.895  42.098  0.00  0.00    -0.572 OA
ATOM     36  O2  IDU d1623      63.512  40.732  39.658  0.00  0.00    -0.244 OA
ATOM     37  S   IDU d1623      63.029  40.715  41.322  0.00  0.00     0.252 S 
ATOM     38  C4  IDU d1623      63.245  38.235  38.361  0.00  0.00    -0.005 C 
ATOM     39  C5  IDU d1623      63.899  38.652  37.033  0.00  0.00     0.127 C 
ATOM     40  O3S IDU d1623      62.039  41.696  41.565  0.00  0.00    -0.572 OA
ATOM     41  O5  IDU d1623      64.271  40.074  37.114  0.00  0.00    -0.343 OA
ATOM     42  O61 IDU d1623      64.923  36.550  36.721  0.00  0.00    -0.646 OA
ATOM     43  C2  IDU d1623      62.514  40.586  38.675  0.00  0.00     0.132 C 
ATOM     44  C6  IDU d1623      65.105  37.781  36.808  0.00  0.00     0.203 C 
ATOM     45  O62 IDU d1623      66.215  38.329  36.720  0.00  0.00    -0.646 OA
ATOM     46  O2S IDU d1623      62.423  39.439  41.671  0.00  0.00    -0.572 OA
ATOM     47  C1  IDU d1623      63.134  40.973  37.323  0.00  0.00     0.161 C 
ATOM     48  O3  IDU d1623      61.082  38.963  37.620  0.00  0.00    -0.393 OA
ATOM     49  H   IDU d1623      61.570  38.869  39.571  0.00  0.00     0.087 H 
ATOM     50  H   IDU d1623      62.931  37.214  38.297  0.00  0.00     0.041 H 
ATOM     51  H   IDU d1623      63.953  38.343  39.155  0.00  0.00     0.041 H 
ATOM     52  H   IDU d1623      63.226  38.529  36.211  0.00  0.00     0.100 H 
ATOM     53  H   IDU d1623      61.674  41.213  38.892  0.00  0.00     0.097 H 
ATOM     54  H   IDU d1623      62.432  40.855  36.524  0.00  0.00     0.133 H 
ATOM     55  H   IDU d1623      61.482  39.196  36.767  0.00  0.00     0.210 HD
ENDROOT
TORSDOF 16
ENDMDL
MODEL 8
REMARK VINA RESULT:      -5.6      3.361      7.818
REMARK  0 active torsions:
REMARK  status: ('A' for Active; 'I' for Inactive)
REMARK       I    between atoms: O2S_2  and  S1_19 
REMARK       I    between atoms: C3_3  and  O3_35 
REMARK       I    between atoms: O2_5  and  C2_22 
REMARK       I    between atoms: O2_5  and  S_7 
REMARK       I    between atoms: O1_6  and  C1_12 
REMARK       I    between atoms: O4_8  and  C1_32 
REMARK       I    between atoms: O4_8  and  C4_20 
REMARK       I    between atoms: C5_10  and  C6_33 
REMARK       I    between atoms: C5_14  and  C6_23 
REMARK       I    between atoms: O3_17  and  C3_31 
REMARK       I    between atoms: S1_19  and  N_30 
REMARK       I    between atoms: S1_19  and  O1S_28 
REMARK       I    between atoms: S1_19  and  O3S_25 
REMARK       I    between atoms: S2_21  and  O6_29 
REMARK       I    between atoms: C2_24  and  N_30 
REMARK       I    between atoms: O6_29  and  C6_33 
ROOT
ATOM      1  O5S SGN d5702      61.264  44.016  42.047  0.00  0.00    -0.572 OA
ATOM      2  O2S SGN d5702      63.630  42.477  31.960  0.00  0.00    -0.296 OA
ATOM      3  O1  SGN d5702      61.085  43.026  36.043  0.00  0.00    -0.369 OA
ATOM      4  O4  SGN d5702      63.279  40.203  38.997  0.00  0.00    -0.348 OA
ATOM      5  O5  SGN d5702      62.753  43.519  37.597  0.00  0.00    -0.350 OA
ATOM      6  C5  SGN d5702      62.588  42.441  38.486  0.00  0.00     0.091 C 
ATOM      7  O4S SGN d5702      60.568  41.889  42.705  0.00  0.00    -0.572 OA
ATOM      8  C1  SGN d5702      62.463  43.252  36.222  0.00  0.00     0.147 C 
ATOM      9  O3  SGN d5702      63.841  39.809  36.133  0.00  0.00    -0.391 OA
ATOM     10  S1  SGN d5702      64.172  42.494  33.279  0.00  0.00     0.156 S 
ATOM     11  C4  SGN d5702      63.485  41.271  38.032  0.00  0.00     0.095 C 
ATOM     12  S2  SGN d5702      61.676  42.653  42.231  0.00  0.00     0.251 S 
ATOM     13  C2  SGN d5702      63.313  42.085  35.755  0.00  0.00     0.081 C 
ATOM     14  O3S SGN d5702      65.339  41.645  33.421  0.00  0.00    -0.296 OA
ATOM     15  O1S SGN d5702      64.409  43.879  33.635  0.00  0.00    -0.296 OA
ATOM     16  O6  SGN d5702      62.258  42.048  40.717  0.00  0.00    -0.254 OA
ATOM     17  N   SGN d5702      62.976  41.827  34.394  0.00  0.00    -0.210 NA
ATOM     18  C3  SGN d5702      63.041  40.868  36.600  0.00  0.00     0.083 C 
ATOM     19  C6  SGN d5702      62.952  42.934  39.852  0.00  0.00     0.067 C 
ATOM     20  O6S SGN d5702      62.775  42.513  43.141  0.00  0.00    -0.572 OA
ATOM     21  H   SGN d5702      62.855  43.059  31.921  0.00  0.00     0.231 HD
ATOM     22  H   SGN d5702      60.588  43.798  36.355  0.00  0.00     0.212 HD
ATOM     23  H   SGN d5702      61.581  42.080  38.502  0.00  0.00     0.090 H 
ATOM     24  H   SGN d5702      62.710  44.103  35.621  0.00  0.00     0.131 H 
ATOM     25  H   SGN d5702      63.675  39.019  36.670  0.00  0.00     0.210 HD
ATOM     26  H   SGN d5702      64.526  41.514  37.995  0.00  0.00     0.091 H 
ATOM     27  H   SGN d5702      64.354  42.319  35.847  0.00  0.00     0.076 H 
ATOM     28  H   SGN d5702      65.112  40.738  33.167  0.00  0.00     0.231 HD
ATOM     29  H   SGN d5702      63.592  44.388  33.517  0.00  0.00     0.231 HD
ATOM     30  H   SGN d5702      62.922  40.818  34.254  0.00  0.00     0.140 HD
ATOM     31  H   SGN d5702      62.018  40.557  36.571  0.00  0.00     0.089 H 
ATOM     32  H   SGN d5702      62.624  43.943  39.994  0.00  0.00     0.080 H 
ATOM     33  H   SGN d5702      64.008  42.946  40.025  0.00  0.00     0.080 H 
ATOM     34  C3  IDU d1623      62.666  36.524  39.615  0.00  0.00     0.069 C 
ATOM     35  O1S IDU d1623      65.341  37.766  42.959  0.00  0.00    -0.572 OA
ATOM     36  O2  IDU d1623      64.105  38.085  40.757  0.00  0.00    -0.244 OA
ATOM     37  S   IDU d1623      64.039  37.550  42.403  0.00  0.00     0.252 S 
ATOM     38  C4  IDU d1623      63.899  35.997  38.863  0.00  0.00    -0.005 C 
ATOM     39  C5  IDU d1623      64.152  36.860  37.617  0.00  0.00     0.127 C 
ATOM     40  O3S IDU d1623      63.005  38.214  43.104  0.00  0.00    -0.572 OA
ATOM     41  O5  IDU d1623      64.324  38.261  38.036  0.00  0.00    -0.343 OA
ATOM     42  O61 IDU d1623      65.362  35.159  36.518  0.00  0.00    -0.646 OA
ATOM     43  C2  IDU d1623      62.934  37.992  39.981  0.00  0.00     0.132 C 
ATOM     44  C6  IDU d1623      65.382  36.339  36.924  0.00  0.00     0.203 C 
ATOM     45  O62 IDU d1623      66.348  37.105  36.792  0.00  0.00    -0.646 OA
ATOM     46  O2S IDU d1623      63.723  36.131  42.473  0.00  0.00    -0.572 OA
ATOM     47  C1  IDU d1623      63.153  38.826  38.708  0.00  0.00     0.161 C 
ATOM     48  O3  IDU d1623      61.540  36.432  38.789  0.00  0.00    -0.393 OA
ATOM     49  H   IDU d1623      62.486  35.949  40.499  0.00  0.00     0.087 H 
ATOM     50  H   IDU d1623      63.728  34.983  38.566  0.00  0.00     0.041 H 
ATOM     51  H   IDU d1623      64.752  36.043  39.506  0.00  0.00     0.041 H 
ATOM     52  H   IDU d1623      63.327  36.815  36.936  0.00  0.00     0.100 H 
ATOM     53  H   IDU d1623      62.089  38.359  40.525  0.00  0.00     0.097 H 
ATOM     54  H   IDU d1623      62.305  38.774  38.057  0.00  0.00     0.133 H 
ATOM     55  H   IDU d1623      61.688  36.949  37.981  0.00  0.00     0.210 HD
ENDROOT
TORSDOF 16
ENDMDL
MODEL 9
REMARK VINA RESULT:      -5.5      3.317      5.871
REMARK  0 active torsions:
REMARK  status: ('A' for Active; 'I' for Inactive)
REMARK       I    between atoms: O2S_2  and  S1_19 
REMARK       I    between atoms: C3_3  and  O3_35 
REMARK       I    between atoms: O2_5  and  C2_22 
REMARK       I    between atoms: O2_5  and  S_7 
REMARK       I    between atoms: O1_6  and  C1_12 
REMARK       I    between atoms: O4_8  and  C1_32 
REMARK       I    between atoms: O4_8  and  C4_20 
REMARK       I    between atoms: C5_10  and  C6_33 
REMARK       I    between atoms: C5_14  and  C6_23 
REMARK       I    between atoms: O3_17  and  C3_31 
REMARK       I    between atoms: S1_19  and  N_30 
REMARK       I    between atoms: S1_19  and  O1S_28 
REMARK       I    between atoms: S1_19  and  O3S_25 
REMARK       I    between atoms: S2_21  and  O6_29 
REMARK       I    between atoms: C2_24  and  N_30 
REMARK       I    between atoms: O6_29  and  C6_33 
ROOT
ATOM      1  O5S SGN d5702      66.444  36.987  34.604  0.00  0.00    -0.572 OA
ATOM      2  O2S SGN d5702      60.119  38.048  42.886  0.00  0.00    -0.296 OA
ATOM      3  O1  SGN d5702      61.705  37.025  38.427  0.00  0.00    -0.369 OA
ATOM      4  O4  SGN d5702      64.043  40.861  37.273  0.00  0.00    -0.348 OA
ATOM      5  O5  SGN d5702      63.987  37.476  38.603  0.00  0.00    -0.350 OA
ATOM      6  C5  SGN d5702      64.113  38.494  37.639  0.00  0.00     0.091 C 
ATOM      7  O4S SGN d5702      65.693  38.697  33.207  0.00  0.00    -0.572 OA
ATOM      8  C1  SGN d5702      62.739  37.418  39.299  0.00  0.00     0.147 C 
ATOM      9  O3  SGN d5702      62.197  41.078  39.558  0.00  0.00    -0.391 OA
ATOM     10  S1  SGN d5702      61.384  38.429  42.348  0.00  0.00     0.156 S 
ATOM     11  C4  SGN d5702      63.884  39.860  38.315  0.00  0.00     0.095 C 
ATOM     12  S2  SGN d5702      66.305  38.408  34.463  0.00  0.00     0.251 S 
ATOM     13  C2  SGN d5702      62.474  38.761  39.952  0.00  0.00     0.081 C 
ATOM     14  O3S SGN d5702      61.860  39.697  42.867  0.00  0.00    -0.296 OA
ATOM     15  O1S SGN d5702      62.300  37.327  42.565  0.00  0.00    -0.296 OA
ATOM     16  O6  SGN d5702      65.350  38.999  35.780  0.00  0.00    -0.254 OA
ATOM     17  N   SGN d5702      61.210  38.677  40.608  0.00  0.00    -0.210 NA
ATOM     18  C3  SGN d5702      62.452  39.853  38.915  0.00  0.00     0.083 C 
ATOM     19  C6  SGN d5702      65.484  38.377  37.050  0.00  0.00     0.067 C 
ATOM     20  O6S SGN d5702      67.552  39.110  34.557  0.00  0.00    -0.572 OA
ATOM     21  H   SGN d5702      59.849  37.197  42.507  0.00  0.00     0.231 HD
ATOM     22  H   SGN d5702      61.922  36.164  38.036  0.00  0.00     0.212 HD
ATOM     23  H   SGN d5702      63.388  38.402  36.857  0.00  0.00     0.090 H 
ATOM     24  H   SGN d5702      62.780  36.677  40.070  0.00  0.00     0.131 H 
ATOM     25  H   SGN d5702      62.181  41.791  38.901  0.00  0.00     0.210 HD
ATOM     26  H   SGN d5702      64.570  40.069  39.109  0.00  0.00     0.091 H 
ATOM     27  H   SGN d5702      63.246  38.995  40.655  0.00  0.00     0.076 H 
ATOM     28  H   SGN d5702      61.202  40.386  42.689  0.00  0.00     0.231 HD
ATOM     29  H   SGN d5702      61.921  36.514  42.196  0.00  0.00     0.231 HD
ATOM     30  H   SGN d5702      60.698  39.545  40.449  0.00  0.00     0.140 HD
ATOM     31  H   SGN d5702      61.705  39.704  38.164  0.00  0.00     0.089 H 
ATOM     32  H   SGN d5702      65.770  37.351  36.945  0.00  0.00     0.080 H 
ATOM     33  H   SGN d5702      66.240  38.828  37.658  0.00  0.00     0.080 H 
ATOM     34  C3  IDU d1623      62.728  43.998  35.623  0.00  0.00     0.069 C 
ATOM     35  O1S IDU d1623      67.162  44.426  35.414  0.00  0.00    -0.572 OA
ATOM     36  O2  IDU d1623      64.983  43.340  36.160  0.00  0.00    -0.244 OA
ATOM     37  S   IDU d1623      65.910  44.007  34.858  0.00  0.00     0.252 S 
ATOM     38  C4  IDU d1623      62.730  44.888  36.876  0.00  0.00    -0.005 C 
ATOM     39  C5  IDU d1623      62.323  44.054  38.102  0.00  0.00     0.127 C 
ATOM     40  O3S IDU d1623      66.042  43.070  33.806  0.00  0.00    -0.572 OA
ATOM     41  O5  IDU d1623      63.251  42.920  38.234  0.00  0.00    -0.343 OA
ATOM     42  O61 IDU d1623      61.623  45.946  39.325  0.00  0.00    -0.646 OA
ATOM     43  C2  IDU d1623      63.701  42.835  35.872  0.00  0.00     0.132 C 
ATOM     44  C6  IDU d1623      62.368  44.945  39.314  0.00  0.00     0.203 C 
ATOM     45  O62 IDU d1623      63.139  44.640  40.236  0.00  0.00    -0.646 OA
ATOM     46  O2S IDU d1623      65.237  45.162  34.283  0.00  0.00    -0.572 OA
ATOM     47  C1  IDU d1623      63.243  42.011  37.086  0.00  0.00     0.161 C 
ATOM     48  O3  IDU d1623      61.436  43.506  35.401  0.00  0.00    -0.393 OA
ATOM     49  H   IDU d1623      63.031  44.556  34.761  0.00  0.00     0.087 H 
ATOM     50  H   IDU d1623      62.035  45.691  36.745  0.00  0.00     0.041 H 
ATOM     51  H   IDU d1623      63.712  45.285  37.028  0.00  0.00     0.041 H 
ATOM     52  H   IDU d1623      61.332  43.664  37.997  0.00  0.00     0.100 H 
ATOM     53  H   IDU d1623      63.722  42.225  34.995  0.00  0.00     0.097 H 
ATOM     54  H   IDU d1623      62.257  41.621  36.944  0.00  0.00     0.133 H 
ATOM     55  H   IDU d1623      61.147  42.998  36.175  0.00  0.00     0.210 HD
ENDROOT
TORSDOF 16
ENDMDL
MODEL 10
REMARK VINA RESULT:      -5.4      3.565      7.018
REMARK  0 active torsions:
REMARK  status: ('A' for Active; 'I' for Inactive)
REMARK       I    between atoms: O2S_2  and  S1_19 
REMARK       I    between atoms: C3_3  and  O3_35 
REMARK       I    between atoms: O2_5  and  C2_22 
REMARK       I    between atoms: O2_5  and  S_7 
REMARK       I    between atoms: O1_6  and  C1_12 
REMARK       I    between atoms: O4_8  and  C1_32 
REMARK       I    between atoms: O4_8  and  C4_20 
REMARK       I    between atoms: C5_10  and  C6_33 
REMARK       I    between atoms: C5_14  and  C6_23 
REMARK       I    between atoms: O3_17  and  C3_31 
REMARK       I    between atoms: S1_19  and  N_30 
REMARK       I    between atoms: S1_19  and  O1S_28 
REMARK       I    between atoms: S1_19  and  O3S_25 
REMARK       I    between atoms: S2_21  and  O6_29 
REMARK       I    between atoms: C2_24  and  N_30 
REMARK       I    between atoms: O6_29  and  C6_33 
ROOT
ATOM      1  O5S SGN d5702      60.916  43.799  35.500  0.00  0.00    -0.572 OA
ATOM      2  O2S SGN d5702      62.125  34.458  40.082  0.00  0.00    -0.296 OA
ATOM      3  O1  SGN d5702      61.375  39.202  39.465  0.00  0.00    -0.369 OA
ATOM      4  O4  SGN d5702      64.816  40.413  36.601  0.00  0.00    -0.348 OA
ATOM      5  O5  SGN d5702      61.365  39.398  37.141  0.00  0.00    -0.350 OA
ATOM      6  C5  SGN d5702      62.451  40.275  36.962  0.00  0.00     0.091 C 
ATOM      7  O4S SGN d5702      62.894  44.883  36.094  0.00  0.00    -0.572 OA
ATOM      8  C1  SGN d5702      61.457  38.498  38.248  0.00  0.00     0.147 C 
ATOM      9  O3  SGN d5702      65.095  37.823  37.978  0.00  0.00    -0.391 OA
ATOM     10  S1  SGN d5702      62.324  35.178  38.867  0.00  0.00     0.156 S 
ATOM     11  C4  SGN d5702      63.743  39.451  36.796  0.00  0.00     0.095 C 
ATOM     12  S2  SGN d5702      62.344  43.787  35.364  0.00  0.00     0.251 S 
ATOM     13  C2  SGN d5702      62.737  37.691  38.125  0.00  0.00     0.081 C 
ATOM     14  O3S SGN d5702      63.408  34.643  38.065  0.00  0.00    -0.296 OA
ATOM     15  O1S SGN d5702      61.052  35.226  38.175  0.00  0.00    -0.296 OA
ATOM     16  O6  SGN d5702      62.938  42.273  35.957  0.00  0.00    -0.254 OA
ATOM     17  N   SGN d5702      62.811  36.830  39.259  0.00  0.00    -0.210 NA
ATOM     18  C3  SGN d5702      63.931  38.607  38.085  0.00  0.00     0.083 C 
ATOM     19  C6  SGN d5702      62.152  41.108  35.755  0.00  0.00     0.067 C 
ATOM     20  O6S SGN d5702      62.783  43.856  34.001  0.00  0.00    -0.572 OA
ATOM     21  H   SGN d5702      61.393  34.856  40.577  0.00  0.00     0.231 HD
ATOM     22  H   SGN d5702      60.543  39.699  39.494  0.00  0.00     0.212 HD
ATOM     23  H   SGN d5702      62.593  40.919  37.805  0.00  0.00     0.090 H 
ATOM     24  H   SGN d5702      60.633  37.814  38.239  0.00  0.00     0.131 H 
ATOM     25  H   SGN d5702      65.872  38.402  37.951  0.00  0.00     0.210 HD
ATOM     26  H   SGN d5702      63.722  38.777  35.965  0.00  0.00     0.091 H 
ATOM     27  H   SGN d5702      62.734  37.120  37.219  0.00  0.00     0.076 H 
ATOM     28  H   SGN d5702      64.225  34.638  38.587  0.00  0.00     0.231 HD
ATOM     29  H   SGN d5702      60.376  35.592  38.766  0.00  0.00     0.231 HD
ATOM     30  H   SGN d5702      63.773  36.818  39.601  0.00  0.00     0.140 HD
ATOM     31  H   SGN d5702      64.018  39.222  38.956  0.00  0.00     0.089 H 
ATOM     32  H   SGN d5702      61.111  41.352  35.706  0.00  0.00     0.080 H 
ATOM     33  H   SGN d5702      62.376  40.608  34.836  0.00  0.00     0.080 H 
ATOM     34  C3  IDU d1623      68.322  41.517  37.486  0.00  0.00     0.069 C 
ATOM     35  O1S IDU d1623      67.932  42.478  33.150  0.00  0.00    -0.572 OA
ATOM     36  O2  IDU d1623      67.191  41.453  35.359  0.00  0.00    -0.244 OA
ATOM     37  S   IDU d1623      67.828  42.836  34.532  0.00  0.00     0.252 S 
ATOM     38  C4  IDU d1623      69.035  40.211  37.104  0.00  0.00    -0.005 C 
ATOM     39  C5  IDU d1623      68.150  39.010  37.475  0.00  0.00     0.127 C 
ATOM     40  O3S IDU d1623      67.017  43.973  34.764  0.00  0.00    -0.572 OA
ATOM     41  O5  IDU d1623      66.854  39.147  36.790  0.00  0.00    -0.343 OA
ATOM     42  O61 IDU d1623      69.976  37.519  37.569  0.00  0.00    -0.646 OA
ATOM     43  C2  IDU d1623      66.975  41.549  36.747  0.00  0.00     0.132 C 
ATOM     44  C6  IDU d1623      68.862  37.752  37.057  0.00  0.00     0.203 C 
ATOM     45  O62 IDU d1623      68.307  37.013  36.229  0.00  0.00    -0.646 OA
ATOM     46  O2S IDU d1623      69.149  43.176  35.036  0.00  0.00    -0.572 OA
ATOM     47  C1  IDU d1623      66.109  40.350  37.166  0.00  0.00     0.161 C 
ATOM     48  O3  IDU d1623      68.111  41.546  38.871  0.00  0.00    -0.393 OA
ATOM     49  H   IDU d1623      68.913  42.366  37.215  0.00  0.00     0.087 H 
ATOM     50  H   IDU d1623      69.964  40.144  37.631  0.00  0.00     0.041 H 
ATOM     51  H   IDU d1623      69.220  40.203  36.050  0.00  0.00     0.041 H 
ATOM     52  H   IDU d1623      67.968  38.970  38.529  0.00  0.00     0.100 H 
ATOM     53  H   IDU d1623      66.483  42.467  36.991  0.00  0.00     0.097 H 
ATOM     54  H   IDU d1623      65.932  40.348  38.221  0.00  0.00     0.133 H 
ATOM     55  H   IDU d1623      67.575  40.781  39.132  0.00  0.00     0.210 HD
ENDROOT
TORSDOF 16
ENDMDL
MODEL 11
REMARK VINA RESULT:      -5.4      2.540      8.379
REMARK  0 active torsions:
REMARK  status: ('A' for Active; 'I' for Inactive)
REMARK       I    between atoms: O2S_2  and  S1_19 
REMARK       I    between atoms: C3_3  and  O3_35 
REMARK       I    between atoms: O2_5  and  C2_22 
REMARK       I    between atoms: O2_5  and  S_7 
REMARK       I    between atoms: O1_6  and  C1_12 
REMARK       I    between atoms: O4_8  and  C1_32 
REMARK       I    between atoms: O4_8  and  C4_20 
REMARK       I    between atoms: C5_10  and  C6_33 
REMARK       I    between atoms: C5_14  and  C6_23 
REMARK       I    between atoms: O3_17  and  C3_31 
REMARK       I    between atoms: S1_19  and  N_30 
REMARK       I    between atoms: S1_19  and  O1S_28 
REMARK       I    between atoms: S1_19  and  O3S_25 
REMARK       I    between atoms: S2_21  and  O6_29 
REMARK       I    between atoms: C2_24  and  N_30 
REMARK       I    between atoms: O6_29  and  C6_33 
ROOT
ATOM      1  O5S SGN d5702      66.170  46.554  31.695  0.00  0.00    -0.572 OA
ATOM      2  O2S SGN d5702      67.613  36.182  31.434  0.00  0.00    -0.296 OA
ATOM      3  O1  SGN d5702      66.022  40.621  30.334  0.00  0.00    -0.369 OA
ATOM      4  O4  SGN d5702      64.731  42.292  34.464  0.00  0.00    -0.348 OA
ATOM      5  O5  SGN d5702      67.216  41.955  31.830  0.00  0.00    -0.350 OA
ATOM      6  C5  SGN d5702      66.154  42.531  32.550  0.00  0.00     0.091 C 
ATOM      7  O4S SGN d5702      63.988  46.713  32.503  0.00  0.00    -0.572 OA
ATOM      8  C1  SGN d5702      67.002  40.626  31.345  0.00  0.00     0.147 C 
ATOM      9  O3  SGN d5702      65.109  39.377  34.280  0.00  0.00    -0.391 OA
ATOM     10  S1  SGN d5702      67.787  37.348  32.236  0.00  0.00     0.156 S 
ATOM     11  C4  SGN d5702      65.819  41.634  33.759  0.00  0.00     0.095 C 
ATOM     12  S2  SGN d5702      65.314  46.289  32.816  0.00  0.00     0.251 S 
ATOM     13  C2  SGN d5702      66.643  39.725  32.512  0.00  0.00     0.081 C 
ATOM     14  O3S SGN d5702      67.795  37.059  33.658  0.00  0.00    -0.296 OA
ATOM     15  O1S SGN d5702      68.982  38.024  31.771  0.00  0.00    -0.296 OA
ATOM     16  O6  SGN d5702      65.369  44.593  33.159  0.00  0.00    -0.254 OA
ATOM     17  N   SGN d5702      66.406  38.420  31.989  0.00  0.00    -0.210 NA
ATOM     18  C3  SGN d5702      65.412  40.240  33.211  0.00  0.00     0.083 C 
ATOM     19  C6  SGN d5702      66.593  43.900  32.966  0.00  0.00     0.067 C 
ATOM     20  O6S SGN d5702      65.746  46.932  34.022  0.00  0.00    -0.572 OA
ATOM     21  H   SGN d5702      67.616  36.432  30.497  0.00  0.00     0.231 HD
ATOM     22  H   SGN d5702      66.298  41.210  29.614  0.00  0.00     0.212 HD
ATOM     23  H   SGN d5702      65.264  42.613  31.961  0.00  0.00     0.090 H 
ATOM     24  H   SGN d5702      67.898  40.247  30.898  0.00  0.00     0.131 H 
ATOM     25  H   SGN d5702      64.317  39.697  34.739  0.00  0.00     0.210 HD
ATOM     26  H   SGN d5702      66.638  41.494  34.432  0.00  0.00     0.091 H 
ATOM     27  H   SGN d5702      67.439  39.704  33.228  0.00  0.00     0.076 H 
ATOM     28  H   SGN d5702      66.971  36.609  33.900  0.00  0.00     0.231 HD
ATOM     29  H   SGN d5702      68.911  38.185  30.817  0.00  0.00     0.231 HD
ATOM     30  H   SGN d5702      65.591  38.021  32.457  0.00  0.00     0.140 HD
ATOM     31  H   SGN d5702      64.558  40.296  32.570  0.00  0.00     0.089 H 
ATOM     32  H   SGN d5702      67.179  44.363  32.200  0.00  0.00     0.080 H 
ATOM     33  H   SGN d5702      67.212  43.893  33.839  0.00  0.00     0.080 H 
ATOM     34  C3  IDU d1623      61.374  41.977  36.173  0.00  0.00     0.069 C 
ATOM     35  O1S IDU d1623      63.542  45.045  38.574  0.00  0.00    -0.572 OA
ATOM     36  O2  IDU d1623      63.328  43.247  36.784  0.00  0.00    -0.244 OA
ATOM     37  S   IDU d1623      62.661  44.673  37.508  0.00  0.00     0.252 S 
ATOM     38  C4  IDU d1623      61.785  40.917  37.207  0.00  0.00    -0.005 C 
ATOM     39  C5  IDU d1623      62.775  39.929  36.569  0.00  0.00     0.127 C 
ATOM     40  O3S IDU d1623      62.483  45.688  36.539  0.00  0.00    -0.572 OA
ATOM     41  O5  IDU d1623      63.935  40.680  36.063  0.00  0.00    -0.343 OA
ATOM     42  O61 IDU d1623      62.286  38.224  38.125  0.00  0.00    -0.646 OA
ATOM     43  C2  IDU d1623      62.651  42.679  35.688  0.00  0.00     0.132 C 
ATOM     44  C6  IDU d1623      63.182  38.928  37.616  0.00  0.00     0.203 C 
ATOM     45  O62 IDU d1623      64.383  38.852  37.917  0.00  0.00    -0.646 OA
ATOM     46  O2S IDU d1623      61.340  44.405  38.055  0.00  0.00    -0.572 OA
ATOM     47  C1  IDU d1623      63.600  41.664  35.032  0.00  0.00     0.161 C 
ATOM     48  O3  IDU d1623      60.730  41.354  35.097  0.00  0.00    -0.393 OA
ATOM     49  H   IDU d1623      60.701  42.688  36.605  0.00  0.00     0.087 H 
ATOM     50  H   IDU d1623      60.917  40.387  37.539  0.00  0.00     0.041 H 
ATOM     51  H   IDU d1623      62.252  41.398  38.041  0.00  0.00     0.041 H 
ATOM     52  H   IDU d1623      62.330  39.408  35.747  0.00  0.00     0.100 H 
ATOM     53  H   IDU d1623      62.370  43.434  34.985  0.00  0.00     0.097 H 
ATOM     54  H   IDU d1623      63.133  41.172  34.204  0.00  0.00     0.133 H 
ATOM     55  H   IDU d1623      61.328  40.705  34.694  0.00  0.00     0.210 HD
ENDROOT
TORSDOF 16
ENDMDL
MODEL 12
REMARK VINA RESULT:      -5.3      1.221      1.320
REMARK  0 active torsions:
REMARK  status: ('A' for Active; 'I' for Inactive)
REMARK       I    between atoms: O2S_2  and  S1_19 
REMARK       I    between atoms: C3_3  and  O3_35 
REMARK       I    between atoms: O2_5  and  C2_22 
REMARK       I    between atoms: O2_5  and  S_7 
REMARK       I    between atoms: O1_6  and  C1_12 
REMARK       I    between atoms: O4_8  and  C1_32 
REMARK       I    between atoms: O4_8  and  C4_20 
REMARK       I    between atoms: C5_10  and  C6_33 
REMARK       I    between atoms: C5_14  and  C6_23 
REMARK       I    between atoms: O3_17  and  C3_31 
REMARK       I    between atoms: S1_19  and  N_30 
REMARK       I    between atoms: S1_19  and  O1S_28 
REMARK       I    between atoms: S1_19  and  O3S_25 
REMARK       I    between atoms: S2_21  and  O6_29 
REMARK       I    between atoms: C2_24  and  N_30 
REMARK       I    between atoms: O6_29  and  C6_33 
ROOT
ATOM      1  O5S SGN d5702      66.186  37.120  37.124  0.00  0.00    -0.572 OA
ATOM      2  O2S SGN d5702      59.564  45.212  37.751  0.00  0.00    -0.296 OA
ATOM      3  O1  SGN d5702      61.281  40.728  37.130  0.00  0.00    -0.369 OA
ATOM      4  O4  SGN d5702      64.904  41.404  34.314  0.00  0.00    -0.348 OA
ATOM      5  O5  SGN d5702      63.538  40.989  37.659  0.00  0.00    -0.350 OA
ATOM      6  C5  SGN d5702      64.124  40.611  36.437  0.00  0.00     0.091 C 
ATOM      7  O4S SGN d5702      66.245  36.727  34.825  0.00  0.00    -0.572 OA
ATOM      8  C1  SGN d5702      62.263  41.633  37.576  0.00  0.00     0.147 C 
ATOM      9  O3  SGN d5702      62.957  43.607  34.512  0.00  0.00    -0.391 OA
ATOM     10  S1  SGN d5702      60.942  44.858  37.649  0.00  0.00     0.156 S 
ATOM     11  C4  SGN d5702      64.282  41.860  35.547  0.00  0.00     0.095 C 
ATOM     12  S2  SGN d5702      66.554  37.671  35.851  0.00  0.00     0.251 S 
ATOM     13  C2  SGN d5702      62.383  42.852  36.681  0.00  0.00     0.081 C 
ATOM     14  O3S SGN d5702      61.745  45.890  37.020  0.00  0.00    -0.296 OA
ATOM     15  O1S SGN d5702      61.397  44.490  38.975  0.00  0.00    -0.296 OA
ATOM     16  O6  SGN d5702      65.690  39.153  35.624  0.00  0.00    -0.254 OA
ATOM     17  N   SGN d5702      61.091  43.449  36.595  0.00  0.00    -0.210 NA
ATOM     18  C3  SGN d5702      62.866  42.452  35.312  0.00  0.00     0.083 C 
ATOM     19  C6  SGN d5702      65.440  39.974  36.756  0.00  0.00     0.067 C 
ATOM     20  O6S SGN d5702      67.941  38.025  35.768  0.00  0.00    -0.572 OA
ATOM     21  H   SGN d5702      59.076  44.491  38.176  0.00  0.00     0.231 HD
ATOM     22  H   SGN d5702      61.244  39.969  37.733  0.00  0.00     0.212 HD
ATOM     23  H   SGN d5702      63.519  39.913  35.897  0.00  0.00     0.090 H 
ATOM     24  H   SGN d5702      61.952  41.963  38.545  0.00  0.00     0.131 H 
ATOM     25  H   SGN d5702      63.268  43.362  33.627  0.00  0.00     0.210 HD
ATOM     26  H   SGN d5702      64.888  42.627  35.982  0.00  0.00     0.091 H 
ATOM     27  H   SGN d5702      63.091  43.546  37.086  0.00  0.00     0.076 H 
ATOM     28  H   SGN d5702      61.387  46.087  36.141  0.00  0.00     0.231 HD
ATOM     29  H   SGN d5702      60.819  43.800  39.335  0.00  0.00     0.231 HD
ATOM     30  H   SGN d5702      60.926  43.740  35.631  0.00  0.00     0.140 HD
ATOM     31  H   SGN d5702      62.217  41.755  34.825  0.00  0.00     0.089 H 
ATOM     32  H   SGN d5702      65.375  39.387  37.648  0.00  0.00     0.080 H 
ATOM     33  H   SGN d5702      66.217  40.687  36.935  0.00  0.00     0.080 H 
ATOM     34  C3  IDU d1623      64.950  41.485  30.534  0.00  0.00     0.069 C 
ATOM     35  O1S IDU d1623      69.255  41.297  31.679  0.00  0.00    -0.572 OA
ATOM     36  O2  IDU d1623      66.761  41.545  32.123  0.00  0.00    -0.244 OA
ATOM     37  S   IDU d1623      68.020  40.668  31.319  0.00  0.00     0.252 S 
ATOM     38  C4  IDU d1623      65.088  43.008  30.378  0.00  0.00    -0.005 C 
ATOM     39  C5  IDU d1623      64.267  43.715  31.468  0.00  0.00     0.127 C 
ATOM     40  O3S IDU d1623      67.964  39.294  31.654  0.00  0.00    -0.572 OA
ATOM     41  O5  IDU d1623      64.733  43.256  32.787  0.00  0.00    -0.343 OA
ATOM     42  O61 IDU d1623      64.092  45.716  30.229  0.00  0.00    -0.646 OA
ATOM     43  C2  IDU d1623      65.432  41.114  31.945  0.00  0.00     0.132 C 
ATOM     44  C6  IDU d1623      64.450  45.200  31.307  0.00  0.00     0.203 C 
ATOM     45  O62 IDU d1623      64.946  45.835  32.251  0.00  0.00    -0.646 OA
ATOM     46  O2S IDU d1623      67.856  40.735  29.875  0.00  0.00    -0.572 OA
ATOM     47  C1  IDU d1623      64.570  41.818  33.005  0.00  0.00     0.161 C 
ATOM     48  O3  IDU d1623      63.608  41.118  30.373  0.00  0.00    -0.393 OA
ATOM     49  H   IDU d1623      65.532  40.974  29.797  0.00  0.00     0.087 H 
ATOM     50  H   IDU d1623      64.727  43.301  29.414  0.00  0.00     0.041 H 
ATOM     51  H   IDU d1623      66.117  43.283  30.474  0.00  0.00     0.041 H 
ATOM     52  H   IDU d1623      63.225  43.485  31.384  0.00  0.00     0.100 H 
ATOM     53  H   IDU d1623      65.361  40.052  32.052  0.00  0.00     0.097 H 
ATOM     54  H   IDU d1623      63.537  41.555  32.905  0.00  0.00     0.133 H 
ATOM     55  H   IDU d1623      63.066  41.575  31.035  0.00  0.00     0.210 HD
ENDROOT
TORSDOF 16
ENDMDL
MODEL 13
REMARK VINA RESULT:      -5.3      3.094      8.117
REMARK  0 active torsions:
REMARK  status: ('A' for Active; 'I' for Inactive)
REMARK       I    between atoms: O2S_2  and  S1_19 
REMARK       I    between atoms: C3_3  and  O3_35 
REMARK       I    between atoms: O2_5  and  C2_22 
REMARK       I    between atoms: O2_5  and  S_7 
REMARK       I    between atoms: O1_6  and  C1_12 
REMARK       I    between atoms: O4_8  and  C1_32 
REMARK       I    between atoms: O4_8  and  C4_20 
REMARK       I    between atoms: C5_10  and  C6_33 
REMARK       I    between atoms: C5_14  and  C6_23 
REMARK       I    between atoms: O3_17  and  C3_31 
REMARK       I    between atoms: S1_19  and  N_30 
REMARK       I    between atoms: S1_19  and  O1S_28 
REMARK       I    between atoms: S1_19  and  O3S_25 
REMARK       I    between atoms: S2_21  and  O6_29 
REMARK       I    between atoms: C2_24  and  N_30 
REMARK       I    between atoms: O6_29  and  C6_33 
ROOT
ATOM      1  O5S SGN d5702      63.209  46.811  39.754  0.00  0.00    -0.572 OA
ATOM      2  O2S SGN d5702      63.993  41.436  30.797  0.00  0.00    -0.296 OA
ATOM      3  O1  SGN d5702      62.130  43.976  34.476  0.00  0.00    -0.369 OA
ATOM      4  O4  SGN d5702      63.862  41.808  38.191  0.00  0.00    -0.348 OA
ATOM      5  O5  SGN d5702      64.028  44.483  35.732  0.00  0.00    -0.350 OA
ATOM      6  C5  SGN d5702      63.699  43.848  36.944  0.00  0.00     0.091 C 
ATOM      7  O4S SGN d5702      62.082  45.295  41.124  0.00  0.00    -0.572 OA
ATOM      8  C1  SGN d5702      63.532  43.865  34.542  0.00  0.00     0.147 C 
ATOM      9  O3  SGN d5702      63.990  40.350  35.635  0.00  0.00    -0.391 OA
ATOM     10  S1  SGN d5702      64.663  41.741  32.019  0.00  0.00     0.156 S 
ATOM     11  C4  SGN d5702      64.220  42.397  36.911  0.00  0.00     0.095 C 
ATOM     12  S2  SGN d5702      63.286  45.528  40.394  0.00  0.00     0.251 S 
ATOM     13  C2  SGN d5702      64.007  42.425  34.496  0.00  0.00     0.081 C 
ATOM     14  O3S SGN d5702      65.591  40.704  32.428  0.00  0.00    -0.296 OA
ATOM     15  O1S SGN d5702      65.276  43.046  31.866  0.00  0.00    -0.296 OA
ATOM     16  O6  SGN d5702      63.529  44.322  39.177  0.00  0.00    -0.254 OA
ATOM     17  N   SGN d5702      63.469  41.833  33.316  0.00  0.00    -0.210 NA
ATOM     18  C3  SGN d5702      63.536  41.679  35.717  0.00  0.00     0.083 C 
ATOM     19  C6  SGN d5702      64.322  44.648  38.045  0.00  0.00     0.067 C 
ATOM     20  O6S SGN d5702      64.409  45.404  41.278  0.00  0.00    -0.572 OA
ATOM     21  H   SGN d5702      63.388  42.159  30.572  0.00  0.00     0.231 HD
ATOM     22  H   SGN d5702      61.878  44.912  34.508  0.00  0.00     0.212 HD
ATOM     23  H   SGN d5702      62.641  43.801  37.101  0.00  0.00     0.090 H 
ATOM     24  H   SGN d5702      63.915  44.367  33.677  0.00  0.00     0.131 H 
ATOM     25  H   SGN d5702      63.693  39.858  36.416  0.00  0.00     0.210 HD
ATOM     26  H   SGN d5702      65.279  42.322  36.774  0.00  0.00     0.091 H 
ATOM     27  H   SGN d5702      65.077  42.384  34.483  0.00  0.00     0.076 H 
ATOM     28  H   SGN d5702      65.118  39.861  32.510  0.00  0.00     0.231 HD
ATOM     29  H   SGN d5702      64.603  43.689  31.592  0.00  0.00     0.231 HD
ATOM     30  H   SGN d5702      63.150  40.889  33.538  0.00  0.00     0.140 HD
ATOM     31  H   SGN d5702      62.471  41.666  35.816  0.00  0.00     0.089 H 
ATOM     32  H   SGN d5702      64.273  45.695  37.833  0.00  0.00     0.080 H 
ATOM     33  H   SGN d5702      65.360  44.428  38.185  0.00  0.00     0.080 H 
ATOM     34  C3  IDU d1623      62.424  38.855  40.063  0.00  0.00     0.069 C 
ATOM     35  O1S IDU d1623      65.675  40.358  42.719  0.00  0.00    -0.572 OA
ATOM     36  O2  IDU d1623      64.323  40.252  40.565  0.00  0.00    -0.244 OA
ATOM     37  S   IDU d1623      64.308  40.331  42.295  0.00  0.00     0.252 S 
ATOM     38  C4  IDU d1623      63.396  37.794  39.521  0.00  0.00    -0.005 C 
ATOM     39  C5  IDU d1623      63.718  38.093  38.048  0.00  0.00     0.127 C 
ATOM     40  O3S IDU d1623      63.555  41.445  42.737  0.00  0.00    -0.572 OA
ATOM     41  O5  IDU d1623      64.279  39.450  37.950  0.00  0.00    -0.343 OA
ATOM     42  O61 IDU d1623      64.338  35.863  37.591  0.00  0.00    -0.646 OA
ATOM     43  C2  IDU d1623      63.088  40.230  39.890  0.00  0.00     0.132 C 
ATOM     44  C6  IDU d1623      64.695  37.058  37.560  0.00  0.00     0.203 C 
ATOM     45  O62 IDU d1623      65.801  37.444  37.152  0.00  0.00    -0.646 OA
ATOM     46  O2S IDU d1623      63.658  39.159  42.861  0.00  0.00    -0.572 OA
ATOM     47  C1  IDU d1623      63.366  40.502  38.403  0.00  0.00     0.161 C 
ATOM     48  O3  IDU d1623      61.226  38.804  39.339  0.00  0.00    -0.393 OA
ATOM     49  H   IDU d1623      62.205  38.677  41.095  0.00  0.00     0.087 H 
ATOM     50  H   IDU d1623      62.947  36.826  39.599  0.00  0.00     0.041 H 
ATOM     51  H   IDU d1623      64.300  37.816  40.093  0.00  0.00     0.041 H 
ATOM     52  H   IDU d1623      62.838  38.050  37.440  0.00  0.00     0.100 H 
ATOM     53  H   IDU d1623      62.426  40.971  40.286  0.00  0.00     0.097 H 
ATOM     54  H   IDU d1623      62.466  40.469  37.825  0.00  0.00     0.133 H 
ATOM     55  H   IDU d1623      61.409  38.963  38.400  0.00  0.00     0.210 HD
ENDROOT
TORSDOF 16
ENDMDL
MODEL 14
REMARK VINA RESULT:      -5.3      1.910      5.911
REMARK  0 active torsions:
REMARK  status: ('A' for Active; 'I' for Inactive)
REMARK       I    between atoms: O2S_2  and  S1_19 
REMARK       I    between atoms: C3_3  and  O3_35 
REMARK       I    between atoms: O2_5  and  C2_22 
REMARK       I    between atoms: O2_5  and  S_7 
REMARK       I    between atoms: O1_6  and  C1_12 
REMARK       I    between atoms: O4_8  and  C1_32 
REMARK       I    between atoms: O4_8  and  C4_20 
REMARK       I    between atoms: C5_10  and  C6_33 
REMARK       I    between atoms: C5_14  and  C6_23 
REMARK       I    between atoms: O3_17  and  C3_31 
REMARK       I    between atoms: S1_19  and  N_30 
REMARK       I    between atoms: S1_19  and  O1S_28 
REMARK       I    between atoms: S1_19  and  O3S_25 
REMARK       I    between atoms: S2_21  and  O6_29 
REMARK       I    between atoms: C2_24  and  N_30 
REMARK       I    between atoms: O6_29  and  C6_33 
ROOT
ATOM      1  O5S SGN d5702      67.534  41.734  31.072  0.00  0.00    -0.572 OA
ATOM      2  O2S SGN d5702      59.504  44.649  37.134  0.00  0.00    -0.296 OA
ATOM      3  O1  SGN d5702      63.904  44.473  35.121  0.00  0.00    -0.369 OA
ATOM      4  O4  SGN d5702      64.932  39.955  35.310  0.00  0.00    -0.348 OA
ATOM      5  O5  SGN d5702      63.633  42.825  33.493  0.00  0.00    -0.350 OA
ATOM      6  C5  SGN d5702      64.583  41.885  33.933  0.00  0.00     0.091 C 
ATOM      7  O4S SGN d5702      68.946  40.700  32.614  0.00  0.00    -0.572 OA
ATOM      8  C1  SGN d5702      62.988  43.595  34.512  0.00  0.00     0.147 C 
ATOM      9  O3  SGN d5702      62.720  40.878  37.023  0.00  0.00    -0.391 OA
ATOM     10  S1  SGN d5702      59.987  43.608  36.287  0.00  0.00     0.156 S 
ATOM     11  C4  SGN d5702      63.905  40.903  34.909  0.00  0.00     0.095 C 
ATOM     12  S2  SGN d5702      67.668  40.632  31.982  0.00  0.00     0.251 S 
ATOM     13  C2  SGN d5702      62.335  42.651  35.504  0.00  0.00     0.081 C 
ATOM     14  O3S SGN d5702      59.439  42.307  36.621  0.00  0.00    -0.296 OA
ATOM     15  O1S SGN d5702      59.743  44.012  34.917  0.00  0.00    -0.296 OA
ATOM     16  O6  SGN d5702      66.386  40.718  33.141  0.00  0.00    -0.254 OA
ATOM     17  N   SGN d5702      61.731  43.449  36.520  0.00  0.00    -0.210 NA
ATOM     18  C3  SGN d5702      63.363  41.730  36.106  0.00  0.00     0.083 C 
ATOM     19  C6  SGN d5702      65.117  41.195  32.717  0.00  0.00     0.067 C 
ATOM     20  O6S SGN d5702      67.519  39.355  31.348  0.00  0.00    -0.572 OA
ATOM     21  H   SGN d5702      59.900  45.492  36.868  0.00  0.00     0.231 HD
ATOM     22  H   SGN d5702      64.293  45.053  34.447  0.00  0.00     0.212 HD
ATOM     23  H   SGN d5702      65.394  42.345  34.459  0.00  0.00     0.090 H 
ATOM     24  H   SGN d5702      62.222  44.207  34.083  0.00  0.00     0.131 H 
ATOM     25  H   SGN d5702      63.372  40.278  37.418  0.00  0.00     0.210 HD
ATOM     26  H   SGN d5702      63.082  40.368  34.483  0.00  0.00     0.091 H 
ATOM     27  H   SGN d5702      61.600  42.045  35.017  0.00  0.00     0.076 H 
ATOM     28  H   SGN d5702      59.638  42.101  37.547  0.00  0.00     0.231 HD
ATOM     29  H   SGN d5702      60.133  44.886  34.763  0.00  0.00     0.231 HD
ATOM     30  H   SGN d5702      61.904  43.014  37.427  0.00  0.00     0.140 HD
ATOM     31  H   SGN d5702      64.144  42.250  36.619  0.00  0.00     0.089 H 
ATOM     32  H   SGN d5702      65.219  41.880  31.901  0.00  0.00     0.080 H 
ATOM     33  H   SGN d5702      64.475  40.415  32.363  0.00  0.00     0.080 H 
ATOM     34  C3  IDU d1623      66.607  38.049  38.113  0.00  0.00     0.069 C 
ATOM     35  O1S IDU d1623      66.635  35.202  34.681  0.00  0.00    -0.572 OA
ATOM     36  O2  IDU d1623      65.985  37.344  35.893  0.00  0.00    -0.244 OA
ATOM     37  S   IDU d1623      67.244  36.234  35.465  0.00  0.00     0.252 S 
ATOM     38  C4  IDU d1623      65.347  37.349  38.647  0.00  0.00    -0.005 C 
ATOM     39  C5  IDU d1623      64.146  38.303  38.550  0.00  0.00     0.127 C 
ATOM     40  O3S IDU d1623      68.297  36.905  34.800  0.00  0.00    -0.572 OA
ATOM     41  O5  IDU d1623      63.986  38.724  37.149  0.00  0.00    -0.343 OA
ATOM     42  O61 IDU d1623      62.936  37.166  40.227  0.00  0.00    -0.646 OA
ATOM     43  C2  IDU d1623      66.328  38.473  36.662  0.00  0.00     0.132 C 
ATOM     44  C6  IDU d1623      62.926  37.576  39.048  0.00  0.00     0.203 C 
ATOM     45  O62 IDU d1623      61.976  37.423  38.266  0.00  0.00    -0.646 OA
ATOM     46  O2S IDU d1623      67.836  35.639  36.654  0.00  0.00    -0.572 OA
ATOM     47  C1  IDU d1623      65.140  39.447  36.612  0.00  0.00     0.161 C 
ATOM     48  O3  IDU d1623      66.884  39.175  38.898  0.00  0.00    -0.393 OA
ATOM     49  H   IDU d1623      67.451  37.393  38.151  0.00  0.00     0.087 H 
ATOM     50  H   IDU d1623      65.500  37.071  39.669  0.00  0.00     0.041 H 
ATOM     51  H   IDU d1623      65.154  36.474  38.063  0.00  0.00     0.041 H 
ATOM     52  H   IDU d1623      64.294  39.179  39.147  0.00  0.00     0.100 H 
ATOM     53  H   IDU d1623      67.210  38.940  36.277  0.00  0.00     0.097 H 
ATOM     54  H   IDU d1623      65.326  40.319  37.204  0.00  0.00     0.133 H 
ATOM     55  H   IDU d1623      66.127  39.780  38.873  0.00  0.00     0.210 HD
ENDROOT
TORSDOF 16
ENDMDL
MODEL 15
REMARK VINA RESULT:      -5.3      4.946      8.964
REMARK  0 active torsions:
REMARK  status: ('A' for Active; 'I' for Inactive)
REMARK       I    between atoms: O2S_2  and  S1_19 
REMARK       I    between atoms: C3_3  and  O3_35 
REMARK       I    between atoms: O2_5  and  C2_22 
REMARK       I    between atoms: O2_5  and  S_7 
REMARK       I    between atoms: O1_6  and  C1_12 
REMARK       I    between atoms: O4_8  and  C1_32 
REMARK       I    between atoms: O4_8  and  C4_20 
REMARK       I    between atoms: C5_10  and  C6_33 
REMARK       I    between atoms: C5_14  and  C6_23 
REMARK       I    between atoms: O3_17  and  C3_31 
REMARK       I    between atoms: S1_19  and  N_30 
REMARK       I    between atoms: S1_19  and  O1S_28 
REMARK       I    between atoms: S1_19  and  O3S_25 
REMARK       I    between atoms: S2_21  and  O6_29 
REMARK       I    between atoms: C2_24  and  N_30 
REMARK       I    between atoms: O6_29  and  C6_33 
ROOT
ATOM      1  O5S SGN d5702      60.860  39.923  34.949  0.00  0.00    -0.572 OA
ATOM      2  O2S SGN d5702      64.368  36.278  44.121  0.00  0.00    -0.296 OA
ATOM      3  O1  SGN d5702      61.375  37.573  40.542  0.00  0.00    -0.369 OA
ATOM      4  O4  SGN d5702      62.876  41.823  39.447  0.00  0.00    -0.348 OA
ATOM      5  O5  SGN d5702      62.864  38.231  38.871  0.00  0.00    -0.350 OA
ATOM      6  C5  SGN d5702      62.480  39.575  38.713  0.00  0.00     0.091 C 
ATOM      7  O4S SGN d5702      59.879  41.943  35.581  0.00  0.00    -0.572 OA
ATOM      8  C1  SGN d5702      62.733  37.688  40.188  0.00  0.00     0.147 C 
ATOM      9  O3  SGN d5702      63.768  40.735  42.035  0.00  0.00    -0.391 OA
ATOM     10  S1  SGN d5702      64.731  37.039  42.971  0.00  0.00     0.156 S 
ATOM     11  C4  SGN d5702      63.310  40.453  39.672  0.00  0.00     0.095 C 
ATOM     12  S2  SGN d5702      61.109  41.224  35.504  0.00  0.00     0.251 S 
ATOM     13  C2  SGN d5702      63.519  38.550  41.159  0.00  0.00     0.081 C 
ATOM     14  O3S SGN d5702      65.782  38.002  43.239  0.00  0.00    -0.296 OA
ATOM     15  O1S SGN d5702      65.054  36.102  41.912  0.00  0.00    -0.296 OA
ATOM     16  O6  SGN d5702      61.823  41.025  37.068  0.00  0.00    -0.254 OA
ATOM     17  N   SGN d5702      63.340  38.000  42.462  0.00  0.00    -0.210 NA
ATOM     18  C3  SGN d5702      63.021  39.971  41.119  0.00  0.00     0.083 C 
ATOM     19  C6  SGN d5702      62.708  39.934  37.278  0.00  0.00     0.067 C 
ATOM     20  O6S SGN d5702      62.060  41.987  34.750  0.00  0.00    -0.572 OA
ATOM     21  H   SGN d5702      63.666  35.652  43.886  0.00  0.00     0.231 HD
ATOM     22  H   SGN d5702      60.919  37.015  39.893  0.00  0.00     0.212 HD
ATOM     23  H   SGN d5702      61.449  39.732  38.954  0.00  0.00     0.090 H 
ATOM     24  H   SGN d5702      63.139  36.698  40.222  0.00  0.00     0.131 H 
ATOM     25  H   SGN d5702      63.457  41.653  42.018  0.00  0.00     0.210 HD
ATOM     26  H   SGN d5702      64.366  40.389  39.511  0.00  0.00     0.091 H 
ATOM     27  H   SGN d5702      64.556  38.561  40.895  0.00  0.00     0.076 H 
ATOM     28  H   SGN d5702      65.502  38.594  43.955  0.00  0.00     0.231 HD
ATOM     29  H   SGN d5702      64.313  35.490  41.786  0.00  0.00     0.231 HD
ATOM     30  H   SGN d5702      63.207  38.763  43.126  0.00  0.00     0.140 HD
ATOM     31  H   SGN d5702      61.985  40.061  41.371  0.00  0.00     0.089 H 
ATOM     32  H   SGN d5702      62.464  39.114  36.635  0.00  0.00     0.080 H 
ATOM     33  H   SGN d5702      63.728  40.176  37.065  0.00  0.00     0.080 H 
ATOM     34  C3  IDU d1623      61.832  45.134  40.942  0.00  0.00     0.069 C 
ATOM     35  O1S IDU d1623      64.153  46.258  37.305  0.00  0.00    -0.572 OA
ATOM     36  O2  IDU d1623      63.253  44.646  39.058  0.00  0.00    -0.244 OA
ATOM     37  S   IDU d1623      62.920  45.948  37.965  0.00  0.00     0.252 S 
ATOM     38  C4  IDU d1623      63.094  45.369  41.786  0.00  0.00    -0.005 C 
ATOM     39  C5  IDU d1623      63.592  44.030  42.355  0.00  0.00     0.127 C 
ATOM     40  O3S IDU d1623      61.873  45.602  37.079  0.00  0.00    -0.572 OA
ATOM     41  O5  IDU d1623      63.844  43.104  41.239  0.00  0.00    -0.343 OA
ATOM     42  O61 IDU d1623      64.765  45.062  44.123  0.00  0.00    -0.646 OA
ATOM     43  C2  IDU d1623      62.190  44.137  39.829  0.00  0.00     0.132 C 
ATOM     44  C6  IDU d1623      64.845  44.291  43.145  0.00  0.00     0.203 C 
ATOM     45  O62 IDU d1623      65.891  43.727  42.788  0.00  0.00    -0.646 OA
ATOM     46  O2S IDU d1623      62.461  47.125  38.688  0.00  0.00    -0.572 OA
ATOM     47  C1  IDU d1623      62.655  42.805  40.438  0.00  0.00     0.161 C 
ATOM     48  O3  IDU d1623      60.820  44.605  41.753  0.00  0.00    -0.393 OA
ATOM     49  H   IDU d1623      61.482  46.052  40.519  0.00  0.00     0.087 H 
ATOM     50  H   IDU d1623      62.866  46.035  42.591  0.00  0.00     0.041 H 
ATOM     51  H   IDU d1623      63.857  45.798  41.171  0.00  0.00     0.041 H 
ATOM     52  H   IDU d1623      62.863  43.585  43.000  0.00  0.00     0.100 H 
ATOM     53  H   IDU d1623      61.321  43.987  39.224  0.00  0.00     0.097 H 
ATOM     54  H   IDU d1623      61.900  42.377  41.063  0.00  0.00     0.133 H 
ATOM     55  H   IDU d1623      61.122  43.771  42.145  0.00  0.00     0.210 HD
ENDROOT
TORSDOF 16
ENDMDL
MODEL 16
REMARK VINA RESULT:      -5.2      4.097      7.019
REMARK  0 active torsions:
REMARK  status: ('A' for Active; 'I' for Inactive)
REMARK       I    between atoms: O2S_2  and  S1_19 
REMARK       I    between atoms: C3_3  and  O3_35 
REMARK       I    between atoms: O2_5  and  C2_22 
REMARK       I    between atoms: O2_5  and  S_7 
REMARK       I    between atoms: O1_6  and  C1_12 
REMARK       I    between atoms: O4_8  and  C1_32 
REMARK       I    between atoms: O4_8  and  C4_20 
REMARK       I    between atoms: C5_10  and  C6_33 
REMARK       I    between atoms: C5_14  and  C6_23 
REMARK       I    between atoms: O3_17  and  C3_31 
REMARK       I    between atoms: S1_19  and  N_30 
REMARK       I    between atoms: S1_19  and  O1S_28 
REMARK       I    between atoms: S1_19  and  O3S_25 
REMARK       I    between atoms: S2_21  and  O6_29 
REMARK       I    between atoms: C2_24  and  N_30 
REMARK       I    between atoms: O6_29  and  C6_33 
ROOT
ATOM      1  O5S SGN d5702      62.965  43.905  31.003  0.00  0.00    -0.572 OA
ATOM      2  O2S SGN d5702      61.192  38.927  40.047  0.00  0.00    -0.296 OA
ATOM      3  O1  SGN d5702      60.913  42.177  36.468  0.00  0.00    -0.369 OA
ATOM      4  O4  SGN d5702      65.367  43.176  35.650  0.00  0.00    -0.348 OA
ATOM      5  O5  SGN d5702      62.362  41.279  34.876  0.00  0.00    -0.350 OA
ATOM      6  C5  SGN d5702      63.303  42.321  34.783  0.00  0.00     0.091 C 
ATOM      7  O4S SGN d5702      64.112  45.806  31.720  0.00  0.00    -0.572 OA
ATOM      8  C1  SGN d5702      61.753  41.091  36.157  0.00  0.00     0.147 C 
ATOM      9  O3  SGN d5702      64.765  41.822  38.196  0.00  0.00    -0.391 OA
ATOM     10  S1  SGN d5702      62.098  39.033  38.950  0.00  0.00     0.156 S 
ATOM     11  C4  SGN d5702      64.427  42.078  35.810  0.00  0.00     0.095 C 
ATOM     12  S2  SGN d5702      64.162  44.382  31.635  0.00  0.00     0.251 S 
ATOM     13  C2  SGN d5702      62.840  40.877  37.194  0.00  0.00     0.081 C 
ATOM     14  O3S SGN d5702      63.454  38.654  39.299  0.00  0.00    -0.296 OA
ATOM     15  O1S SGN d5702      61.542  38.270  37.850  0.00  0.00    -0.296 OA
ATOM     16  O6  SGN d5702      64.278  43.660  33.204  0.00  0.00    -0.254 OA
ATOM     17  N   SGN d5702      62.201  40.726  38.460  0.00  0.00    -0.210 NA
ATOM     18  C3  SGN d5702      63.779  42.055  37.220  0.00  0.00     0.083 C 
ATOM     19  C6  SGN d5702      63.814  42.330  33.376  0.00  0.00     0.067 C 
ATOM     20  O6S SGN d5702      65.358  43.989  30.950  0.00  0.00    -0.572 OA
ATOM     21  H   SGN d5702      60.304  39.190  39.759  0.00  0.00     0.231 HD
ATOM     22  H   SGN d5702      60.238  42.271  35.778  0.00  0.00     0.212 HD
ATOM     23  H   SGN d5702      62.873  43.275  35.005  0.00  0.00     0.090 H 
ATOM     24  H   SGN d5702      61.130  40.220  36.147  0.00  0.00     0.131 H 
ATOM     25  H   SGN d5702      65.377  42.574  38.223  0.00  0.00     0.210 HD
ATOM     26  H   SGN d5702      64.944  41.151  35.673  0.00  0.00     0.091 H 
ATOM     27  H   SGN d5702      63.417  40.007  36.959  0.00  0.00     0.076 H 
ATOM     28  H   SGN d5702      63.762  39.201  40.039  0.00  0.00     0.231 HD
ATOM     29  H   SGN d5702      60.639  38.572  37.671  0.00  0.00     0.231 HD
ATOM     30  H   SGN d5702      62.735  41.240  39.162  0.00  0.00     0.140 HD
ATOM     31  H   SGN d5702      63.288  42.977  37.449  0.00  0.00     0.089 H 
ATOM     32  H   SGN d5702      63.031  42.104  32.683  0.00  0.00     0.080 H 
ATOM     33  H   SGN d5702      64.574  41.596  33.203  0.00  0.00     0.080 H 
ATOM     34  C3  IDU d1623      67.519  45.811  37.299  0.00  0.00     0.069 C 
ATOM     35  O1S IDU d1623      69.923  44.471  33.791  0.00  0.00    -0.572 OA
ATOM     36  O2  IDU d1623      67.977  44.362  35.429  0.00  0.00    -0.244 OA
ATOM     37  S   IDU d1623      68.967  45.345  34.401  0.00  0.00     0.252 S 
ATOM     38  C4  IDU d1623      68.337  44.860  38.187  0.00  0.00    -0.005 C 
ATOM     39  C5  IDU d1623      67.436  43.722  38.694  0.00  0.00     0.127 C 
ATOM     40  O3S IDU d1623      68.171  46.054  33.471  0.00  0.00    -0.572 OA
ATOM     41  O5  IDU d1623      66.856  43.025  37.535  0.00  0.00    -0.343 OA
ATOM     42  O61 IDU d1623      68.824  43.266  40.546  0.00  0.00    -0.646 OA
ATOM     43  C2  IDU d1623      66.935  44.985  36.142  0.00  0.00     0.132 C 
ATOM     44  C6  IDU d1623      68.275  42.794  39.530  0.00  0.00     0.203 C 
ATOM     45  O62 IDU d1623      68.376  41.612  39.169  0.00  0.00    -0.646 OA
ATOM     46  O2S IDU d1623      69.672  46.354  35.176  0.00  0.00    -0.572 OA
ATOM     47  C1  IDU d1623      66.019  43.878  36.688  0.00  0.00     0.161 C 
ATOM     48  O3  IDU d1623      66.485  46.380  38.053  0.00  0.00    -0.393 OA
ATOM     49  H   IDU d1623      68.134  46.598  36.918  0.00  0.00     0.087 H 
ATOM     50  H   IDU d1623      68.730  45.402  39.022  0.00  0.00     0.041 H 
ATOM     51  H   IDU d1623      69.143  44.448  37.617  0.00  0.00     0.041 H 
ATOM     52  H   IDU d1623      66.634  44.098  39.294  0.00  0.00     0.100 H 
ATOM     53  H   IDU d1623      66.383  45.645  35.507  0.00  0.00     0.097 H 
ATOM     54  H   IDU d1623      65.219  44.285  37.269  0.00  0.00     0.133 H 
ATOM     55  H   IDU d1623      65.917  45.677  38.406  0.00  0.00     0.210 HD
ENDROOT
TORSDOF 16
ENDMDL
MODEL 17
REMARK VINA RESULT:      -5.2      4.073      7.662
REMARK  0 active torsions:
REMARK  status: ('A' for Active; 'I' for Inactive)
REMARK       I    between atoms: O2S_2  and  S1_19 
REMARK       I    between atoms: C3_3  and  O3_35 
REMARK       I    between atoms: O2_5  and  C2_22 
REMARK       I    between atoms: O2_5  and  S_7 
REMARK       I    between atoms: O1_6  and  C1_12 
REMARK       I    between atoms: O4_8  and  C1_32 
REMARK       I    between atoms: O4_8  and  C4_20 
REMARK       I    between atoms: C5_10  and  C6_33 
REMARK       I    between atoms: C5_14  and  C6_23 
REMARK       I    between atoms: O3_17  and  C3_31 
REMARK       I    between atoms: S1_19  and  N_30 
REMARK       I    between atoms: S1_19  and  O1S_28 
REMARK       I    between atoms: S1_19  and  O3S_25 
REMARK       I    between atoms: S2_21  and  O6_29 
REMARK       I    between atoms: C2_24  and  N_30 
REMARK       I    between atoms: O6_29  and  C6_33 
ROOT
ATOM      1  O5S SGN d5702      63.811  40.837  32.870  0.00  0.00    -0.572 OA
ATOM      2  O2S SGN d5702      60.711  37.310  42.234  0.00  0.00    -0.296 OA
ATOM      3  O1  SGN d5702      60.608  39.255  37.800  0.00  0.00    -0.369 OA
ATOM      4  O4  SGN d5702      64.110  42.293  37.939  0.00  0.00    -0.348 OA
ATOM      5  O5  SGN d5702      62.818  38.998  37.100  0.00  0.00    -0.350 OA
ATOM      6  C5  SGN d5702      63.174  40.345  36.903  0.00  0.00     0.091 C 
ATOM      7  O4S SGN d5702      63.630  43.147  33.146  0.00  0.00    -0.572 OA
ATOM      8  C1  SGN d5702      61.873  38.741  38.143  0.00  0.00     0.147 C 
ATOM      9  O3  SGN d5702      63.134  41.285  40.529  0.00  0.00    -0.391 OA
ATOM     10  S1  SGN d5702      61.853  37.687  41.467  0.00  0.00     0.156 S 
ATOM     11  C4  SGN d5702      63.752  40.911  38.216  0.00  0.00     0.095 C 
ATOM     12  S2  SGN d5702      64.309  41.973  33.593  0.00  0.00     0.251 S 
ATOM     13  C2  SGN d5702      62.404  39.313  39.444  0.00  0.00     0.081 C 
ATOM     14  O3S SGN d5702      62.958  38.146  42.287  0.00  0.00    -0.296 OA
ATOM     15  O1S SGN d5702      62.189  36.571  40.606  0.00  0.00    -0.296 OA
ATOM     16  O6  SGN d5702      64.052  41.703  35.283  0.00  0.00    -0.254 OA
ATOM     17  N   SGN d5702      61.425  39.068  40.451  0.00  0.00    -0.210 NA
ATOM     18  C3  SGN d5702      62.651  40.792  39.303  0.00  0.00     0.083 C 
ATOM     19  C6  SGN d5702      64.169  40.380  35.786  0.00  0.00     0.067 C 
ATOM     20  O6S SGN d5702      65.723  42.158  33.451  0.00  0.00    -0.572 OA
ATOM     21  H   SGN d5702      60.006  37.013  41.638  0.00  0.00     0.231 HD
ATOM     22  H   SGN d5702      60.314  38.860  36.965  0.00  0.00     0.212 HD
ATOM     23  H   SGN d5702      62.332  40.951  36.641  0.00  0.00     0.090 H 
ATOM     24  H   SGN d5702      61.745  37.686  38.274  0.00  0.00     0.131 H 
ATOM     25  H   SGN d5702      63.298  42.238  40.452  0.00  0.00     0.210 HD
ATOM     26  H   SGN d5702      64.616  40.388  38.568  0.00  0.00     0.091 H 
ATOM     27  H   SGN d5702      63.335  38.852  39.704  0.00  0.00     0.076 H 
ATOM     28  H   SGN d5702      62.666  38.891  42.835  0.00  0.00     0.231 HD
ATOM     29  H   SGN d5702      61.409  36.316  40.088  0.00  0.00     0.231 HD
ATOM     30  H   SGN d5702      61.344  39.897  41.040  0.00  0.00     0.140 HD
ATOM     31  H   SGN d5702      61.770  41.341  39.043  0.00  0.00     0.089 H 
ATOM     32  H   SGN d5702      63.924  39.661  35.032  0.00  0.00     0.080 H 
ATOM     33  H   SGN d5702      65.162  40.140  36.103  0.00  0.00     0.080 H 
ATOM     34  C3  IDU d1623      64.038  45.902  39.059  0.00  0.00     0.069 C 
ATOM     35  O1S IDU d1623      68.003  45.451  37.071  0.00  0.00    -0.572 OA
ATOM     36  O2  IDU d1623      65.800  44.616  38.035  0.00  0.00    -0.244 OA
ATOM     37  S   IDU d1623      66.610  45.780  37.039  0.00  0.00     0.252 S 
ATOM     38  C4  IDU d1623      64.727  45.694  40.417  0.00  0.00    -0.005 C 
ATOM     39  C5  IDU d1623      64.272  44.359  41.028  0.00  0.00     0.127 C 
ATOM     40  O3S IDU d1623      66.059  45.791  35.736  0.00  0.00    -0.572 OA
ATOM     41  O5  IDU d1623      64.584  43.274  40.084  0.00  0.00    -0.343 OA
ATOM     42  O61 IDU d1623      64.807  45.028  43.227  0.00  0.00    -0.646 OA
ATOM     43  C2  IDU d1623      64.401  44.709  38.162  0.00  0.00     0.132 C 
ATOM     44  C6  IDU d1623      64.989  44.172  42.337  0.00  0.00     0.203 C 
ATOM     45  O62 IDU d1623      65.721  43.179  42.467  0.00  0.00    -0.646 OA
ATOM     46  O2S IDU d1623      66.427  47.125  37.563  0.00  0.00    -0.572 OA
ATOM     47  C1  IDU d1623      63.904  43.399  38.793  0.00  0.00     0.161 C 
ATOM     48  O3  IDU d1623      62.651  45.961  39.243  0.00  0.00    -0.393 OA
ATOM     49  H   IDU d1623      64.359  46.817  38.606  0.00  0.00     0.087 H 
ATOM     50  H   IDU d1623      64.465  46.496  41.076  0.00  0.00     0.041 H 
ATOM     51  H   IDU d1623      65.788  45.678  40.277  0.00  0.00     0.041 H 
ATOM     52  H   IDU d1623      63.217  44.352  41.208  0.00  0.00     0.100 H 
ATOM     53  H   IDU d1623      63.943  44.859  37.207  0.00  0.00     0.097 H 
ATOM     54  H   IDU d1623      62.845  43.416  38.945  0.00  0.00     0.133 H 
ATOM     55  H   IDU d1623      62.344  45.138  39.653  0.00  0.00     0.210 HD
ENDROOT
TORSDOF 16
ENDMDL
MODEL 18
REMARK VINA RESULT:      -5.1      2.750      4.373
REMARK  0 active torsions:
REMARK  status: ('A' for Active; 'I' for Inactive)
REMARK       I    between atoms: O2S_2  and  S1_19 
REMARK       I    between atoms: C3_3  and  O3_35 
REMARK       I    between atoms: O2_5  and  C2_22 
REMARK       I    between atoms: O2_5  and  S_7 
REMARK       I    between atoms: O1_6  and  C1_12 
REMARK       I    between atoms: O4_8  and  C1_32 
REMARK       I    between atoms: O4_8  and  C4_20 
REMARK       I    between atoms: C5_10  and  C6_33 
REMARK       I    between atoms: C5_14  and  C6_23 
REMARK       I    between atoms: O3_17  and  C3_31 
REMARK       I    between atoms: S1_19  and  N_30 
REMARK       I    between atoms: S1_19  and  O1S_28 
REMARK       I    between atoms: S1_19  and  O3S_25 
REMARK       I    between atoms: S2_21  and  O6_29 
REMARK       I    between atoms: C2_24  and  N_30 
REMARK       I    between atoms: O6_29  and  C6_33 
ROOT
ATOM      1  O5S SGN d5702      62.129  36.827  39.538  0.00  0.00    -0.572 OA
ATOM      2  O2S SGN d5702      62.875  44.875  32.875  0.00  0.00    -0.296 OA
ATOM      3  O1  SGN d5702      61.422  40.735  34.923  0.00  0.00    -0.369 OA
ATOM      4  O4  SGN d5702      65.429  38.571  35.801  0.00  0.00    -0.348 OA
ATOM      5  O5  SGN d5702      62.680  40.691  36.887  0.00  0.00    -0.350 OA
ATOM      6  C5  SGN d5702      63.407  39.503  36.688  0.00  0.00     0.091 C 
ATOM      7  O4S SGN d5702      63.065  35.089  38.295  0.00  0.00    -0.572 OA
ATOM      8  C1  SGN d5702      62.355  41.436  35.710  0.00  0.00     0.147 C 
ATOM      9  O3  SGN d5702      65.531  40.815  33.896  0.00  0.00    -0.391 OA
ATOM     10  S1  SGN d5702      63.535  44.203  33.946  0.00  0.00     0.156 S 
ATOM     11  C4  SGN d5702      64.725  39.833  35.959  0.00  0.00     0.095 C 
ATOM     12  S2  SGN d5702      63.329  36.348  38.912  0.00  0.00     0.251 S 
ATOM     13  C2  SGN d5702      63.634  41.752  34.956  0.00  0.00     0.081 C 
ATOM     14  O3S SGN d5702      64.975  44.374  33.918  0.00  0.00    -0.296 OA
ATOM     15  O1S SGN d5702      62.918  44.642  35.182  0.00  0.00    -0.296 OA
ATOM     16  O6  SGN d5702      63.846  37.523  37.750  0.00  0.00    -0.254 OA
ATOM     17  N   SGN d5702      63.271  42.465  33.776  0.00  0.00    -0.210 NA
ATOM     18  C3  SGN d5702      64.358  40.481  34.597  0.00  0.00     0.083 C 
ATOM     19  C6  SGN d5702      63.643  38.898  38.037  0.00  0.00     0.067 C 
ATOM     20  O6S SGN d5702      64.426  36.211  39.823  0.00  0.00    -0.572 OA
ATOM     21  H   SGN d5702      61.919  44.728  32.942  0.00  0.00     0.231 HD
ATOM     22  H   SGN d5702      60.626  40.558  35.448  0.00  0.00     0.212 HD
ATOM     23  H   SGN d5702      62.876  38.801  36.079  0.00  0.00     0.090 H 
ATOM     24  H   SGN d5702      61.890  42.363  35.975  0.00  0.00     0.131 H 
ATOM     25  H   SGN d5702      66.007  40.005  33.658  0.00  0.00     0.210 HD
ATOM     26  H   SGN d5702      65.351  40.520  36.489  0.00  0.00     0.091 H 
ATOM     27  H   SGN d5702      64.291  42.340  35.563  0.00  0.00     0.076 H 
ATOM     28  H   SGN d5702      65.321  44.062  33.067  0.00  0.00     0.231 HD
ATOM     29  H   SGN d5702      61.960  44.501  35.134  0.00  0.00     0.231 HD
ATOM     30  H   SGN d5702      63.834  42.121  32.997  0.00  0.00     0.140 HD
ATOM     31  H   SGN d5702      63.775  39.824  33.986  0.00  0.00     0.089 H 
ATOM     32  H   SGN d5702      62.793  39.036  38.672  0.00  0.00     0.080 H 
ATOM     33  H   SGN d5702      64.467  39.343  38.556  0.00  0.00     0.080 H 
ATOM     34  C3  IDU d1623      67.391  36.265  33.537  0.00  0.00     0.069 C 
ATOM     35  O1S IDU d1623      69.296  35.756  37.537  0.00  0.00    -0.572 OA
ATOM     36  O2  IDU d1623      67.727  36.844  35.853  0.00  0.00    -0.244 OA
ATOM     37  S   IDU d1623      68.339  35.377  36.541  0.00  0.00     0.252 S 
ATOM     38  C4  IDU d1623      68.501  37.260  33.167  0.00  0.00    -0.005 C 
ATOM     39  C5  IDU d1623      67.905  38.670  33.026  0.00  0.00     0.127 C 
ATOM     40  O3S IDU d1623      67.282  34.582  37.044  0.00  0.00    -0.572 OA
ATOM     41  O5  IDU d1623      67.242  39.034  34.288  0.00  0.00    -0.343 OA
ATOM     42  O61 IDU d1623      69.664  39.423  31.646  0.00  0.00    -0.646 OA
ATOM     43  C2  IDU d1623      66.747  36.747  34.846  0.00  0.00     0.132 C 
ATOM     44  C6  IDU d1623      69.022  39.623  32.696  0.00  0.00     0.203 C 
ATOM     45  O62 IDU d1623      69.245  40.557  33.482  0.00  0.00    -0.646 OA
ATOM     46  O2S IDU d1623      69.002  34.568  35.530  0.00  0.00    -0.572 OA
ATOM     47  C1  IDU d1623      66.138  38.146  34.655  0.00  0.00     0.161 C 
ATOM     48  O3  IDU d1623      66.434  36.229  32.515  0.00  0.00    -0.393 OA
ATOM     49  H   IDU d1623      67.790  35.280  33.662  0.00  0.00     0.087 H 
ATOM     50  H   IDU d1623      68.947  36.968  32.239  0.00  0.00     0.041 H 
ATOM     51  H   IDU d1623      69.245  37.265  33.936  0.00  0.00     0.041 H 
ATOM     52  H   IDU d1623      67.176  38.709  32.243  0.00  0.00     0.100 H 
ATOM     53  H   IDU d1623      65.988  36.046  35.122  0.00  0.00     0.097 H 
ATOM     54  H   IDU d1623      65.402  38.148  33.879  0.00  0.00     0.133 H 
ATOM     55  H   IDU d1623      66.063  37.117  32.390  0.00  0.00     0.210 HD
ENDROOT
TORSDOF 16
ENDMDL
MODEL 19
REMARK VINA RESULT:      -5.1      2.929      5.423
REMARK  0 active torsions:
REMARK  status: ('A' for Active; 'I' for Inactive)
REMARK       I    between atoms: O2S_2  and  S1_19 
REMARK       I    between atoms: C3_3  and  O3_35 
REMARK       I    between atoms: O2_5  and  C2_22 
REMARK       I    between atoms: O2_5  and  S_7 
REMARK       I    between atoms: O1_6  and  C1_12 
REMARK       I    between atoms: O4_8  and  C1_32 
REMARK       I    between atoms: O4_8  and  C4_20 
REMARK       I    between atoms: C5_10  and  C6_33 
REMARK       I    between atoms: C5_14  and  C6_23 
REMARK       I    between atoms: O3_17  and  C3_31 
REMARK       I    between atoms: S1_19  and  N_30 
REMARK       I    between atoms: S1_19  and  O1S_28 
REMARK       I    between atoms: S1_19  and  O3S_25 
REMARK       I    between atoms: S2_21  and  O6_29 
REMARK       I    between atoms: C2_24  and  N_30 
REMARK       I    between atoms: O6_29  and  C6_33 
ROOT
ATOM      1  O5S SGN d5702      61.385  38.892  40.781  0.00  0.00    -0.572 OA
ATOM      2  O2S SGN d5702      63.222  44.212  31.947  0.00  0.00    -0.296 OA
ATOM      3  O1  SGN d5702      61.273  41.108  35.112  0.00  0.00    -0.369 OA
ATOM      4  O4  SGN d5702      65.001  39.036  36.934  0.00  0.00    -0.348 OA
ATOM      5  O5  SGN d5702      62.436  41.611  37.071  0.00  0.00    -0.350 OA
ATOM      6  C5  SGN d5702      63.047  40.369  37.321  0.00  0.00     0.091 C 
ATOM      7  O4S SGN d5702      62.194  36.772  40.239  0.00  0.00    -0.572 OA
ATOM      8  C1  SGN d5702      62.238  41.951  35.695  0.00  0.00     0.147 C 
ATOM      9  O3  SGN d5702      65.410  40.513  34.418  0.00  0.00    -0.391 OA
ATOM     10  S1  SGN d5702      63.765  43.879  33.223  0.00  0.00     0.156 S 
ATOM     11  C4  SGN d5702      64.421  40.333  36.623  0.00  0.00     0.095 C 
ATOM     12  S2  SGN d5702      62.557  38.138  40.433  0.00  0.00     0.251 S 
ATOM     13  C2  SGN d5702      63.573  41.897  34.976  0.00  0.00     0.081 C 
ATOM     14  O3S SGN d5702      65.214  43.913  33.247  0.00  0.00    -0.296 OA
ATOM     15  O1S SGN d5702      63.143  44.748  34.202  0.00  0.00    -0.296 OA
ATOM     16  O6  SGN d5702      63.239  38.819  38.995  0.00  0.00    -0.254 OA
ATOM     17  N   SGN d5702      63.335  42.209  33.605  0.00  0.00    -0.210 NA
ATOM     18  C3  SGN d5702      64.180  40.524  35.102  0.00  0.00     0.083 C 
ATOM     19  C6  SGN d5702      63.163  40.225  38.806  0.00  0.00     0.067 C 
ATOM     20  O6S SGN d5702      63.595  38.220  41.418  0.00  0.00    -0.572 OA
ATOM     21  H   SGN d5702      62.254  44.174  31.987  0.00  0.00     0.231 HD
ATOM     22  H   SGN d5702      60.442  41.179  35.606  0.00  0.00     0.212 HD
ATOM     23  H   SGN d5702      62.474  39.551  36.934  0.00  0.00     0.090 H 
ATOM     24  H   SGN d5702      61.858  42.948  35.612  0.00  0.00     0.131 H 
ATOM     25  H   SGN d5702      65.812  39.634  34.491  0.00  0.00     0.210 HD
ATOM     26  H   SGN d5702      65.090  41.103  36.947  0.00  0.00     0.091 H 
ATOM     27  H   SGN d5702      64.260  42.597  35.407  0.00  0.00     0.076 H 
ATOM     28  H   SGN d5702      65.563  43.312  32.571  0.00  0.00     0.231 HD
ATOM     29  H   SGN d5702      62.178  44.677  34.132  0.00  0.00     0.231 HD
ATOM     30  H   SGN d5702      63.893  41.584  33.023  0.00  0.00     0.140 HD
ATOM     31  H   SGN d5702      63.561  39.753  34.695  0.00  0.00     0.089 H 
ATOM     32  H   SGN d5702      62.305  40.632  39.299  0.00  0.00     0.080 H 
ATOM     33  H   SGN d5702      64.004  40.747  39.212  0.00  0.00     0.080 H 
ATOM     34  C3  IDU d1623      66.816  35.963  35.688  0.00  0.00     0.069 C 
ATOM     35  O1S IDU d1623      68.487  36.645  39.766  0.00  0.00    -0.572 OA
ATOM     36  O2  IDU d1623      67.109  37.242  37.710  0.00  0.00    -0.244 OA
ATOM     37  S   IDU d1623      67.540  36.038  38.879  0.00  0.00     0.252 S 
ATOM     38  C4  IDU d1623      68.036  36.688  35.098  0.00  0.00    -0.005 C 
ATOM     39  C5  IDU d1623      67.591  38.016  34.465  0.00  0.00     0.127 C 
ATOM     40  O3S IDU d1623      66.388  35.542  39.533  0.00  0.00    -0.572 OA
ATOM     41  O5  IDU d1623      66.915  38.828  35.490  0.00  0.00    -0.343 OA
ATOM     42  O61 IDU d1623      69.475  38.128  33.049  0.00  0.00    -0.646 OA
ATOM     43  C2  IDU d1623      66.168  36.899  36.720  0.00  0.00     0.132 C 
ATOM     44  C6  IDU d1623      68.811  38.714  33.928  0.00  0.00     0.203 C 
ATOM     45  O62 IDU d1623      69.094  39.833  34.384  0.00  0.00    -0.646 OA
ATOM     46  O2S IDU d1623      68.161  34.891  38.235  0.00  0.00    -0.572 OA
ATOM     47  C1  IDU d1623      65.712  38.202  36.043  0.00  0.00     0.161 C 
ATOM     48  O3  IDU d1623      65.906  35.671  34.665  0.00  0.00    -0.393 OA
ATOM     49  H   IDU d1623      67.109  35.045  36.154  0.00  0.00     0.087 H 
ATOM     50  H   IDU d1623      68.490  36.071  34.351  0.00  0.00     0.041 H 
ATOM     51  H   IDU d1623      68.742  36.885  35.877  0.00  0.00     0.041 H 
ATOM     52  H   IDU d1623      66.904  37.854  33.661  0.00  0.00     0.100 H 
ATOM     53  H   IDU d1623      65.332  36.392  37.152  0.00  0.00     0.097 H 
ATOM     54  H   IDU d1623      65.014  38.008  35.255  0.00  0.00     0.133 H 
ATOM     55  H   IDU d1623      65.631  36.494  34.233  0.00  0.00     0.210 HD
ENDROOT
TORSDOF 16
ENDMDL
MODEL 20
REMARK VINA RESULT:      -5.1      2.988      6.879
REMARK  0 active torsions:
REMARK  status: ('A' for Active; 'I' for Inactive)
REMARK       I    between atoms: O2S_2  and  S1_19 
REMARK       I    between atoms: C3_3  and  O3_35 
REMARK       I    between atoms: O2_5  and  C2_22 
REMARK       I    between atoms: O2_5  and  S_7 
REMARK       I    between atoms: O1_6  and  C1_12 
REMARK       I    between atoms: O4_8  and  C1_32 
REMARK       I    between atoms: O4_8  and  C4_20 
REMARK       I    between atoms: C5_10  and  C6_33 
REMARK       I    between atoms: C5_14  and  C6_23 
REMARK       I    between atoms: O3_17  and  C3_31 
REMARK       I    between atoms: S1_19  and  N_30 
REMARK       I    between atoms: S1_19  and  O1S_28 
REMARK       I    between atoms: S1_19  and  O3S_25 
REMARK       I    between atoms: S2_21  and  O6_29 
REMARK       I    between atoms: C2_24  and  N_30 
REMARK       I    between atoms: O6_29  and  C6_33 
ROOT
ATOM      1  O5S SGN d5702      68.718  38.696  36.777  0.00  0.00    -0.572 OA
ATOM      2  O2S SGN d5702      64.578  45.401  29.875  0.00  0.00    -0.296 OA
ATOM      3  O1  SGN d5702      67.464  43.518  33.277  0.00  0.00    -0.369 OA
ATOM      4  O4  SGN d5702      64.438  41.758  36.320  0.00  0.00    -0.348 OA
ATOM      5  O5  SGN d5702      66.649  41.340  33.462  0.00  0.00    -0.350 OA
ATOM      6  C5  SGN d5702      66.253  41.338  34.812  0.00  0.00     0.091 C 
ATOM      7  O4S SGN d5702      68.085  39.651  38.809  0.00  0.00    -0.572 OA
ATOM      8  C1  SGN d5702      66.534  42.589  32.773  0.00  0.00     0.147 C 
ATOM      9  O3  SGN d5702      63.375  43.696  34.372  0.00  0.00    -0.391 OA
ATOM     10  S1  SGN d5702      64.337  44.191  30.591  0.00  0.00     0.156 S 
ATOM     11  C4  SGN d5702      64.785  41.799  34.908  0.00  0.00     0.095 C 
ATOM     12  S2  SGN d5702      67.603  39.047  37.610  0.00  0.00     0.251 S 
ATOM     13  C2  SGN d5702      65.102  43.081  32.876  0.00  0.00     0.081 C 
ATOM     14  O3S SGN d5702      62.926  43.935  30.807  0.00  0.00    -0.296 OA
ATOM     15  O1S SGN d5702      65.025  43.125  29.891  0.00  0.00    -0.296 OA
ATOM     16  O6  SGN d5702      66.578  40.128  36.727  0.00  0.00    -0.254 OA
ATOM     17  N   SGN d5702      65.033  44.339  32.208  0.00  0.00    -0.210 NA
ATOM     18  C3  SGN d5702      64.703  43.233  34.320  0.00  0.00     0.083 C 
ATOM     19  C6  SGN d5702      66.444  39.945  35.326  0.00  0.00     0.067 C 
ATOM     20  O6S SGN d5702      66.771  37.927  37.942  0.00  0.00    -0.572 OA
ATOM     21  H   SGN d5702      65.533  45.523  29.760  0.00  0.00     0.231 HD
ATOM     22  H   SGN d5702      68.361  43.158  33.189  0.00  0.00     0.212 HD
ATOM     23  H   SGN d5702      66.836  42.012  35.405  0.00  0.00     0.090 H 
ATOM     24  H   SGN d5702      66.767  42.462  31.736  0.00  0.00     0.131 H 
ATOM     25  H   SGN d5702      63.106  43.798  35.298  0.00  0.00     0.210 HD
ATOM     26  H   SGN d5702      64.102  41.182  34.362  0.00  0.00     0.091 H 
ATOM     27  H   SGN d5702      64.432  42.379  32.425  0.00  0.00     0.076 H 
ATOM     28  H   SGN d5702      62.529  44.684  31.277  0.00  0.00     0.231 HD
ATOM     29  H   SGN d5702      65.959  43.361  29.781  0.00  0.00     0.231 HD
ATOM     30  H   SGN d5702      64.453  44.972  32.759  0.00  0.00     0.140 HD
ATOM     31  H   SGN d5702      65.322  43.921  34.856  0.00  0.00     0.089 H 
ATOM     32  H   SGN d5702      67.325  39.501  34.911  0.00  0.00     0.080 H 
ATOM     33  H   SGN d5702      65.639  39.290  35.065  0.00  0.00     0.080 H 
ATOM     34  C3  IDU d1623      62.806  43.480  39.263  0.00  0.00     0.069 C 
ATOM     35  O1S IDU d1623      61.882  39.160  39.870  0.00  0.00    -0.572 OA
ATOM     36  O2  IDU d1623      62.755  41.171  38.575  0.00  0.00    -0.244 OA
ATOM     37  S   IDU d1623      62.707  40.312  40.079  0.00  0.00     0.252 S 
ATOM     38  C4  IDU d1623      61.417  43.659  38.633  0.00  0.00    -0.005 C 
ATOM     39  C5  IDU d1623      61.566  43.977  37.136  0.00  0.00     0.127 C 
ATOM     40  O3S IDU d1623      64.016  40.000  40.518  0.00  0.00    -0.572 OA
ATOM     41  O5  IDU d1623      62.322  42.891  36.493  0.00  0.00    -0.343 OA
ATOM     42  O61 IDU d1623      59.445  45.003  37.004  0.00  0.00    -0.646 OA
ATOM     43  C2  IDU d1623      63.522  42.350  38.507  0.00  0.00     0.132 C 
ATOM     44  C6  IDU d1623      60.189  44.113  36.544  0.00  0.00     0.203 C 
ATOM     45  O62 IDU d1623      59.865  43.338  35.631  0.00  0.00    -0.646 OA
ATOM     46  O2S IDU d1623      62.118  41.134  41.125  0.00  0.00    -0.572 OA
ATOM     47  C1  IDU d1623      63.676  42.718  37.023  0.00  0.00     0.161 C 
ATOM     48  O3  IDU d1623      63.531  44.672  39.145  0.00  0.00    -0.393 OA
ATOM     49  H   IDU d1623      62.724  43.236  40.302  0.00  0.00     0.087 H 
ATOM     50  H   IDU d1623      60.906  44.464  39.119  0.00  0.00     0.041 H 
ATOM     51  H   IDU d1623      60.855  42.757  38.749  0.00  0.00     0.041 H 
ATOM     52  H   IDU d1623      62.099  44.892  36.983  0.00  0.00     0.100 H 
ATOM     53  H   IDU d1623      64.481  42.204  38.956  0.00  0.00     0.097 H 
ATOM     54  H   IDU d1623      64.228  43.627  36.902  0.00  0.00     0.133 H 
ATOM     55  H   IDU d1623      63.615  44.907  38.207  0.00  0.00     0.210 HD
ENDROOT
TORSDOF 16
ENDMDL
MODEL 21
REMARK VINA RESULT:      -5.1      2.440      8.267
REMARK  0 active torsions:
REMARK  status: ('A' for Active; 'I' for Inactive)
REMARK       I    between atoms: O2S_2  and  S1_19 
REMARK       I    between atoms: C3_3  and  O3_35 
REMARK       I    between atoms: O2_5  and  C2_22 
REMARK       I    between atoms: O2_5  and  S_7 
REMARK       I    between atoms: O1_6  and  C1_12 
REMARK       I    between atoms: O4_8  and  C1_32 
REMARK       I    between atoms: O4_8  and  C4_20 
REMARK       I    between atoms: C5_10  and  C6_33 
REMARK       I    between atoms: C5_14  and  C6_23 
REMARK       I    between atoms: O3_17  and  C3_31 
REMARK       I    between atoms: S1_19  and  N_30 
REMARK       I    between atoms: S1_19  and  O1S_28 
REMARK       I    between atoms: S1_19  and  O3S_25 
REMARK       I    between atoms: S2_21  and  O6_29 
REMARK       I    between atoms: C2_24  and  N_30 
REMARK       I    between atoms: O6_29  and  C6_33 
ROOT
ATOM      1  O5S SGN d5702      62.875  46.812  36.625  0.00  0.00    -0.572 OA
ATOM      2  O2S SGN d5702      66.591  39.364  30.265  0.00  0.00    -0.296 OA
ATOM      3  O1  SGN d5702      63.625  42.626  32.268  0.00  0.00    -0.369 OA
ATOM      4  O4  SGN d5702      63.928  41.638  36.789  0.00  0.00    -0.348 OA
ATOM      5  O5  SGN d5702      64.984  43.585  33.903  0.00  0.00    -0.350 OA
ATOM      6  C5  SGN d5702      64.245  43.265  35.057  0.00  0.00     0.091 C 
ATOM      7  O4S SGN d5702      61.315  45.625  37.890  0.00  0.00    -0.572 OA
ATOM      8  C1  SGN d5702      64.916  42.643  32.829  0.00  0.00     0.147 C 
ATOM      9  O3  SGN d5702      64.900  39.579  34.921  0.00  0.00    -0.391 OA
ATOM     10  S1  SGN d5702      66.806  40.026  31.510  0.00  0.00     0.156 S 
ATOM     11  C4  SGN d5702      64.717  41.899  35.595  0.00  0.00     0.095 C 
ATOM     12  S2  SGN d5702      62.701  45.750  37.575  0.00  0.00     0.251 S 
ATOM     13  C2  SGN d5702      65.349  41.280  33.339  0.00  0.00     0.081 C 
ATOM     14  O3S SGN d5702      67.515  39.205  32.472  0.00  0.00    -0.296 OA
ATOM     15  O1S SGN d5702      67.459  41.289  31.225  0.00  0.00    -0.296 OA
ATOM     16  O6  SGN d5702      63.325  44.290  36.886  0.00  0.00    -0.254 OA
ATOM     17  N   SGN d5702      65.239  40.362  32.253  0.00  0.00    -0.210 NA
ATOM     18  C3  SGN d5702      64.472  40.845  34.482  0.00  0.00     0.083 C 
ATOM     19  C6  SGN d5702      64.466  44.368  36.044  0.00  0.00     0.067 C 
ATOM     20  O6S SGN d5702      63.448  45.945  38.783  0.00  0.00    -0.572 OA
ATOM     21  H   SGN d5702      66.115  39.955  29.662  0.00  0.00     0.231 HD
ATOM     22  H   SGN d5702      63.396  43.516  31.959  0.00  0.00     0.212 HD
ATOM     23  H   SGN d5702      63.197  43.180  34.856  0.00  0.00     0.090 H 
ATOM     24  H   SGN d5702      65.583  42.930  32.043  0.00  0.00     0.131 H 
ATOM     25  H   SGN d5702      64.343  39.287  35.658  0.00  0.00     0.210 HD
ATOM     26  H   SGN d5702      65.756  41.871  35.849  0.00  0.00     0.091 H 
ATOM     27  H   SGN d5702      66.357  41.318  33.698  0.00  0.00     0.076 H 
ATOM     28  H   SGN d5702      67.026  38.380  32.615  0.00  0.00     0.231 HD
ATOM     29  H   SGN d5702      66.934  41.785  30.578  0.00  0.00     0.231 HD
ATOM     30  H   SGN d5702      64.845  39.487  32.601  0.00  0.00     0.140 HD
ATOM     31  H   SGN d5702      63.438  40.778  34.216  0.00  0.00     0.089 H 
ATOM     32  H   SGN d5702      64.514  45.318  35.552  0.00  0.00     0.080 H 
ATOM     33  H   SGN d5702      65.387  44.272  36.579  0.00  0.00     0.080 H 
ATOM     34  C3  IDU d1623      61.876  39.175  38.792  0.00  0.00     0.069 C 
ATOM     35  O1S IDU d1623      64.042  41.560  41.875  0.00  0.00    -0.572 OA
ATOM     36  O2  IDU d1623      63.513  40.794  39.506  0.00  0.00    -0.244 OA
ATOM     37  S   IDU d1623      62.904  41.321  41.040  0.00  0.00     0.252 S 
ATOM     38  C4  IDU d1623      62.954  38.087  38.918  0.00  0.00    -0.005 C 
ATOM     39  C5  IDU d1623      63.769  38.015  37.616  0.00  0.00     0.127 C 
ATOM     40  O3S IDU d1623      62.067  42.451  40.884  0.00  0.00    -0.572 OA
ATOM     41  O5  IDU d1623      64.356  39.338  37.350  0.00  0.00    -0.343 OA
ATOM     42  O61 IDU d1623      64.465  35.796  38.016  0.00  0.00    -0.646 OA
ATOM     43  C2  IDU d1623      62.585  40.504  38.487  0.00  0.00     0.132 C 
ATOM     44  C6  IDU d1623      64.834  36.965  37.786  0.00  0.00     0.203 C 
ATOM     45  O62 IDU d1623      66.021  37.314  37.686  0.00  0.00    -0.646 OA
ATOM     46  O2S IDU d1623      62.076  40.290  41.648  0.00  0.00    -0.572 OA
ATOM     47  C1  IDU d1623      63.364  40.399  37.166  0.00  0.00     0.161 C 
ATOM     48  O3  IDU d1623      61.000  38.847  37.750  0.00  0.00    -0.393 OA
ATOM     49  H   IDU d1623      61.311  39.256  39.697  0.00  0.00     0.087 H 
ATOM     50  H   IDU d1623      62.486  37.141  39.098  0.00  0.00     0.041 H 
ATOM     51  H   IDU d1623      63.605  38.325  39.732  0.00  0.00     0.041 H 
ATOM     52  H   IDU d1623      63.152  37.749  36.784  0.00  0.00     0.100 H 
ATOM     53  H   IDU d1623      61.842  41.270  38.421  0.00  0.00     0.097 H 
ATOM     54  H   IDU d1623      62.718  40.149  36.351  0.00  0.00     0.133 H 
ATOM     55  H   IDU d1623      61.498  38.770  36.921  0.00  0.00     0.210 HD
ENDROOT
TORSDOF 16
ENDMDL
MODEL 22
REMARK VINA RESULT:      -5.0      2.865      7.082
REMARK  0 active torsions:
REMARK  status: ('A' for Active; 'I' for Inactive)
REMARK       I    between atoms: O2S_2  and  S1_19 
REMARK       I    between atoms: C3_3  and  O3_35 
REMARK       I    between atoms: O2_5  and  C2_22 
REMARK       I    between atoms: O2_5  and  S_7 
REMARK       I    between atoms: O1_6  and  C1_12 
REMARK       I    between atoms: O4_8  and  C1_32 
REMARK       I    between atoms: O4_8  and  C4_20 
REMARK       I    between atoms: C5_10  and  C6_33 
REMARK       I    between atoms: C5_14  and  C6_23 
REMARK       I    between atoms: O3_17  and  C3_31 
REMARK       I    between atoms: S1_19  and  N_30 
REMARK       I    between atoms: S1_19  and  O1S_28 
REMARK       I    between atoms: S1_19  and  O3S_25 
REMARK       I    between atoms: S2_21  and  O6_29 
REMARK       I    between atoms: C2_24  and  N_30 
REMARK       I    between atoms: O6_29  and  C6_33 
ROOT
ATOM      1  O5S SGN d5702      63.799  39.104  41.085  0.00  0.00    -0.572 OA
ATOM      2  O2S SGN d5702      67.271  38.350  31.231  0.00  0.00    -0.296 OA
ATOM      3  O1  SGN d5702      67.213  38.766  36.055  0.00  0.00    -0.369 OA
ATOM      4  O4  SGN d5702      64.077  42.111  36.752  0.00  0.00    -0.348 OA
ATOM      5  O5  SGN d5702      64.937  38.584  36.536  0.00  0.00    -0.350 OA
ATOM      6  C5  SGN d5702      64.712  39.833  37.142  0.00  0.00     0.091 C 
ATOM      7  O4S SGN d5702      64.247  41.340  41.580  0.00  0.00    -0.572 OA
ATOM      8  C1  SGN d5702      65.933  38.551  35.509  0.00  0.00     0.147 C 
ATOM      9  O3  SGN d5702      65.152  41.858  34.021  0.00  0.00    -0.391 OA
ATOM     10  S1  SGN d5702      66.116  38.608  32.028  0.00  0.00     0.156 S 
ATOM     11  C4  SGN d5702      64.309  40.854  36.059  0.00  0.00     0.095 C 
ATOM     12  S2  SGN d5702      63.487  40.464  40.748  0.00  0.00     0.251 S 
ATOM     13  C2  SGN d5702      65.575  39.568  34.441  0.00  0.00     0.081 C 
ATOM     14  O3S SGN d5702      65.138  39.439  31.352  0.00  0.00    -0.296 OA
ATOM     15  O1S SGN d5702      65.594  37.329  32.466  0.00  0.00    -0.296 OA
ATOM     16  O6  SGN d5702      63.853  40.711  39.074  0.00  0.00    -0.254 OA
ATOM     17  N   SGN d5702      66.603  39.531  33.453  0.00  0.00    -0.210 NA
ATOM     18  C3  SGN d5702      65.477  40.946  35.041  0.00  0.00     0.083 C 
ATOM     19  C6  SGN d5702      63.638  39.641  38.166  0.00  0.00     0.067 C 
ATOM     20  O6S SGN d5702      62.093  40.773  40.879  0.00  0.00    -0.572 OA
ATOM     21  H   SGN d5702      67.889  37.793  31.729  0.00  0.00     0.231 HD
ATOM     22  H   SGN d5702      67.393  38.093  36.730  0.00  0.00     0.212 HD
ATOM     23  H   SGN d5702      65.590  40.213  37.623  0.00  0.00     0.090 H 
ATOM     24  H   SGN d5702      65.959  37.584  35.050  0.00  0.00     0.131 H 
ATOM     25  H   SGN d5702      65.085  42.750  34.395  0.00  0.00     0.210 HD
ATOM     26  H   SGN d5702      63.426  40.584  35.519  0.00  0.00     0.091 H 
ATOM     27  H   SGN d5702      64.626  39.335  34.005  0.00  0.00     0.076 H 
ATOM     28  H   SGN d5702      65.552  40.275  31.087  0.00  0.00     0.231 HD
ATOM     29  H   SGN d5702      66.296  36.827  32.907  0.00  0.00     0.231 HD
ATOM     30  H   SGN d5702      66.820  40.486  33.168  0.00  0.00     0.140 HD
ATOM     31  H   SGN d5702      66.386  41.268  35.504  0.00  0.00     0.089 H 
ATOM     32  H   SGN d5702      63.741  38.695  38.657  0.00  0.00     0.080 H 
ATOM     33  H   SGN d5702      62.654  39.642  37.744  0.00  0.00     0.080 H 
ATOM     34  C3  IDU d1623      64.626  45.850  36.864  0.00  0.00     0.069 C 
ATOM     35  O1S IDU d1623      60.484  45.303  38.422  0.00  0.00    -0.572 OA
ATOM     36  O2  IDU d1623      62.658  44.542  37.338  0.00  0.00    -0.244 OA
ATOM     37  S   IDU d1623      61.897  45.425  38.620  0.00  0.00     0.252 S 
ATOM     38  C4  IDU d1623      64.033  46.171  35.483  0.00  0.00    -0.005 C 
ATOM     39  C5  IDU d1623      64.393  45.051  34.493  0.00  0.00     0.127 C 
ATOM     40  O3S IDU d1623      62.336  44.953  39.880  0.00  0.00    -0.572 OA
ATOM     41  O5  IDU d1623      63.890  43.772  35.021  0.00  0.00    -0.343 OA
ATOM     42  O61 IDU d1623      64.116  46.442  32.608  0.00  0.00    -0.646 OA
ATOM     43  C2  IDU d1623      64.065  44.491  37.310  0.00  0.00     0.132 C 
ATOM     44  C6  IDU d1623      63.771  45.379  33.163  0.00  0.00     0.203 C 
ATOM     45  O62 IDU d1623      62.950  44.580  32.688  0.00  0.00    -0.646 OA
ATOM     46  O2S IDU d1623      62.264  46.831  38.568  0.00  0.00    -0.572 OA
ATOM     47  C1  IDU d1623      64.470  43.395  36.312  0.00  0.00     0.161 C 
ATOM     48  O3  IDU d1623      66.022  45.787  36.771  0.00  0.00    -0.393 OA
ATOM     49  H   IDU d1623      64.368  46.608  37.574  0.00  0.00     0.087 H 
ATOM     50  H   IDU d1623      64.433  47.099  35.131  0.00  0.00     0.041 H 
ATOM     51  H   IDU d1623      62.969  46.246  35.562  0.00  0.00     0.041 H 
ATOM     52  H   IDU d1623      65.452  44.967  34.367  0.00  0.00     0.100 H 
ATOM     53  H   IDU d1623      64.455  44.272  38.281  0.00  0.00     0.097 H 
ATOM     54  H   IDU d1623      65.533  43.324  36.220  0.00  0.00     0.133 H 
ATOM     55  H   IDU d1623      66.272  45.103  36.130  0.00  0.00     0.210 HD
ENDROOT
TORSDOF 16
ENDMDL
MODEL 23
REMARK VINA RESULT:      -5.0      2.797      6.470
REMARK  0 active torsions:
REMARK  status: ('A' for Active; 'I' for Inactive)
REMARK       I    between atoms: O2S_2  and  S1_19 
REMARK       I    between atoms: C3_3  and  O3_35 
REMARK       I    between atoms: O2_5  and  C2_22 
REMARK       I    between atoms: O2_5  and  S_7 
REMARK       I    between atoms: O1_6  and  C1_12 
REMARK       I    between atoms: O4_8  and  C1_32 
REMARK       I    between atoms: O4_8  and  C4_20 
REMARK       I    between atoms: C5_10  and  C6_33 
REMARK       I    between atoms: C5_14  and  C6_23 
REMARK       I    between atoms: O3_17  and  C3_31 
REMARK       I    between atoms: S1_19  and  N_30 
REMARK       I    between atoms: S1_19  and  O1S_28 
REMARK       I    between atoms: S1_19  and  O3S_25 
REMARK       I    between atoms: S2_21  and  O6_29 
REMARK       I    between atoms: C2_24  and  N_30 
REMARK       I    between atoms: O6_29  and  C6_33 
ROOT
ATOM      1  O5S SGN d5702      60.971  44.181  37.471  0.00  0.00    -0.572 OA
ATOM      2  O2S SGN d5702      64.082  35.087  41.635  0.00  0.00    -0.296 OA
ATOM      3  O1  SGN d5702      63.630  39.836  40.805  0.00  0.00    -0.369 OA
ATOM      4  O4  SGN d5702      64.092  40.114  36.199  0.00  0.00    -0.348 OA
ATOM      5  O5  SGN d5702      61.984  39.891  39.154  0.00  0.00    -0.350 OA
ATOM      6  C5  SGN d5702      62.700  40.505  38.110  0.00  0.00     0.091 C 
ATOM      7  O4S SGN d5702      62.880  44.853  36.309  0.00  0.00    -0.572 OA
ATOM      8  C1  SGN d5702      62.742  39.060  40.037  0.00  0.00     0.147 C 
ATOM      9  O3  SGN d5702      64.991  37.612  37.466  0.00  0.00    -0.391 OA
ATOM     10  S1  SGN d5702      63.429  35.674  40.511  0.00  0.00     0.156 S 
ATOM     11  C4  SGN d5702      63.386  39.416  37.261  0.00  0.00     0.095 C 
ATOM     12  S2  SGN d5702      61.860  43.857  36.391  0.00  0.00     0.251 S 
ATOM     13  C2  SGN d5702      63.452  37.994  39.223  0.00  0.00     0.081 C 
ATOM     14  O3S SGN d5702      63.547  34.874  39.307  0.00  0.00    -0.296 OA
ATOM     15  O1S SGN d5702      62.060  35.951  40.897  0.00  0.00    -0.296 OA
ATOM     16  O6  SGN d5702      62.532  42.290  36.687  0.00  0.00    -0.254 OA
ATOM     17  N   SGN d5702      64.222  37.206  40.128  0.00  0.00    -0.210 NA
ATOM     18  C3  SGN d5702      64.347  38.630  38.193  0.00  0.00     0.083 C 
ATOM     19  C6  SGN d5702      61.720  41.309  37.314  0.00  0.00     0.067 C 
ATOM     20  O6S SGN d5702      61.196  43.750  35.125  0.00  0.00    -0.572 OA
ATOM     21  H   SGN d5702      63.973  35.661  42.408  0.00  0.00     0.231 HD
ATOM     22  H   SGN d5702      63.129  40.500  41.304  0.00  0.00     0.212 HD
ATOM     23  H   SGN d5702      63.470  41.153  38.475  0.00  0.00     0.090 H 
ATOM     24  H   SGN d5702      62.093  38.568  40.731  0.00  0.00     0.131 H 
ATOM     25  H   SGN d5702      65.571  38.009  36.798  0.00  0.00     0.210 HD
ATOM     26  H   SGN d5702      62.705  38.714  36.827  0.00  0.00     0.091 H 
ATOM     27  H   SGN d5702      62.742  37.383  38.704  0.00  0.00     0.076 H 
ATOM     28  H   SGN d5702      64.484  34.727  39.107  0.00  0.00     0.231 HD
ATOM     29  H   SGN d5702      62.054  36.487  41.706  0.00  0.00     0.231 HD
ATOM     30  H   SGN d5702      65.129  37.009  39.705  0.00  0.00     0.140 HD
ATOM     31  H   SGN d5702      65.096  39.264  38.621  0.00  0.00     0.089 H 
ATOM     32  H   SGN d5702      60.992  41.765  37.952  0.00  0.00     0.080 H 
ATOM     33  H   SGN d5702      61.164  40.718  36.617  0.00  0.00     0.080 H 
ATOM     34  C3  IDU d1623      67.266  40.498  34.181  0.00  0.00     0.069 C 
ATOM     35  O1S IDU d1623      64.000  41.259  31.242  0.00  0.00    -0.572 OA
ATOM     36  O2  IDU d1623      64.957  40.549  33.491  0.00  0.00    -0.244 OA
ATOM     37  S   IDU d1623      64.954  41.713  32.209  0.00  0.00     0.252 S 
ATOM     38  C4  IDU d1623      67.345  39.049  33.674  0.00  0.00    -0.005 C 
ATOM     39  C5  IDU d1623      66.870  38.089  34.777  0.00  0.00     0.127 C 
ATOM     40  O3S IDU d1623      64.681  43.008  32.710  0.00  0.00    -0.572 OA
ATOM     41  O5  IDU d1623      65.500  38.457  35.168  0.00  0.00    -0.343 OA
ATOM     42  O61 IDU d1623      68.040  36.252  33.869  0.00  0.00    -0.646 OA
ATOM     43  C2  IDU d1623      65.810  40.772  34.589  0.00  0.00     0.132 C 
ATOM     44  C6  IDU d1623      66.929  36.686  34.237  0.00  0.00     0.203 C 
ATOM     45  O62 IDU d1623      65.875  36.034  34.186  0.00  0.00    -0.646 OA
ATOM     46  O2S IDU d1623      66.264  41.794  31.581  0.00  0.00    -0.572 OA
ATOM     47  C1  IDU d1623      65.383  39.812  35.711  0.00  0.00     0.161 C 
ATOM     48  O3  IDU d1623      68.112  40.654  35.285  0.00  0.00    -0.393 OA
ATOM     49  H   IDU d1623      67.572  41.184  33.419  0.00  0.00     0.087 H 
ATOM     50  H   IDU d1623      68.357  38.819  33.413  0.00  0.00     0.041 H 
ATOM     51  H   IDU d1623      66.719  38.940  32.814  0.00  0.00     0.041 H 
ATOM     52  H   IDU d1623      67.494  38.152  35.644  0.00  0.00     0.100 H 
ATOM     53  H   IDU d1623      65.742  41.786  34.922  0.00  0.00     0.097 H 
ATOM     54  H   IDU d1623      66.014  39.910  36.570  0.00  0.00     0.133 H 
ATOM     55  H   IDU d1623      67.847  40.037  35.986  0.00  0.00     0.210 HD
ENDROOT
TORSDOF 16
ENDMDL
MODEL 24
REMARK VINA RESULT:      -5.0      2.625      8.204
REMARK  0 active torsions:
REMARK  status: ('A' for Active; 'I' for Inactive)
REMARK       I    between atoms: O2S_2  and  S1_19 
REMARK       I    between atoms: C3_3  and  O3_35 
REMARK       I    between atoms: O2_5  and  C2_22 
REMARK       I    between atoms: O2_5  and  S_7 
REMARK       I    between atoms: O1_6  and  C1_12 
REMARK       I    between atoms: O4_8  and  C1_32 
REMARK       I    between atoms: O4_8  and  C4_20 
REMARK       I    between atoms: C5_10  and  C6_33 
REMARK       I    between atoms: C5_14  and  C6_23 
REMARK       I    between atoms: O3_17  and  C3_31 
REMARK       I    between atoms: S1_19  and  N_30 
REMARK       I    between atoms: S1_19  and  O1S_28 
REMARK       I    between atoms: S1_19  and  O3S_25 
REMARK       I    between atoms: S2_21  and  O6_29 
REMARK       I    between atoms: C2_24  and  N_30 
REMARK       I    between atoms: O6_29  and  C6_33 
ROOT
ATOM      1  O5S SGN d5702      65.021  44.416  30.628  0.00  0.00    -0.572 OA
ATOM      2  O2S SGN d5702      69.281  35.941  35.073  0.00  0.00    -0.296 OA
ATOM      3  O1  SGN d5702      66.856  38.770  31.981  0.00  0.00    -0.369 OA
ATOM      4  O4  SGN d5702      64.168  41.290  34.799  0.00  0.00    -0.348 OA
ATOM      5  O5  SGN d5702      67.225  40.896  32.868  0.00  0.00    -0.350 OA
ATOM      6  C5  SGN d5702      65.901  41.283  33.143  0.00  0.00     0.091 C 
ATOM      7  O4S SGN d5702      62.750  44.081  31.040  0.00  0.00    -0.572 OA
ATOM      8  C1  SGN d5702      67.513  39.500  32.990  0.00  0.00     0.147 C 
ATOM      9  O3  SGN d5702      65.368  38.857  35.947  0.00  0.00    -0.391 OA
ATOM     10  S1  SGN d5702      68.922  37.303  35.302  0.00  0.00     0.156 S 
ATOM     11  C4  SGN d5702      65.536  40.848  34.576  0.00  0.00     0.095 C 
ATOM     12  S2  SGN d5702      64.020  44.305  31.650  0.00  0.00     0.251 S 
ATOM     13  C2  SGN d5702      67.137  39.038  34.385  0.00  0.00     0.081 C 
ATOM     14  O3S SGN d5702      68.655  37.590  36.698  0.00  0.00    -0.296 OA
ATOM     15  O1S SGN d5702      69.961  38.131  34.723  0.00  0.00    -0.296 OA
ATOM     16  O6  SGN d5702      64.453  43.000  32.702  0.00  0.00    -0.254 OA
ATOM     17  N   SGN d5702      67.406  37.640  34.461  0.00  0.00    -0.210 NA
ATOM     18  C3  SGN d5702      65.678  39.304  34.650  0.00  0.00     0.083 C 
ATOM     19  C6  SGN d5702      65.828  42.767  32.966  0.00  0.00     0.067 C 
ATOM     20  O6S SGN d5702      63.944  45.461  32.495  0.00  0.00    -0.572 OA
ATOM     21  H   SGN d5702      69.448  35.806  34.128  0.00  0.00     0.231 HD
ATOM     22  H   SGN d5702      67.129  39.103  31.112  0.00  0.00     0.212 HD
ATOM     23  H   SGN d5702      65.198  40.817  32.483  0.00  0.00     0.090 H 
ATOM     24  H   SGN d5702      68.560  39.325  32.855  0.00  0.00     0.131 H 
ATOM     25  H   SGN d5702      64.430  39.023  36.130  0.00  0.00     0.210 HD
ATOM     26  H   SGN d5702      66.167  41.270  35.330  0.00  0.00     0.091 H 
ATOM     27  H   SGN d5702      67.703  39.570  35.122  0.00  0.00     0.076 H 
ATOM     28  H   SGN d5702      67.953  37.003  37.020  0.00  0.00     0.231 HD
ATOM     29  H   SGN d5702      70.089  37.888  33.793  0.00  0.00     0.231 HD
ATOM     30  H   SGN d5702      66.643  37.184  34.963  0.00  0.00     0.140 HD
ATOM     31  H   SGN d5702      65.029  38.810  33.958  0.00  0.00     0.089 H 
ATOM     32  H   SGN d5702      66.435  43.085  32.144  0.00  0.00     0.080 H 
ATOM     33  H   SGN d5702      66.187  43.307  33.818  0.00  0.00     0.080 H 
ATOM     34  C3  IDU d1623      60.712  40.469  36.093  0.00  0.00     0.069 C 
ATOM     35  O1S IDU d1623      61.283  44.766  37.140  0.00  0.00    -0.572 OA
ATOM     36  O2  IDU d1623      62.025  42.480  36.301  0.00  0.00    -0.244 OA
ATOM     37  S   IDU d1623      60.833  43.736  36.253  0.00  0.00     0.252 S 
ATOM     38  C4  IDU d1623      61.128  40.095  37.524  0.00  0.00    -0.005 C 
ATOM     39  C5  IDU d1623      62.478  39.360  37.494  0.00  0.00     0.127 C 
ATOM     40  O3S IDU d1623      60.630  44.180  34.925  0.00  0.00    -0.572 OA
ATOM     41  O5  IDU d1623      63.475  40.225  36.843  0.00  0.00    -0.343 OA
ATOM     42  O61 IDU d1623      62.106  38.308  39.573  0.00  0.00    -0.646 OA
ATOM     43  C2  IDU d1623      61.826  41.343  35.495  0.00  0.00     0.132 C 
ATOM     44  C6  IDU d1623      62.871  39.038  38.910  0.00  0.00     0.203 C 
ATOM     45  O62 IDU d1623      63.933  39.511  39.345  0.00  0.00    -0.646 OA
ATOM     46  O2S IDU d1623      59.544  43.243  36.712  0.00  0.00    -0.572 OA
ATOM     47  C1  IDU d1623      63.150  40.564  35.456  0.00  0.00     0.161 C 
ATOM     48  O3  IDU d1623      60.554  39.304  35.332  0.00  0.00    -0.393 OA
ATOM     49  H   IDU d1623      59.784  41.002  36.094  0.00  0.00     0.087 H 
ATOM     50  H   IDU d1623      60.385  39.457  37.956  0.00  0.00     0.041 H 
ATOM     51  H   IDU d1623      61.222  40.984  38.111  0.00  0.00     0.041 H 
ATOM     52  H   IDU d1623      62.414  38.448  36.938  0.00  0.00     0.100 H 
ATOM     53  H   IDU d1623      61.532  41.627  34.506  0.00  0.00     0.097 H 
ATOM     54  H   IDU d1623      63.058  39.667  34.879  0.00  0.00     0.133 H 
ATOM     55  H   IDU d1623      61.388  38.810  35.321  0.00  0.00     0.210 HD
ENDROOT
TORSDOF 16
ENDMDL
MODEL 25
REMARK VINA RESULT:      -5.0      3.421      6.913
REMARK  0 active torsions:
REMARK  status: ('A' for Active; 'I' for Inactive)
REMARK       I    between atoms: O2S_2  and  S1_19 
REMARK       I    between atoms: C3_3  and  O3_35 
REMARK       I    between atoms: O2_5  and  C2_22 
REMARK       I    between atoms: O2_5  and  S_7 
REMARK       I    between atoms: O1_6  and  C1_12 
REMARK       I    between atoms: O4_8  and  C1_32 
REMARK       I    between atoms: O4_8  and  C4_20 
REMARK       I    between atoms: C5_10  and  C6_33 
REMARK       I    between atoms: C5_14  and  C6_23 
REMARK       I    between atoms: O3_17  and  C3_31 
REMARK       I    between atoms: S1_19  and  N_30 
REMARK       I    between atoms: S1_19  and  O1S_28 
REMARK       I    between atoms: S1_19  and  O3S_25 
REMARK       I    between atoms: S2_21  and  O6_29 
REMARK       I    between atoms: C2_24  and  N_30 
REMARK       I    between atoms: O6_29  and  C6_33 
ROOT
ATOM      1  O5S SGN d5702      61.040  43.091  42.377  0.00  0.00    -0.572 OA
ATOM      2  O2S SGN d5702      63.102  44.179  32.164  0.00  0.00    -0.296 OA
ATOM      3  O1  SGN d5702      60.774  43.194  36.295  0.00  0.00    -0.369 OA
ATOM      4  O4  SGN d5702      63.882  40.672  38.639  0.00  0.00    -0.348 OA
ATOM      5  O5  SGN d5702      62.321  43.874  37.903  0.00  0.00    -0.350 OA
ATOM      6  C5  SGN d5702      62.536  42.654  38.571  0.00  0.00     0.091 C 
ATOM      7  O4S SGN d5702      61.039  40.771  42.620  0.00  0.00    -0.572 OA
ATOM      8  C1  SGN d5702      62.034  43.786  36.505  0.00  0.00     0.147 C 
ATOM      9  O3  SGN d5702      64.350  40.989  35.748  0.00  0.00    -0.391 OA
ATOM     10  S1  SGN d5702      63.698  44.119  33.459  0.00  0.00     0.156 S 
ATOM     11  C4  SGN d5702      63.704  41.909  37.895  0.00  0.00     0.095 C 
ATOM     12  S2  SGN d5702      61.843  41.904  42.293  0.00  0.00     0.251 S 
ATOM     13  C2  SGN d5702      63.156  43.031  35.817  0.00  0.00     0.081 C 
ATOM     14  O3S SGN d5702      65.069  43.647  33.427  0.00  0.00    -0.296 OA
ATOM     15  O1S SGN d5702      63.542  45.423  34.072  0.00  0.00    -0.296 OA
ATOM     16  O6  SGN d5702      62.478  41.785  40.687  0.00  0.00    -0.254 OA
ATOM     17  N   SGN d5702      62.823  42.934  34.434  0.00  0.00    -0.210 NA
ATOM     18  C3  SGN d5702      63.307  41.657  36.415  0.00  0.00     0.083 C 
ATOM     19  C6  SGN d5702      62.825  42.979  40.003  0.00  0.00     0.067 C 
ATOM     20  O6S SGN d5702      62.991  41.937  43.151  0.00  0.00    -0.572 OA
ATOM     21  H   SGN d5702      62.190  44.499  32.243  0.00  0.00     0.231 HD
ATOM     22  H   SGN d5702      60.094  43.712  36.753  0.00  0.00     0.212 HD
ATOM     23  H   SGN d5702      61.681  42.012  38.524  0.00  0.00     0.090 H 
ATOM     24  H   SGN d5702      61.983  44.766  36.075  0.00  0.00     0.131 H 
ATOM     25  H   SGN d5702      64.457  40.102  36.124  0.00  0.00     0.210 HD
ATOM     26  H   SGN d5702      64.624  42.455  37.897  0.00  0.00     0.091 H 
ATOM     27  H   SGN d5702      64.087  43.545  35.944  0.00  0.00     0.076 H 
ATOM     28  H   SGN d5702      65.101  42.774  33.006  0.00  0.00     0.231 HD
ATOM     29  H   SGN d5702      62.606  45.676  34.059  0.00  0.00     0.231 HD
ATOM     30  H   SGN d5702      63.058  41.998  34.103  0.00  0.00     0.140 HD
ATOM     31  H   SGN d5702      62.420  41.065  36.334  0.00  0.00     0.089 H 
ATOM     32  H   SGN d5702      62.227  43.800  40.338  0.00  0.00     0.080 H 
ATOM     33  H   SGN d5702      63.841  43.275  40.167  0.00  0.00     0.080 H 
ATOM     34  C3  IDU d1623      64.412  36.931  38.545  0.00  0.00     0.069 C 
ATOM     35  O1S IDU d1623      66.815  38.291  42.046  0.00  0.00    -0.572 OA
ATOM     36  O2  IDU d1623      65.402  38.617  39.954  0.00  0.00    -0.244 OA
ATOM     37  S   IDU d1623      65.601  37.799  41.468  0.00  0.00     0.252 S 
ATOM     38  C4  IDU d1623      65.694  36.941  37.697  0.00  0.00    -0.005 C 
ATOM     39  C5  IDU d1623      65.603  38.051  36.637  0.00  0.00     0.127 C 
ATOM     40  O3S IDU d1623      64.464  37.985  42.290  0.00  0.00    -0.572 OA
ATOM     41  O5  IDU d1623      65.385  39.339  37.316  0.00  0.00    -0.343 OA
ATOM     42  O61 IDU d1623      67.186  37.018  35.224  0.00  0.00    -0.646 OA
ATOM     43  C2  IDU d1623      64.261  38.320  39.183  0.00  0.00     0.132 C 
ATOM     44  C6  IDU d1623      66.885  38.055  35.849  0.00  0.00     0.203 C 
ATOM     45  O62 IDU d1623      67.575  39.086  35.859  0.00  0.00    -0.646 OA
ATOM     46  O2S IDU d1623      65.719  36.362  41.268  0.00  0.00    -0.572 OA
ATOM     47  C1  IDU d1623      64.145  39.397  38.092  0.00  0.00     0.161 C 
ATOM     48  O3  IDU d1623      63.311  36.656  37.724  0.00  0.00    -0.393 OA
ATOM     49  H   IDU d1623      64.465  36.178  39.304  0.00  0.00     0.087 H 
ATOM     50  H   IDU d1623      65.808  35.994  37.212  0.00  0.00     0.041 H 
ATOM     51  H   IDU d1623      66.537  37.123  38.331  0.00  0.00     0.041 H 
ATOM     52  H   IDU d1623      64.786  37.884  35.967  0.00  0.00     0.100 H 
ATOM     53  H   IDU d1623      63.383  38.313  39.793  0.00  0.00     0.097 H 
ATOM     54  H   IDU d1623      63.310  39.212  37.449  0.00  0.00     0.133 H 
ATOM     55  H   IDU d1623      63.250  37.331  37.030  0.00  0.00     0.210 HD
ENDROOT
TORSDOF 16
ENDMDL
MODEL 26
REMARK VINA RESULT:      -5.0      2.418      6.273
REMARK  0 active torsions:
REMARK  status: ('A' for Active; 'I' for Inactive)
REMARK       I    between atoms: O2S_2  and  S1_19 
REMARK       I    between atoms: C3_3  and  O3_35 
REMARK       I    between atoms: O2_5  and  C2_22 
REMARK       I    between atoms: O2_5  and  S_7 
REMARK       I    between atoms: O1_6  and  C1_12 
REMARK       I    between atoms: O4_8  and  C1_32 
REMARK       I    between atoms: O4_8  and  C4_20 
REMARK       I    between atoms: C5_10  and  C6_33 
REMARK       I    between atoms: C5_14  and  C6_23 
REMARK       I    between atoms: O3_17  and  C3_31 
REMARK       I    between atoms: S1_19  and  N_30 
REMARK       I    between atoms: S1_19  and  O1S_28 
REMARK       I    between atoms: S1_19  and  O3S_25 
REMARK       I    between atoms: S2_21  and  O6_29 
REMARK       I    between atoms: C2_24  and  N_30 
REMARK       I    between atoms: O6_29  and  C6_33 
ROOT
ATOM      1  O5S SGN d5702      67.942  36.541  31.292  0.00  0.00    -0.572 OA
ATOM      2  O2S SGN d5702      64.015  46.154  32.666  0.00  0.00    -0.296 OA
ATOM      3  O1  SGN d5702      67.166  42.497  32.291  0.00  0.00    -0.369 OA
ATOM      4  O4  SGN d5702      65.248  39.223  34.959  0.00  0.00    -0.348 OA
ATOM      5  O5  SGN d5702      65.783  40.718  31.687  0.00  0.00    -0.350 OA
ATOM      6  C5  SGN d5702      66.004  39.852  32.773  0.00  0.00     0.091 C 
ATOM      7  O4S SGN d5702      68.584  35.972  33.461  0.00  0.00    -0.572 OA
ATOM      8  C1  SGN d5702      65.848  42.118  31.972  0.00  0.00     0.147 C 
ATOM      9  O3  SGN d5702      64.244  41.970  35.314  0.00  0.00    -0.391 OA
ATOM     10  S1  SGN d5702      63.676  44.770  32.612  0.00  0.00     0.156 S 
ATOM     11  C4  SGN d5702      64.974  40.158  33.879  0.00  0.00     0.095 C 
ATOM     12  S2  SGN d5702      67.471  36.286  32.623  0.00  0.00     0.251 S 
ATOM     13  C2  SGN d5702      64.862  42.443  33.079  0.00  0.00     0.081 C 
ATOM     14  O3S SGN d5702      62.488  44.449  33.380  0.00  0.00    -0.296 OA
ATOM     15  O1S SGN d5702      63.588  44.396  31.215  0.00  0.00    -0.296 OA
ATOM     16  O6  SGN d5702      66.633  37.691  33.188  0.00  0.00    -0.254 OA
ATOM     17  N   SGN d5702      64.976  43.837  33.359  0.00  0.00    -0.210 NA
ATOM     18  C3  SGN d5702      65.173  41.635  34.311  0.00  0.00     0.083 C 
ATOM     19  C6  SGN d5702      65.880  38.453  32.256  0.00  0.00     0.067 C 
ATOM     20  O6S SGN d5702      66.512  35.222  32.689  0.00  0.00    -0.572 OA
ATOM     21  H   SGN d5702      64.812  46.312  32.138  0.00  0.00     0.231 HD
ATOM     22  H   SGN d5702      67.754  42.268  31.555  0.00  0.00     0.212 HD
ATOM     23  H   SGN d5702      66.976  39.982  33.202  0.00  0.00     0.090 H 
ATOM     24  H   SGN d5702      65.572  42.685  31.107  0.00  0.00     0.131 H 
ATOM     25  H   SGN d5702      64.433  41.455  36.114  0.00  0.00     0.210 HD
ATOM     26  H   SGN d5702      63.958  40.043  33.566  0.00  0.00     0.091 H 
ATOM     27  H   SGN d5702      63.864  42.202  32.775  0.00  0.00     0.076 H 
ATOM     28  H   SGN d5702      62.614  44.725  34.301  0.00  0.00     0.231 HD
ATOM     29  H   SGN d5702      64.410  44.638  30.763  0.00  0.00     0.231 HD
ATOM     30  H   SGN d5702      64.941  43.974  34.370  0.00  0.00     0.140 HD
ATOM     31  H   SGN d5702      66.157  41.812  34.692  0.00  0.00     0.089 H 
ATOM     32  H   SGN d5702      66.293  38.371  31.272  0.00  0.00     0.080 H 
ATOM     33  H   SGN d5702      64.865  38.127  32.173  0.00  0.00     0.080 H 
ATOM     34  C3  IDU d1623      65.697  38.666  38.671  0.00  0.00     0.069 C 
ATOM     35  O1S IDU d1623      63.635  34.977  37.251  0.00  0.00    -0.572 OA
ATOM     36  O2  IDU d1623      64.551  37.340  37.017  0.00  0.00    -0.244 OA
ATOM     37  S   IDU d1623      64.823  35.716  37.555  0.00  0.00     0.252 S 
ATOM     38  C4  IDU d1623      64.335  39.223  39.113  0.00  0.00    -0.005 C 
ATOM     39  C5  IDU d1623      63.959  40.427  38.235  0.00  0.00     0.127 C 
ATOM     40  O3S IDU d1623      65.991  35.182  36.962  0.00  0.00    -0.572 OA
ATOM     41  O5  IDU d1623      63.944  40.000  36.826  0.00  0.00    -0.343 OA
ATOM     42  O61 IDU d1623      62.488  41.318  39.850  0.00  0.00    -0.646 OA
ATOM     43  C2  IDU d1623      65.586  38.279  37.188  0.00  0.00     0.132 C 
ATOM     44  C6  IDU d1623      62.608  40.925  38.672  0.00  0.00     0.203 C 
ATOM     45  O62 IDU d1623      61.686  40.921  37.842  0.00  0.00    -0.646 OA
ATOM     46  O2S IDU d1623      65.050  35.679  38.992  0.00  0.00    -0.572 OA
ATOM     47  C1  IDU d1623      65.237  39.514  36.341  0.00  0.00     0.161 C 
ATOM     48  O3  IDU d1623      66.680  39.648  38.839  0.00  0.00    -0.393 OA
ATOM     49  H   IDU d1623      65.967  37.812  39.257  0.00  0.00     0.087 H 
ATOM     50  H   IDU d1623      64.391  39.532  40.136  0.00  0.00     0.041 H 
ATOM     51  H   IDU d1623      63.590  38.462  39.010  0.00  0.00     0.041 H 
ATOM     52  H   IDU d1623      64.669  41.221  38.336  0.00  0.00     0.100 H 
ATOM     53  H   IDU d1623      66.524  37.869  36.880  0.00  0.00     0.097 H 
ATOM     54  H   IDU d1623      65.974  40.282  36.451  0.00  0.00     0.133 H 
ATOM     55  H   IDU d1623      66.450  40.430  38.314  0.00  0.00     0.210 HD
ENDROOT
TORSDOF 16
ENDMDL
MODEL 27
REMARK VINA RESULT:      -5.0      3.175      5.672
REMARK  0 active torsions:
REMARK  status: ('A' for Active; 'I' for Inactive)
REMARK       I    between atoms: O2S_2  and  S1_19 
REMARK       I    between atoms: C3_3  and  O3_35 
REMARK       I    between atoms: O2_5  and  C2_22 
REMARK       I    between atoms: O2_5  and  S_7 
REMARK       I    between atoms: O1_6  and  C1_12 
REMARK       I    between atoms: O4_8  and  C1_32 
REMARK       I    between atoms: O4_8  and  C4_20 
REMARK       I    between atoms: C5_10  and  C6_33 
REMARK       I    between atoms: C5_14  and  C6_23 
REMARK       I    between atoms: O3_17  and  C3_31 
REMARK       I    between atoms: S1_19  and  N_30 
REMARK       I    between atoms: S1_19  and  O1S_28 
REMARK       I    between atoms: S1_19  and  O3S_25 
REMARK       I    between atoms: S2_21  and  O6_29 
REMARK       I    between atoms: C2_24  and  N_30 
REMARK       I    between atoms: O6_29  and  C6_33 
ROOT
ATOM      1  O5S SGN d5702      61.082  38.759  41.818  0.00  0.00    -0.572 OA
ATOM      2  O2S SGN d5702      62.763  44.348  33.120  0.00  0.00    -0.296 OA
ATOM      3  O1  SGN d5702      60.809  41.217  36.255  0.00  0.00    -0.369 OA
ATOM      4  O4  SGN d5702      64.505  38.880  37.798  0.00  0.00    -0.348 OA
ATOM      5  O5  SGN d5702      62.092  41.575  38.170  0.00  0.00    -0.350 OA
ATOM      6  C5  SGN d5702      62.647  40.294  38.339  0.00  0.00     0.091 C 
ATOM      7  O4S SGN d5702      61.747  36.625  41.151  0.00  0.00    -0.572 OA
ATOM      8  C1  SGN d5702      61.845  41.984  36.821  0.00  0.00     0.147 C 
ATOM      9  O3  SGN d5702      64.868  40.439  35.326  0.00  0.00    -0.391 OA
ATOM     10  S1  SGN d5702      63.349  43.934  34.353  0.00  0.00     0.156 S 
ATOM     11  C4  SGN d5702      63.981  40.217  37.570  0.00  0.00     0.095 C 
ATOM     12  S2  SGN d5702      62.192  37.961  41.380  0.00  0.00     0.251 S 
ATOM     13  C2  SGN d5702      63.138  41.891  36.033  0.00  0.00     0.081 C 
ATOM     14  O3S SGN d5702      64.798  43.892  34.303  0.00  0.00    -0.296 OA
ATOM     15  O1S SGN d5702      62.824  44.791  35.396  0.00  0.00    -0.296 OA
ATOM     16  O6  SGN d5702      62.838  38.667  39.938  0.00  0.00    -0.254 OA
ATOM     17  N   SGN d5702      62.849  42.273  34.690  0.00  0.00    -0.210 NA
ATOM     18  C3  SGN d5702      63.676  40.485  36.072  0.00  0.00     0.083 C 
ATOM     19  C6  SGN d5702      62.828  40.081  39.809  0.00  0.00     0.067 C 
ATOM     20  O6S SGN d5702      63.280  37.947  42.313  0.00  0.00    -0.572 OA
ATOM     21  H   SGN d5702      61.797  44.358  33.209  0.00  0.00     0.231 HD
ATOM     22  H   SGN d5702      60.008  41.310  36.794  0.00  0.00     0.212 HD
ATOM     23  H   SGN d5702      62.013  39.524  37.949  0.00  0.00     0.090 H 
ATOM     24  H   SGN d5702      61.515  43.002  36.798  0.00  0.00     0.131 H 
ATOM     25  H   SGN d5702      65.226  39.538  35.343  0.00  0.00     0.210 HD
ATOM     26  H   SGN d5702      64.706  40.937  37.889  0.00  0.00     0.091 H 
ATOM     27  H   SGN d5702      63.882  42.536  36.455  0.00  0.00     0.076 H 
ATOM     28  H   SGN d5702      65.080  43.303  33.586  0.00  0.00     0.231 HD
ATOM     29  H   SGN d5702      61.855  44.773  35.373  0.00  0.00     0.231 HD
ATOM     30  H   SGN d5702      63.344  41.646  34.055  0.00  0.00     0.140 HD
ATOM     31  H   SGN d5702      62.997  39.764  35.667  0.00  0.00     0.089 H 
ATOM     32  H   SGN d5702      62.018  40.510  40.361  0.00  0.00     0.080 H 
ATOM     33  H   SGN d5702      63.716  40.541  40.191  0.00  0.00     0.080 H 
ATOM     34  C3  IDU d1623      66.089  35.773  36.339  0.00  0.00     0.069 C 
ATOM     35  O1S IDU d1623      67.993  36.194  40.349  0.00  0.00    -0.572 OA
ATOM     36  O2  IDU d1623      66.550  36.948  38.392  0.00  0.00    -0.244 OA
ATOM     37  S   IDU d1623      66.973  35.675  39.489  0.00  0.00     0.252 S 
ATOM     38  C4  IDU d1623      67.315  36.458  35.717  0.00  0.00    -0.005 C 
ATOM     39  C5  IDU d1623      66.912  37.834  35.161  0.00  0.00     0.127 C 
ATOM     40  O3S IDU d1623      65.829  35.211  40.181  0.00  0.00    -0.572 OA
ATOM     41  O5  IDU d1623      66.332  38.634  36.251  0.00  0.00    -0.343 OA
ATOM     42  O61 IDU d1623      68.727  37.908  33.655  0.00  0.00    -0.646 OA
ATOM     43  C2  IDU d1623      65.544  36.697  37.439  0.00  0.00     0.132 C 
ATOM     44  C6  IDU d1623      68.139  38.490  34.590  0.00  0.00     0.203 C 
ATOM     45  O62 IDU d1623      68.504  39.572  35.075  0.00  0.00    -0.646 OA
ATOM     46  O2S IDU d1623      67.499  34.525  38.768  0.00  0.00    -0.572 OA
ATOM     47  C1  IDU d1623      65.126  38.049  36.839  0.00  0.00     0.161 C 
ATOM     48  O3  IDU d1623      65.115  35.572  35.354  0.00  0.00    -0.393 OA
ATOM     49  H   IDU d1623      66.354  34.822  36.752  0.00  0.00     0.087 H 
ATOM     50  H   IDU d1623      67.698  35.851  34.922  0.00  0.00     0.041 H 
ATOM     51  H   IDU d1623      68.069  36.585  36.465  0.00  0.00     0.041 H 
ATOM     52  H   IDU d1623      66.178  37.742  34.387  0.00  0.00     0.100 H 
ATOM     53  H   IDU d1623      64.704  36.215  37.893  0.00  0.00     0.097 H 
ATOM     54  H   IDU d1623      64.380  37.925  36.082  0.00  0.00     0.133 H 
ATOM     55  H   IDU d1623      64.864  36.426  34.969  0.00  0.00     0.210 HD
ENDROOT
TORSDOF 16
ENDMDL
MODEL 28
REMARK VINA RESULT:      -4.9      2.352      6.372
REMARK  0 active torsions:
REMARK  status: ('A' for Active; 'I' for Inactive)
REMARK       I    between atoms: O2S_2  and  S1_19 
REMARK       I    between atoms: C3_3  and  O3_35 
REMARK       I    between atoms: O2_5  and  C2_22 
REMARK       I    between atoms: O2_5  and  S_7 
REMARK       I    between atoms: O1_6  and  C1_12 
REMARK       I    between atoms: O4_8  and  C1_32 
REMARK       I    between atoms: O4_8  and  C4_20 
REMARK       I    between atoms: C5_10  and  C6_33 
REMARK       I    between atoms: C5_14  and  C6_23 
REMARK       I    between atoms: O3_17  and  C3_31 
REMARK       I    between atoms: S1_19  and  N_30 
REMARK       I    between atoms: S1_19  and  O1S_28 
REMARK       I    between atoms: S1_19  and  O3S_25 
REMARK       I    between atoms: S2_21  and  O6_29 
REMARK       I    between atoms: C2_24  and  N_30 
REMARK       I    between atoms: O6_29  and  C6_33 
ROOT
ATOM      1  O5S SGN d5702      61.438  44.452  38.954  0.00  0.00    -0.572 OA
ATOM      2  O2S SGN d5702      65.528  34.812  38.726  0.00  0.00    -0.296 OA
ATOM      3  O1  SGN d5702      64.871  39.493  39.778  0.00  0.00    -0.369 OA
ATOM      4  O4  SGN d5702      64.131  41.380  35.607  0.00  0.00    -0.348 OA
ATOM      5  O5  SGN d5702      62.855  39.959  38.702  0.00  0.00    -0.350 OA
ATOM      6  C5  SGN d5702      63.278  40.958  37.807  0.00  0.00     0.091 C 
ATOM      7  O4S SGN d5702      62.981  45.657  37.686  0.00  0.00    -0.572 OA
ATOM      8  C1  SGN d5702      63.817  38.949  39.021  0.00  0.00     0.147 C 
ATOM      9  O3  SGN d5702      65.329  38.689  35.644  0.00  0.00    -0.391 OA
ATOM     10  S1  SGN d5702      64.607  35.686  38.078  0.00  0.00     0.156 S 
ATOM     11  C4  SGN d5702      63.724  40.296  36.487  0.00  0.00     0.095 C 
ATOM     12  S2  SGN d5702      62.019  44.603  37.651  0.00  0.00     0.251 S 
ATOM     13  C2  SGN d5702      64.294  38.298  37.736  0.00  0.00     0.081 C 
ATOM     14  O3S SGN d5702      64.412  35.363  36.677  0.00  0.00    -0.296 OA
ATOM     15  O1S SGN d5702      63.383  35.684  38.854  0.00  0.00    -0.296 OA
ATOM     16  O6  SGN d5702      62.747  43.100  37.198  0.00  0.00    -0.254 OA
ATOM     17  N   SGN d5702      65.273  37.322  38.087  0.00  0.00    -0.210 NA
ATOM     18  C3  SGN d5702      64.893  39.331  36.817  0.00  0.00     0.083 C 
ATOM     19  C6  SGN d5702      62.125  41.892  37.610  0.00  0.00     0.067 C 
ATOM     20  O6S SGN d5702      61.051  44.877  36.628  0.00  0.00    -0.572 OA
ATOM     21  H   SGN d5702      65.621  35.072  39.656  0.00  0.00     0.231 HD
ATOM     22  H   SGN d5702      64.515  39.895  40.586  0.00  0.00     0.212 HD
ATOM     23  H   SGN d5702      64.114  41.510  38.182  0.00  0.00     0.090 H 
ATOM     24  H   SGN d5702      63.369  38.190  39.629  0.00  0.00     0.131 H 
ATOM     25  H   SGN d5702      65.717  39.344  35.043  0.00  0.00     0.210 HD
ATOM     26  H   SGN d5702      62.955  39.726  36.009  0.00  0.00     0.091 H 
ATOM     27  H   SGN d5702      63.475  37.840  37.220  0.00  0.00     0.076 H 
ATOM     28  H   SGN d5702      65.266  35.382  36.219  0.00  0.00     0.231 HD
ATOM     29  H   SGN d5702      63.585  35.906  39.776  0.00  0.00     0.231 HD
ATOM     30  H   SGN d5702      66.040  37.369  37.417  0.00  0.00     0.140 HD
ATOM     31  H   SGN d5702      65.726  39.845  37.250  0.00  0.00     0.089 H 
ATOM     32  H   SGN d5702      61.585  42.031  38.523  0.00  0.00     0.080 H 
ATOM     33  H   SGN d5702      61.409  41.528  36.902  0.00  0.00     0.080 H 
ATOM     34  C3  IDU d1623      66.677  42.727  33.159  0.00  0.00     0.069 C 
ATOM     35  O1S IDU d1623      62.764  44.146  31.561  0.00  0.00    -0.572 OA
ATOM     36  O2  IDU d1623      64.269  42.797  33.109  0.00  0.00    -0.244 OA
ATOM     37  S   IDU d1623      63.934  44.326  32.367  0.00  0.00     0.252 S 
ATOM     38  C4  IDU d1623      66.626  41.556  32.166  0.00  0.00    -0.005 C 
ATOM     39  C5  IDU d1623      66.452  40.235  32.934  0.00  0.00     0.127 C 
ATOM     40  O3S IDU d1623      63.798  45.338  33.346  0.00  0.00    -0.572 OA
ATOM     41  O5  IDU d1623      65.228  40.317  33.748  0.00  0.00    -0.343 OA
ATOM     42  O61 IDU d1623      67.350  38.940  31.178  0.00  0.00    -0.646 OA
ATOM     43  C2  IDU d1623      65.375  42.708  33.975  0.00  0.00     0.132 C 
ATOM     44  C6  IDU d1623      66.371  39.115  31.932  0.00  0.00     0.203 C 
ATOM     45  O62 IDU d1623      65.341  38.425  31.907  0.00  0.00    -0.646 OA
ATOM     46  O2S IDU d1623      65.038  44.740  31.514  0.00  0.00    -0.572 OA
ATOM     47  C1  IDU d1623      65.253  41.385  34.749  0.00  0.00     0.161 C 
ATOM     48  O3  IDU d1623      67.780  42.572  34.009  0.00  0.00    -0.393 OA
ATOM     49  H   IDU d1623      66.776  43.659  32.643  0.00  0.00     0.087 H 
ATOM     50  H   IDU d1623      67.536  41.524  31.605  0.00  0.00     0.041 H 
ATOM     51  H   IDU d1623      65.799  41.691  31.501  0.00  0.00     0.041 H 
ATOM     52  H   IDU d1623      67.277  40.053  33.589  0.00  0.00     0.100 H 
ATOM     53  H   IDU d1623      65.394  43.535  34.653  0.00  0.00     0.097 H 
ATOM     54  H   IDU d1623      66.084  41.240  35.407  0.00  0.00     0.133 H 
ATOM     55  H   IDU d1623      67.704  41.730  34.485  0.00  0.00     0.210 HD
ENDROOT
TORSDOF 16
ENDMDL
MODEL 29
REMARK VINA RESULT:      -4.9      2.876      6.962
REMARK  0 active torsions:
REMARK  status: ('A' for Active; 'I' for Inactive)
REMARK       I    between atoms: O2S_2  and  S1_19 
REMARK       I    between atoms: C3_3  and  O3_35 
REMARK       I    between atoms: O2_5  and  C2_22 
REMARK       I    between atoms: O2_5  and  S_7 
REMARK       I    between atoms: O1_6  and  C1_12 
REMARK       I    between atoms: O4_8  and  C1_32 
REMARK       I    between atoms: O4_8  and  C4_20 
REMARK       I    between atoms: C5_10  and  C6_33 
REMARK       I    between atoms: C5_14  and  C6_23 
REMARK       I    between atoms: O3_17  and  C3_31 
REMARK       I    between atoms: S1_19  and  N_30 
REMARK       I    between atoms: S1_19  and  O1S_28 
REMARK       I    between atoms: S1_19  and  O3S_25 
REMARK       I    between atoms: S2_21  and  O6_29 
REMARK       I    between atoms: C2_24  and  N_30 
REMARK       I    between atoms: O6_29  and  C6_33 
ROOT
ATOM      1  O5S SGN d5702      63.621  38.552  41.110  0.00  0.00    -0.572 OA
ATOM      2  O2S SGN d5702      69.627  35.088  33.259  0.00  0.00    -0.296 OA
ATOM      3  O1  SGN d5702      68.233  37.281  37.345  0.00  0.00    -0.369 OA
ATOM      4  O4  SGN d5702      64.461  39.625  36.007  0.00  0.00    -0.348 OA
ATOM      5  O5  SGN d5702      65.986  36.672  37.486  0.00  0.00    -0.350 OA
ATOM      6  C5  SGN d5702      65.383  37.943  37.445  0.00  0.00     0.091 C 
ATOM      7  O4S SGN d5702      63.501  40.836  40.649  0.00  0.00    -0.572 OA
ATOM      8  C1  SGN d5702      67.203  36.528  36.749  0.00  0.00     0.147 C 
ATOM      9  O3  SGN d5702      66.240  38.657  33.869  0.00  0.00    -0.391 OA
ATOM     10  S1  SGN d5702      68.277  35.299  33.668  0.00  0.00     0.156 S 
ATOM     11  C4  SGN d5702      65.095  38.316  35.977  0.00  0.00     0.095 C 
ATOM     12  S2  SGN d5702      63.162  39.535  40.170  0.00  0.00     0.251 S 
ATOM     13  C2  SGN d5702      66.956  36.917  35.304  0.00  0.00     0.081 C 
ATOM     14  O3S SGN d5702      67.374  35.502  32.552  0.00  0.00    -0.296 OA
ATOM     15  O1S SGN d5702      67.904  34.194  34.528  0.00  0.00    -0.296 OA
ATOM     16  O6  SGN d5702      63.900  39.215  38.638  0.00  0.00    -0.254 OA
ATOM     17  N   SGN d5702      68.194  36.792  34.608  0.00  0.00    -0.210 NA
ATOM     18  C3  SGN d5702      66.451  38.333  35.221  0.00  0.00     0.083 C 
ATOM     19  C6  SGN d5702      64.132  37.865  38.264  0.00  0.00     0.067 C 
ATOM     20  O6S SGN d5702      61.750  39.471  39.929  0.00  0.00    -0.572 OA
ATOM     21  H   SGN d5702      70.185  34.959  34.041  0.00  0.00     0.231 HD
ATOM     22  H   SGN d5702      68.352  36.995  38.264  0.00  0.00     0.212 HD
ATOM     23  H   SGN d5702      66.017  38.705  37.846  0.00  0.00     0.090 H 
ATOM     24  H   SGN d5702      67.527  35.507  36.767  0.00  0.00     0.131 H 
ATOM     25  H   SGN d5702      65.914  39.568  33.802  0.00  0.00     0.210 HD
ATOM     26  H   SGN d5702      64.449  37.627  35.474  0.00  0.00     0.091 H 
ATOM     27  H   SGN d5702      66.214  36.281  34.866  0.00  0.00     0.076 H 
ATOM     28  H   SGN d5702      67.681  36.253  32.020  0.00  0.00     0.231 HD
ATOM     29  H   SGN d5702      68.548  34.114  35.250  0.00  0.00     0.231 HD
ATOM     30  H   SGN d5702      68.298  37.586  33.975  0.00  0.00     0.140 HD
ATOM     31  H   SGN d5702      67.131  39.046  35.637  0.00  0.00     0.089 H 
ATOM     32  H   SGN d5702      64.277  37.248  39.126  0.00  0.00     0.080 H 
ATOM     33  H   SGN d5702      63.311  37.432  37.732  0.00  0.00     0.080 H 
ATOM     34  C3  IDU d1623      64.259  43.116  34.570  0.00  0.00     0.069 C 
ATOM     35  O1S IDU d1623      60.030  42.078  35.526  0.00  0.00    -0.572 OA
ATOM     36  O2  IDU d1623      62.513  41.597  35.244  0.00  0.00    -0.244 OA
ATOM     37  S   IDU d1623      61.294  42.653  35.875  0.00  0.00     0.252 S 
ATOM     38  C4  IDU d1623      64.000  42.707  33.112  0.00  0.00    -0.005 C 
ATOM     39  C5  IDU d1623      64.807  41.441  32.779  0.00  0.00     0.127 C 
ATOM     40  O3S IDU d1623      61.467  42.841  37.267  0.00  0.00    -0.572 OA
ATOM     41  O5  IDU d1623      64.430  40.376  33.721  0.00  0.00    -0.343 OA
ATOM     42  O61 IDU d1623      64.780  41.870  30.459  0.00  0.00    -0.646 OA
ATOM     43  C2  IDU d1623      63.863  41.932  35.466  0.00  0.00     0.132 C 
ATOM     44  C6  IDU d1623      64.505  41.050  31.358  0.00  0.00     0.203 C 
ATOM     45  O62 IDU d1623      64.000  39.935  31.152  0.00  0.00    -0.646 OA
ATOM     46  O2S IDU d1623      61.395  43.975  35.277  0.00  0.00    -0.572 OA
ATOM     47  C1  IDU d1623      64.711  40.697  35.122  0.00  0.00     0.161 C 
ATOM     48  O3  IDU d1623      65.618  43.412  34.738  0.00  0.00    -0.393 OA
ATOM     49  H   IDU d1623      63.689  43.983  34.828  0.00  0.00     0.087 H 
ATOM     50  H   IDU d1623      64.299  43.501  32.460  0.00  0.00     0.041 H 
ATOM     51  H   IDU d1623      62.957  42.508  32.979  0.00  0.00     0.041 H 
ATOM     52  H   IDU d1623      65.859  41.613  32.873  0.00  0.00     0.100 H 
ATOM     53  H   IDU d1623      64.019  42.219  36.485  0.00  0.00     0.097 H 
ATOM     54  H   IDU d1623      65.755  40.896  35.242  0.00  0.00     0.133 H 
ATOM     55  H   IDU d1623      66.149  42.634  34.507  0.00  0.00     0.210 HD
ENDROOT
TORSDOF 16
ENDMDL
MODEL 30
REMARK VINA RESULT:      -4.9      3.304      7.877
REMARK  0 active torsions:
REMARK  status: ('A' for Active; 'I' for Inactive)
REMARK       I    between atoms: O2S_2  and  S1_19 
REMARK       I    between atoms: C3_3  and  O3_35 
REMARK       I    between atoms: O2_5  and  C2_22 
REMARK       I    between atoms: O2_5  and  S_7 
REMARK       I    between atoms: O1_6  and  C1_12 
REMARK       I    between atoms: O4_8  and  C1_32 
REMARK       I    between atoms: O4_8  and  C4_20 
REMARK       I    between atoms: C5_10  and  C6_33 
REMARK       I    between atoms: C5_14  and  C6_23 
REMARK       I    between atoms: O3_17  and  C3_31 
REMARK       I    between atoms: S1_19  and  N_30 
REMARK       I    between atoms: S1_19  and  O1S_28 
REMARK       I    between atoms: S1_19  and  O3S_25 
REMARK       I    between atoms: S2_21  and  O6_29 
REMARK       I    between atoms: C2_24  and  N_30 
REMARK       I    between atoms: O6_29  and  C6_33 
ROOT
ATOM      1  O5S SGN d5702      61.621  41.417  44.125  0.00  0.00    -0.572 OA
ATOM      2  O2S SGN d5702      66.283  34.702  37.575  0.00  0.00    -0.296 OA
ATOM      3  O1  SGN d5702      65.611  37.956  41.098  0.00  0.00    -0.369 OA
ATOM      4  O4  SGN d5702      62.986  41.170  39.029  0.00  0.00    -0.348 OA
ATOM      5  O5  SGN d5702      63.292  38.200  41.105  0.00  0.00    -0.350 OA
ATOM      6  C5  SGN d5702      63.187  39.569  40.801  0.00  0.00     0.091 C 
ATOM      7  O4S SGN d5702      62.346  43.474  43.297  0.00  0.00    -0.572 OA
ATOM      8  C1  SGN d5702      64.404  37.509  40.528  0.00  0.00     0.147 C 
ATOM      9  O3  SGN d5702      64.381  39.269  37.263  0.00  0.00    -0.391 OA
ATOM     10  S1  SGN d5702      65.084  35.438  37.807  0.00  0.00     0.156 S 
ATOM     11  C4  SGN d5702      63.109  39.742  39.271  0.00  0.00     0.095 C 
ATOM     12  S2  SGN d5702      61.582  42.306  42.999  0.00  0.00     0.251 S 
ATOM     13  C2  SGN d5702      64.369  37.686  39.022  0.00  0.00     0.081 C 
ATOM     14  O3S SGN d5702      64.357  35.732  36.586  0.00  0.00    -0.296 OA
ATOM     15  O1S SGN d5702      64.306  34.710  38.789  0.00  0.00    -0.296 OA
ATOM     16  O6  SGN d5702      62.215  41.473  41.620  0.00  0.00    -0.254 OA
ATOM     17  N   SGN d5702      65.506  37.014  38.484  0.00  0.00    -0.210 NA
ATOM     18  C3  SGN d5702      64.409  39.148  38.665  0.00  0.00     0.083 C 
ATOM     19  C6  SGN d5702      61.961  40.082  41.491  0.00  0.00     0.067 C 
ATOM     20  O6S SGN d5702      60.251  42.691  42.629  0.00  0.00    -0.572 OA
ATOM     21  H   SGN d5702      66.727  34.534  38.421  0.00  0.00     0.231 HD
ATOM     22  H   SGN d5702      65.584  37.822  42.059  0.00  0.00     0.212 HD
ATOM     23  H   SGN d5702      64.037  40.125  41.139  0.00  0.00     0.090 H 
ATOM     24  H   SGN d5702      64.339  36.462  40.740  0.00  0.00     0.131 H 
ATOM     25  H   SGN d5702      64.406  40.208  37.020  0.00  0.00     0.210 HD
ATOM     26  H   SGN d5702      62.279  39.238  38.821  0.00  0.00     0.091 H 
ATOM     27  H   SGN d5702      63.465  37.277  38.617  0.00  0.00     0.076 H 
ATOM     28  H   SGN d5702      64.933  36.218  35.976  0.00  0.00     0.231 HD
ATOM     29  H   SGN d5702      64.850  34.547  39.575  0.00  0.00     0.231 HD
ATOM     30  H   SGN d5702      65.912  37.591  37.748  0.00  0.00     0.140 HD
ATOM     31  H   SGN d5702      65.283  39.646  39.029  0.00  0.00     0.089 H 
ATOM     32  H   SGN d5702      61.842  39.624  42.450  0.00  0.00     0.080 H 
ATOM     33  H   SGN d5702      61.060  39.870  40.954  0.00  0.00     0.080 H 
ATOM     34  C3  IDU d1623      64.106  44.186  37.042  0.00  0.00     0.069 C 
ATOM     35  O1S IDU d1623      59.752  44.872  37.716  0.00  0.00    -0.572 OA
ATOM     36  O2  IDU d1623      61.907  43.518  37.767  0.00  0.00    -0.244 OA
ATOM     37  S   IDU d1623      61.124  45.028  38.095  0.00  0.00     0.252 S 
ATOM     38  C4  IDU d1623      63.774  43.630  35.649  0.00  0.00    -0.005 C 
ATOM     39  C5  IDU d1623      64.085  42.125  35.605  0.00  0.00     0.127 C 
ATOM     40  O3S IDU d1623      61.300  45.398  39.450  0.00  0.00    -0.572 OA
ATOM     41  O5  IDU d1623      63.315  41.450  36.661  0.00  0.00    -0.343 OA
ATOM     42  O61 IDU d1623      64.304  42.101  33.256  0.00  0.00    -0.646 OA
ATOM     43  C2  IDU d1623      63.277  43.400  38.070  0.00  0.00     0.132 C 
ATOM     44  C6  IDU d1623      63.718  41.608  34.241  0.00  0.00     0.203 C 
ATOM     45  O62 IDU d1623      62.855  40.719  34.164  0.00  0.00    -0.646 OA
ATOM     46  O2S IDU d1623      61.716  46.099  37.308  0.00  0.00    -0.572 OA
ATOM     47  C1  IDU d1623      63.638  41.907  38.014  0.00  0.00     0.161 C 
ATOM     48  O3  IDU d1623      65.473  44.019  37.298  0.00  0.00    -0.393 OA
ATOM     49  H   IDU d1623      63.875  45.229  37.100  0.00  0.00     0.087 H 
ATOM     50  H   IDU d1623      64.363  44.137  34.913  0.00  0.00     0.041 H 
ATOM     51  H   IDU d1623      62.735  43.784  35.444  0.00  0.00     0.041 H 
ATOM     52  H   IDU d1623      65.124  41.937  35.777  0.00  0.00     0.100 H 
ATOM     53  H   IDU d1623      63.486  43.797  39.041  0.00  0.00     0.097 H 
ATOM     54  H   IDU d1623      64.679  41.750  38.207  0.00  0.00     0.133 H 
ATOM     55  H   IDU d1623      65.698  43.077  37.249  0.00  0.00     0.210 HD
ENDROOT
TORSDOF 16
ENDMDL
MODEL 31
REMARK VINA RESULT:      -4.9      3.901      7.651
REMARK  0 active torsions:
REMARK  status: ('A' for Active; 'I' for Inactive)
REMARK       I    between atoms: O2S_2  and  S1_19 
REMARK       I    between atoms: C3_3  and  O3_35 
REMARK       I    between atoms: O2_5  and  C2_22 
REMARK       I    between atoms: O2_5  and  S_7 
REMARK       I    between atoms: O1_6  and  C1_12 
REMARK       I    between atoms: O4_8  and  C1_32 
REMARK       I    between atoms: O4_8  and  C4_20 
REMARK       I    between atoms: C5_10  and  C6_33 
REMARK       I    between atoms: C5_14  and  C6_23 
REMARK       I    between atoms: O3_17  and  C3_31 
REMARK       I    between atoms: S1_19  and  N_30 
REMARK       I    between atoms: S1_19  and  O1S_28 
REMARK       I    between atoms: S1_19  and  O3S_25 
REMARK       I    between atoms: S2_21  and  O6_29 
REMARK       I    between atoms: C2_24  and  N_30 
REMARK       I    between atoms: O6_29  and  C6_33 
ROOT
ATOM      1  O5S SGN d5702      63.616  44.298  44.113  0.00  0.00    -0.572 OA
ATOM      2  O2S SGN d5702      62.934  34.893  39.551  0.00  0.00    -0.296 OA
ATOM      3  O1  SGN d5702      64.696  38.707  41.959  0.00  0.00    -0.369 OA
ATOM      4  O4  SGN d5702      63.506  42.269  39.238  0.00  0.00    -0.348 OA
ATOM      5  O5  SGN d5702      62.836  40.109  42.087  0.00  0.00    -0.350 OA
ATOM      6  C5  SGN d5702      63.324  41.230  41.390  0.00  0.00     0.091 C 
ATOM      7  O4S SGN d5702      65.016  45.443  42.640  0.00  0.00    -0.572 OA
ATOM      8  C1  SGN d5702      63.328  38.836  41.656  0.00  0.00     0.147 C 
ATOM      9  O3  SGN d5702      63.396  39.587  38.024  0.00  0.00    -0.391 OA
ATOM     10  S1  SGN d5702      62.312  36.173  39.647  0.00  0.00     0.156 S 
ATOM     11  C4  SGN d5702      62.991  41.077  39.892  0.00  0.00     0.095 C 
ATOM     12  S2  SGN d5702      63.746  44.807  42.777  0.00  0.00     0.251 S 
ATOM     13  C2  SGN d5702      63.038  38.670  40.176  0.00  0.00     0.081 C 
ATOM     14  O3S SGN d5702      61.554  36.524  38.461  0.00  0.00    -0.296 OA
ATOM     15  O1S SGN d5702      61.529  36.188  40.867  0.00  0.00    -0.296 OA
ATOM     16  O6  SGN d5702      63.579  43.487  41.670  0.00  0.00    -0.254 OA
ATOM     17  N   SGN d5702      63.568  37.408  39.775  0.00  0.00    -0.210 NA
ATOM     18  C3  SGN d5702      63.681  39.781  39.388  0.00  0.00     0.083 C 
ATOM     19  C6  SGN d5702      62.678  42.439  41.992  0.00  0.00     0.067 C 
ATOM     20  O6S SGN d5702      62.710  45.732  42.421  0.00  0.00    -0.572 OA
ATOM     21  H   SGN d5702      63.425  34.711  40.367  0.00  0.00     0.231 HD
ATOM     22  H   SGN d5702      64.828  38.821  42.913  0.00  0.00     0.212 HD
ATOM     23  H   SGN d5702      64.387  41.325  41.470  0.00  0.00     0.090 H 
ATOM     24  H   SGN d5702      62.827  38.049  42.182  0.00  0.00     0.131 H 
ATOM     25  H   SGN d5702      63.805  40.297  37.505  0.00  0.00     0.210 HD
ATOM     26  H   SGN d5702      61.944  40.989  39.689  0.00  0.00     0.091 H 
ATOM     27  H   SGN d5702      61.984  38.709  39.993  0.00  0.00     0.076 H 
ATOM     28  H   SGN d5702      62.135  36.494  37.686  0.00  0.00     0.231 HD
ATOM     29  H   SGN d5702      62.094  35.945  41.617  0.00  0.00     0.231 HD
ATOM     30  H   SGN d5702      64.019  37.514  38.866  0.00  0.00     0.140 HD
ATOM     31  H   SGN d5702      64.743  39.821  39.508  0.00  0.00     0.089 H 
ATOM     32  H   SGN d5702      62.578  42.332  43.052  0.00  0.00     0.080 H 
ATOM     33  H   SGN d5702      61.688  42.611  41.623  0.00  0.00     0.080 H 
ATOM     34  C3  IDU d1623      65.430  43.749  36.340  0.00  0.00     0.069 C 
ATOM     35  O1S IDU d1623      62.197  46.715  37.137  0.00  0.00    -0.572 OA
ATOM     36  O2  IDU d1623      63.406  44.492  37.417  0.00  0.00    -0.244 OA
ATOM     37  S   IDU d1623      63.526  46.218  37.335  0.00  0.00     0.252 S 
ATOM     38  C4  IDU d1623      64.568  43.155  35.215  0.00  0.00    -0.005 C 
ATOM     39  C5  IDU d1623      64.114  41.739  35.606  0.00  0.00     0.127 C 
ATOM     40  O3S IDU d1623      64.157  46.731  38.492  0.00  0.00    -0.572 OA
ATOM     41  O5  IDU d1623      63.379  41.810  36.879  0.00  0.00    -0.343 OA
ATOM     42  O61 IDU d1623      63.755  41.090  33.366  0.00  0.00    -0.646 OA
ATOM     43  C2  IDU d1623      64.587  43.753  37.625  0.00  0.00     0.132 C 
ATOM     44  C6  IDU d1623      63.247  41.201  34.500  0.00  0.00     0.203 C 
ATOM     45  O62 IDU d1623      62.076  40.894  34.771  0.00  0.00    -0.646 OA
ATOM     46  O2S IDU d1623      64.356  46.625  36.211  0.00  0.00    -0.572 OA
ATOM     47  C1  IDU d1623      64.178  42.319  37.996  0.00  0.00     0.161 C 
ATOM     48  O3  IDU d1623      66.574  42.962  36.519  0.00  0.00    -0.393 OA
ATOM     49  H   IDU d1623      65.738  44.745  36.097  0.00  0.00     0.087 H 
ATOM     50  H   IDU d1623      65.142  43.109  34.313  0.00  0.00     0.041 H 
ATOM     51  H   IDU d1623      63.709  43.773  35.062  0.00  0.00     0.041 H 
ATOM     52  H   IDU d1623      64.950  41.084  35.739  0.00  0.00     0.100 H 
ATOM     53  H   IDU d1623      65.173  44.187  38.407  0.00  0.00     0.097 H 
ATOM     54  H   IDU d1623      65.034  41.694  38.139  0.00  0.00     0.133 H 
ATOM     55  H   IDU d1623      66.311  42.055  36.740  0.00  0.00     0.210 HD
ENDROOT
TORSDOF 16
ENDMDL
MODEL 32
REMARK VINA RESULT:      -4.9      2.984      6.525
REMARK  0 active torsions:
REMARK  status: ('A' for Active; 'I' for Inactive)
REMARK       I    between atoms: O2S_2  and  S1_19 
REMARK       I    between atoms: C3_3  and  O3_35 
REMARK       I    between atoms: O2_5  and  C2_22 
REMARK       I    between atoms: O2_5  and  S_7 
REMARK       I    between atoms: O1_6  and  C1_12 
REMARK       I    between atoms: O4_8  and  C1_32 
REMARK       I    between atoms: O4_8  and  C4_20 
REMARK       I    between atoms: C5_10  and  C6_33 
REMARK       I    between atoms: C5_14  and  C6_23 
REMARK       I    between atoms: O3_17  and  C3_31 
REMARK       I    between atoms: S1_19  and  N_30 
REMARK       I    between atoms: S1_19  and  O1S_28 
REMARK       I    between atoms: S1_19  and  O3S_25 
REMARK       I    between atoms: S2_21  and  O6_29 
REMARK       I    between atoms: C2_24  and  N_30 
REMARK       I    between atoms: O6_29  and  C6_33 
ROOT
ATOM      1  O5S SGN d5702      61.977  44.586  37.026  0.00  0.00    -0.572 OA
ATOM      2  O2S SGN d5702      63.039  35.825  42.668  0.00  0.00    -0.296 OA
ATOM      3  O1  SGN d5702      63.627  40.365  41.092  0.00  0.00    -0.369 OA
ATOM      4  O4  SGN d5702      64.146  39.797  36.518  0.00  0.00    -0.348 OA
ATOM      5  O5  SGN d5702      62.034  40.505  39.394  0.00  0.00    -0.350 OA
ATOM      6  C5  SGN d5702      62.868  40.777  38.294  0.00  0.00     0.091 C 
ATOM      7  O4S SGN d5702      63.988  44.640  35.844  0.00  0.00    -0.572 OA
ATOM      8  C1  SGN d5702      62.593  39.683  40.422  0.00  0.00     0.147 C 
ATOM      9  O3  SGN d5702      64.480  37.396  38.192  0.00  0.00    -0.391 OA
ATOM     10  S1  SGN d5702      62.530  36.350  41.443  0.00  0.00     0.156 S 
ATOM     11  C4  SGN d5702      63.304  39.445  37.650  0.00  0.00     0.095 C 
ATOM     12  S2  SGN d5702      62.777  43.911  36.043  0.00  0.00     0.251 S 
ATOM     13  C2  SGN d5702      63.057  38.374  39.811  0.00  0.00     0.081 C 
ATOM     14  O3S SGN d5702      62.474  35.361  40.384  0.00  0.00    -0.296 OA
ATOM     15  O1S SGN d5702      61.252  36.971  41.732  0.00  0.00    -0.296 OA
ATOM     16  O6  SGN d5702      63.093  42.305  36.604  0.00  0.00    -0.254 OA
ATOM     17  N   SGN d5702      63.637  37.595  40.855  0.00  0.00    -0.210 NA
ATOM     18  C3  SGN d5702      64.071  38.632  38.727  0.00  0.00     0.083 C 
ATOM     19  C6  SGN d5702      62.087  41.633  37.347  0.00  0.00     0.067 C 
ATOM     20  O6S SGN d5702      62.108  43.747  34.786  0.00  0.00    -0.572 OA
ATOM     21  H   SGN d5702      63.055  36.525  43.338  0.00  0.00     0.231 HD
ATOM     22  H   SGN d5702      63.281  41.192  41.463  0.00  0.00     0.212 HD
ATOM     23  H   SGN d5702      63.759  41.296  38.581  0.00  0.00     0.090 H 
ATOM     24  H   SGN d5702      61.852  39.459  41.161  0.00  0.00     0.131 H 
ATOM     25  H   SGN d5702      65.133  37.548  37.492  0.00  0.00     0.210 HD
ATOM     26  H   SGN d5702      62.488  38.844  37.307  0.00  0.00     0.091 H 
ATOM     27  H   SGN d5702      62.232  37.854  39.368  0.00  0.00     0.076 H 
ATOM     28  H   SGN d5702      63.358  34.987  40.244  0.00  0.00     0.231 HD
ATOM     29  H   SGN d5702      61.361  37.618  42.446  0.00  0.00     0.231 HD
ATOM     30  H   SGN d5702      64.480  37.145  40.501  0.00  0.00     0.140 HD
ATOM     31  H   SGN d5702      64.938  39.151  39.078  0.00  0.00     0.089 H 
ATOM     32  H   SGN d5702      61.474  42.331  37.879  0.00  0.00     0.080 H 
ATOM     33  H   SGN d5702      61.417  41.071  36.730  0.00  0.00     0.080 H 
ATOM     34  C3  IDU d1623      67.330  39.166  34.582  0.00  0.00     0.069 C 
ATOM     35  O1S IDU d1623      64.312  40.126  31.444  0.00  0.00    -0.572 OA
ATOM     36  O2  IDU d1623      65.089  39.597  33.810  0.00  0.00    -0.244 OA
ATOM     37  S   IDU d1623      65.340  40.515  32.362  0.00  0.00     0.252 S 
ATOM     38  C4  IDU d1623      67.096  37.672  34.310  0.00  0.00    -0.005 C 
ATOM     39  C5  IDU d1623      66.422  37.025  35.531  0.00  0.00     0.127 C 
ATOM     40  O3S IDU d1623      65.353  41.901  32.644  0.00  0.00    -0.572 OA
ATOM     41  O5  IDU d1623      65.163  37.734  35.810  0.00  0.00    -0.343 OA
ATOM     42  O61 IDU d1623      67.167  34.859  34.964  0.00  0.00    -0.646 OA
ATOM     43  C2  IDU d1623      65.968  39.806  34.889  0.00  0.00     0.132 C 
ATOM     44  C6  IDU d1623      66.176  35.573  35.219  0.00  0.00     0.203 C 
ATOM     45  O62 IDU d1623      65.006  35.161  35.233  0.00  0.00    -0.646 OA
ATOM     46  O2S IDU d1623      66.638  40.213  31.777  0.00  0.00    -0.572 OA
ATOM     47  C1  IDU d1623      65.341  39.152  36.131  0.00  0.00     0.161 C 
ATOM     48  O3  IDU d1623      68.189  39.313  35.678  0.00  0.00    -0.393 OA
ATOM     49  H   IDU d1623      67.779  39.640  33.734  0.00  0.00     0.087 H 
ATOM     50  H   IDU d1623      68.034  37.192  34.125  0.00  0.00     0.041 H 
ATOM     51  H   IDU d1623      66.462  37.562  33.455  0.00  0.00     0.041 H 
ATOM     52  H   IDU d1623      67.043  37.091  36.400  0.00  0.00     0.100 H 
ATOM     53  H   IDU d1623      66.121  40.851  35.057  0.00  0.00     0.097 H 
ATOM     54  H   IDU d1623      65.977  39.249  36.986  0.00  0.00     0.133 H 
ATOM     55  H   IDU d1623      67.795  38.887  36.456  0.00  0.00     0.210 HD
ENDROOT
TORSDOF 16
ENDMDL
MODEL 33
REMARK VINA RESULT:      -4.8      2.622      6.849
REMARK  0 active torsions:
REMARK  status: ('A' for Active; 'I' for Inactive)
REMARK       I    between atoms: O2S_2  and  S1_19 
REMARK       I    between atoms: C3_3  and  O3_35 
REMARK       I    between atoms: O2_5  and  C2_22 
REMARK       I    between atoms: O2_5  and  S_7 
REMARK       I    between atoms: O1_6  and  C1_12 
REMARK       I    between atoms: O4_8  and  C1_32 
REMARK       I    between atoms: O4_8  and  C4_20 
REMARK       I    between atoms: C5_10  and  C6_33 
REMARK       I    between atoms: C5_14  and  C6_23 
REMARK       I    between atoms: O3_17  and  C3_31 
REMARK       I    between atoms: S1_19  and  N_30 
REMARK       I    between atoms: S1_19  and  O1S_28 
REMARK       I    between atoms: S1_19  and  O3S_25 
REMARK       I    between atoms: S2_21  and  O6_29 
REMARK       I    between atoms: C2_24  and  N_30 
REMARK       I    between atoms: O6_29  and  C6_33 
ROOT
ATOM      1  O5S SGN d5702      63.948  38.920  40.320  0.00  0.00    -0.572 OA
ATOM      2  O2S SGN d5702      67.811  37.654  30.666  0.00  0.00    -0.296 OA
ATOM      3  O1  SGN d5702      67.558  38.368  35.449  0.00  0.00    -0.369 OA
ATOM      4  O4  SGN d5702      64.311  41.658  35.818  0.00  0.00    -0.348 OA
ATOM      5  O5  SGN d5702      65.272  38.150  35.857  0.00  0.00    -0.350 OA
ATOM      6  C5  SGN d5702      64.991  39.428  36.375  0.00  0.00     0.091 C 
ATOM      7  O4S SGN d5702      64.317  41.194  40.688  0.00  0.00    -0.572 OA
ATOM      8  C1  SGN d5702      66.306  38.082  34.872  0.00  0.00     0.147 C 
ATOM      9  O3  SGN d5702      65.495  41.266  33.149  0.00  0.00    -0.391 OA
ATOM     10  S1  SGN d5702      66.620  37.927  31.403  0.00  0.00     0.156 S 
ATOM     11  C4  SGN d5702      64.602  40.367  35.215  0.00  0.00     0.095 C 
ATOM     12  S2  SGN d5702      63.613  40.247  39.886  0.00  0.00     0.251 S 
ATOM     13  C2  SGN d5702      65.963  39.020  33.729  0.00  0.00     0.081 C 
ATOM     14  O3S SGN d5702      65.647  38.686  30.641  0.00  0.00    -0.296 OA
ATOM     15  O1S SGN d5702      66.116  36.664  31.902  0.00  0.00    -0.296 OA
ATOM     16  O6  SGN d5702      64.035  40.399  38.214  0.00  0.00    -0.254 OA
ATOM     17  N   SGN d5702      67.028  38.951  32.783  0.00  0.00    -0.210 NA
ATOM     18  C3  SGN d5702      65.805  40.429  34.237  0.00  0.00     0.083 C 
ATOM     19  C6  SGN d5702      63.883  39.269  37.369  0.00  0.00     0.067 C 
ATOM     20  O6S SGN d5702      62.207  40.523  39.946  0.00  0.00    -0.572 OA
ATOM     21  H   SGN d5702      68.424  37.147  31.221  0.00  0.00     0.231 HD
ATOM     22  H   SGN d5702      67.730  37.743  36.172  0.00  0.00     0.212 HD
ATOM     23  H   SGN d5702      65.839  39.862  36.862  0.00  0.00     0.090 H 
ATOM     24  H   SGN d5702      66.376  37.090  34.476  0.00  0.00     0.131 H 
ATOM     25  H   SGN d5702      65.390  42.177  33.463  0.00  0.00     0.210 HD
ATOM     26  H   SGN d5702      63.747  40.038  34.661  0.00  0.00     0.091 H 
ATOM     27  H   SGN d5702      65.037  38.733  33.274  0.00  0.00     0.076 H 
ATOM     28  H   SGN d5702      66.049  39.516  30.338  0.00  0.00     0.231 HD
ATOM     29  H   SGN d5702      66.814  36.210  32.398  0.00  0.00     0.231 HD
ATOM     30  H   SGN d5702      67.230  39.893  32.446  0.00  0.00     0.140 HD
ATOM     31  H   SGN d5702      66.687  40.805  34.711  0.00  0.00     0.089 H 
ATOM     32  H   SGN d5702      63.994  38.359  37.922  0.00  0.00     0.080 H 
ATOM     33  H   SGN d5702      62.917  39.215  36.913  0.00  0.00     0.080 H 
ATOM     34  C3  IDU d1623      64.755  45.411  35.712  0.00  0.00     0.069 C 
ATOM     35  O1S IDU d1623      60.573  44.842  37.151  0.00  0.00    -0.572 OA
ATOM     36  O2  IDU d1623      62.806  44.078  36.197  0.00  0.00    -0.244 OA
ATOM     37  S   IDU d1623      61.974  45.017  37.392  0.00  0.00     0.252 S 
ATOM     38  C4  IDU d1623      64.207  45.628  34.293  0.00  0.00    -0.005 C 
ATOM     39  C5  IDU d1623      64.634  44.459  33.390  0.00  0.00     0.127 C 
ATOM     40  O3S IDU d1623      62.377  44.638  38.694  0.00  0.00    -0.572 OA
ATOM     41  O5  IDU d1623      64.146  43.201  33.979  0.00  0.00    -0.343 OA
ATOM     42  O61 IDU d1623      64.392  45.721  31.412  0.00  0.00    -0.646 OA
ATOM     43  C2  IDU d1623      64.214  44.067  36.223  0.00  0.00     0.132 C 
ATOM     44  C6  IDU d1623      64.054  44.686  32.021  0.00  0.00     0.203 C 
ATOM     45  O62 IDU d1623      63.274  43.835  31.567  0.00  0.00    -0.646 OA
ATOM     46  O2S IDU d1623      62.305  46.428  37.264  0.00  0.00    -0.572 OA
ATOM     47  C1  IDU d1623      64.685  42.922  35.311  0.00  0.00     0.161 C 
ATOM     48  O3  IDU d1623      66.155  45.382  35.674  0.00  0.00    -0.393 OA
ATOM     49  H   IDU d1623      64.450  46.204  36.363  0.00  0.00     0.087 H 
ATOM     50  H   IDU d1623      64.595  46.543  33.898  0.00  0.00     0.041 H 
ATOM     51  H   IDU d1623      63.139  45.677  34.329  0.00  0.00     0.041 H 
ATOM     52  H   IDU d1623      65.699  44.398  33.309  0.00  0.00     0.100 H 
ATOM     53  H   IDU d1623      64.573  43.920  37.220  0.00  0.00     0.097 H 
ATOM     54  H   IDU d1623      65.753  42.877  35.264  0.00  0.00     0.133 H 
ATOM     55  H   IDU d1623      66.447  44.667  35.088  0.00  0.00     0.210 HD
ENDROOT
TORSDOF 16
ENDMDL
MODEL 34
REMARK VINA RESULT:      -4.8      3.281      4.215
REMARK  0 active torsions:
REMARK  status: ('A' for Active; 'I' for Inactive)
REMARK       I    between atoms: O2S_2  and  S1_19 
REMARK       I    between atoms: C3_3  and  O3_35 
REMARK       I    between atoms: O2_5  and  C2_22 
REMARK       I    between atoms: O2_5  and  S_7 
REMARK       I    between atoms: O1_6  and  C1_12 
REMARK       I    between atoms: O4_8  and  C1_32 
REMARK       I    between atoms: O4_8  and  C4_20 
REMARK       I    between atoms: C5_10  and  C6_33 
REMARK       I    between atoms: C5_14  and  C6_23 
REMARK       I    between atoms: O3_17  and  C3_31 
REMARK       I    between atoms: S1_19  and  N_30 
REMARK       I    between atoms: S1_19  and  O1S_28 
REMARK       I    between atoms: S1_19  and  O3S_25 
REMARK       I    between atoms: S2_21  and  O6_29 
REMARK       I    between atoms: C2_24  and  N_30 
REMARK       I    between atoms: O6_29  and  C6_33 
ROOT
ATOM      1  O5S SGN d5702      61.998  35.155  39.298  0.00  0.00    -0.572 OA
ATOM      2  O2S SGN d5702      59.756  44.387  34.884  0.00  0.00    -0.296 OA
ATOM      3  O1  SGN d5702      60.250  39.614  35.539  0.00  0.00    -0.369 OA
ATOM      4  O4  SGN d5702      64.572  39.254  37.182  0.00  0.00    -0.348 OA
ATOM      5  O5  SGN d5702      60.987  39.496  37.749  0.00  0.00    -0.350 OA
ATOM      6  C5  SGN d5702      62.235  38.875  37.560  0.00  0.00     0.091 C 
ATOM      7  O4S SGN d5702      63.885  34.497  38.096  0.00  0.00    -0.572 OA
ATOM      8  C1  SGN d5702      60.546  40.359  36.696  0.00  0.00     0.147 C 
ATOM      9  O3  SGN d5702      63.866  41.797  35.875  0.00  0.00    -0.391 OA
ATOM     10  S1  SGN d5702      60.462  43.765  35.956  0.00  0.00     0.156 S 
ATOM     11  C4  SGN d5702      63.312  39.960  37.355  0.00  0.00     0.095 C 
ATOM     12  S2  SGN d5702      63.364  35.474  38.995  0.00  0.00     0.251 S 
ATOM     13  C2  SGN d5702      61.602  41.422  36.453  0.00  0.00     0.081 C 
ATOM     14  O3S SGN d5702      61.598  44.544  36.411  0.00  0.00    -0.296 OA
ATOM     15  O1S SGN d5702      59.500  43.471  37.000  0.00  0.00    -0.296 OA
ATOM     16  O6  SGN d5702      63.416  37.060  38.302  0.00  0.00    -0.254 OA
ATOM     17  N   SGN d5702      61.145  42.242  35.380  0.00  0.00    -0.210 NA
ATOM     18  C3  SGN d5702      62.918  40.781  36.098  0.00  0.00     0.083 C 
ATOM     19  C6  SGN d5702      62.500  38.038  38.772  0.00  0.00     0.067 C 
ATOM     20  O6S SGN d5702      64.199  35.544  40.158  0.00  0.00    -0.572 OA
ATOM     21  H   SGN d5702      59.010  43.826  34.621  0.00  0.00     0.231 HD
ATOM     22  H   SGN d5702      59.573  38.951  35.746  0.00  0.00     0.212 HD
ATOM     23  H   SGN d5702      62.248  38.249  36.692  0.00  0.00     0.090 H 
ATOM     24  H   SGN d5702      59.639  40.852  36.978  0.00  0.00     0.131 H 
ATOM     25  H   SGN d5702      64.719  41.398  35.645  0.00  0.00     0.210 HD
ATOM     26  H   SGN d5702      63.401  40.640  38.175  0.00  0.00     0.091 H 
ATOM     27  H   SGN d5702      61.753  42.008  37.336  0.00  0.00     0.076 H 
ATOM     28  H   SGN d5702      62.199  44.704  35.666  0.00  0.00     0.231 HD
ATOM     29  H   SGN d5702      58.770  42.951  36.630  0.00  0.00     0.231 HD
ATOM     30  H   SGN d5702      61.932  42.446  34.764  0.00  0.00     0.140 HD
ATOM     31  H   SGN d5702      62.865  40.171  35.222  0.00  0.00     0.089 H 
ATOM     32  H   SGN d5702      61.599  37.580  39.125  0.00  0.00     0.080 H 
ATOM     33  H   SGN d5702      62.880  38.604  39.596  0.00  0.00     0.080 H 
ATOM     34  C3  IDU d1623      67.794  38.889  35.240  0.00  0.00     0.069 C 
ATOM     35  O1S IDU d1623      68.950  38.009  39.455  0.00  0.00    -0.572 OA
ATOM     36  O2  IDU d1623      67.375  38.782  37.611  0.00  0.00    -0.244 OA
ATOM     37  S   IDU d1623      68.510  37.592  38.158  0.00  0.00     0.252 S 
ATOM     38  C4  IDU d1623      68.297  40.328  35.433  0.00  0.00    -0.005 C 
ATOM     39  C5  IDU d1623      67.107  41.301  35.388  0.00  0.00     0.127 C 
ATOM     40  O3S IDU d1623      67.927  36.303  38.144  0.00  0.00    -0.572 OA
ATOM     41  O5  IDU d1623      66.140  40.916  36.428  0.00  0.00    -0.343 OA
ATOM     42  O61 IDU d1623      68.460  43.142  34.796  0.00  0.00    -0.646 OA
ATOM     43  C2  IDU d1623      66.774  38.596  36.351  0.00  0.00     0.132 C 
ATOM     44  C6  IDU d1623      67.630  42.694  35.613  0.00  0.00     0.203 C 
ATOM     45  O62 IDU d1623      67.209  43.326  36.594  0.00  0.00    -0.646 OA
ATOM     46  O2S IDU d1623      69.657  37.523  37.267  0.00  0.00    -0.572 OA
ATOM     47  C1  IDU d1623      65.589  39.570  36.255  0.00  0.00     0.161 C 
ATOM     48  O3  IDU d1623      67.185  38.771  33.984  0.00  0.00    -0.393 OA
ATOM     49  H   IDU d1623      68.606  38.194  35.290  0.00  0.00     0.087 H 
ATOM     50  H   IDU d1623      68.986  40.573  34.651  0.00  0.00     0.041 H 
ATOM     51  H   IDU d1623      68.786  40.409  36.380  0.00  0.00     0.041 H 
ATOM     52  H   IDU d1623      66.611  41.268  34.441  0.00  0.00     0.100 H 
ATOM     53  H   IDU d1623      66.437  37.588  36.237  0.00  0.00     0.097 H 
ATOM     54  H   IDU d1623      65.104  39.501  35.303  0.00  0.00     0.133 H 
ATOM     55  H   IDU d1623      66.446  39.396  33.924  0.00  0.00     0.210 HD
ENDROOT
TORSDOF 16
ENDMDL
MODEL 35
REMARK VINA RESULT:      -4.8      2.721      6.904
REMARK  0 active torsions:
REMARK  status: ('A' for Active; 'I' for Inactive)
REMARK       I    between atoms: O2S_2  and  S1_19 
REMARK       I    between atoms: C3_3  and  O3_35 
REMARK       I    between atoms: O2_5  and  C2_22 
REMARK       I    between atoms: O2_5  and  S_7 
REMARK       I    between atoms: O1_6  and  C1_12 
REMARK       I    between atoms: O4_8  and  C1_32 
REMARK       I    between atoms: O4_8  and  C4_20 
REMARK       I    between atoms: C5_10  and  C6_33 
REMARK       I    between atoms: C5_14  and  C6_23 
REMARK       I    between atoms: O3_17  and  C3_31 
REMARK       I    between atoms: S1_19  and  N_30 
REMARK       I    between atoms: S1_19  and  O1S_28 
REMARK       I    between atoms: S1_19  and  O3S_25 
REMARK       I    between atoms: S2_21  and  O6_29 
REMARK       I    between atoms: C2_24  and  N_30 
REMARK       I    between atoms: O6_29  and  C6_33 
ROOT
ATOM      1  O5S SGN d5702      65.019  37.570  39.546  0.00  0.00    -0.572 OA
ATOM      2  O2S SGN d5702      70.000  36.787  30.364  0.00  0.00    -0.296 OA
ATOM      3  O1  SGN d5702      69.070  37.801  35.007  0.00  0.00    -0.369 OA
ATOM      4  O4  SGN d5702      64.922  39.863  34.789  0.00  0.00    -0.348 OA
ATOM      5  O5  SGN d5702      66.945  36.883  35.294  0.00  0.00    -0.350 OA
ATOM      6  C5  SGN d5702      66.222  38.039  35.641  0.00  0.00     0.091 C 
ATOM      7  O4S SGN d5702      64.604  39.863  39.671  0.00  0.00    -0.572 OA
ATOM      8  C1  SGN d5702      68.037  37.071  34.389  0.00  0.00     0.147 C 
ATOM      9  O3  SGN d5702      66.421  39.645  32.263  0.00  0.00    -0.391 OA
ATOM     10  S1  SGN d5702      68.719  36.719  30.988  0.00  0.00     0.156 S 
ATOM     11  C4  SGN d5702      65.667  38.691  34.359  0.00  0.00     0.095 C 
ATOM     12  S2  SGN d5702      64.321  38.669  38.941  0.00  0.00     0.251 S 
ATOM     13  C2  SGN d5702      67.525  37.738  33.126  0.00  0.00     0.081 C 
ATOM     14  O3S SGN d5702      67.633  37.046  30.084  0.00  0.00    -0.296 OA
ATOM     15  O1S SGN d5702      68.599  35.409  31.597  0.00  0.00    -0.296 OA
ATOM     16  O6  SGN d5702      64.832  38.802  37.293  0.00  0.00    -0.254 OA
ATOM     17  N   SGN d5702      68.642  37.938  32.264  0.00  0.00    -0.210 NA
ATOM     18  C3  SGN d5702      66.876  39.057  33.457  0.00  0.00     0.083 C 
ATOM     19  C6  SGN d5702      65.132  37.614  36.576  0.00  0.00     0.067 C 
ATOM     20  O6S SGN d5702      62.902  38.474  38.881  0.00  0.00    -0.572 OA
ATOM     21  H   SGN d5702      70.686  36.561  31.011  0.00  0.00     0.231 HD
ATOM     22  H   SGN d5702      69.362  37.335  35.806  0.00  0.00     0.212 HD
ATOM     23  H   SGN d5702      66.835  38.769  36.127  0.00  0.00     0.090 H 
ATOM     24  H   SGN d5702      68.458  36.125  34.116  0.00  0.00     0.131 H 
ATOM     25  H   SGN d5702      66.001  40.496  32.462  0.00  0.00     0.210 HD
ATOM     26  H   SGN d5702      65.020  38.052  33.794  0.00  0.00     0.091 H 
ATOM     27  H   SGN d5702      66.788  37.124  32.651  0.00  0.00     0.076 H 
ATOM     28  H   SGN d5702      67.775  37.930  29.714  0.00  0.00     0.231 HD
ATOM     29  H   SGN d5702      69.354  35.256  32.186  0.00  0.00     0.231 HD
ATOM     30  H   SGN d5702      68.565  38.860  31.833  0.00  0.00     0.140 HD
ATOM     31  H   SGN d5702      67.541  39.742  33.939  0.00  0.00     0.089 H 
ATOM     32  H   SGN d5702      65.473  36.844  37.236  0.00  0.00     0.080 H 
ATOM     33  H   SGN d5702      64.283  37.206  36.069  0.00  0.00     0.080 H 
ATOM     34  C3  IDU d1623      64.151  43.529  34.278  0.00  0.00     0.069 C 
ATOM     35  O1S IDU d1623      60.252  41.750  35.507  0.00  0.00    -0.572 OA
ATOM     36  O2  IDU d1623      62.693  41.679  34.790  0.00  0.00    -0.244 OA
ATOM     37  S   IDU d1623      61.493  42.395  35.813  0.00  0.00     0.252 S 
ATOM     38  C4  IDU d1623      63.703  43.427  32.811  0.00  0.00    -0.005 C 
ATOM     39  C5  IDU d1623      64.566  42.387  32.078  0.00  0.00     0.127 C 
ATOM     40  O3S IDU d1623      61.868  42.287  37.174  0.00  0.00    -0.572 OA
ATOM     41  O5  IDU d1623      64.451  41.097  32.777  0.00  0.00    -0.343 OA
ATOM     42  O61 IDU d1623      64.126  43.319  29.956  0.00  0.00    -0.646 OA
ATOM     43  C2  IDU d1623      64.021  42.132  34.906  0.00  0.00     0.132 C 
ATOM     44  C6  IDU d1623      64.080  42.288  30.658  0.00  0.00     0.203 C 
ATOM     45  O62 IDU d1623      63.661  41.191  30.258  0.00  0.00    -0.646 OA
ATOM     46  O2S IDU d1623      61.367  43.820  35.544  0.00  0.00    -0.572 OA
ATOM     47  C1  IDU d1623      64.920  41.130  34.164  0.00  0.00     0.161 C 
ATOM     48  O3  IDU d1623      65.483  43.958  34.330  0.00  0.00    -0.393 OA
ATOM     49  H   IDU d1623      63.547  44.232  34.811  0.00  0.00     0.087 H 
ATOM     50  H   IDU d1623      63.814  44.380  32.337  0.00  0.00     0.041 H 
ATOM     51  H   IDU d1623      62.677  43.126  32.774  0.00  0.00     0.041 H 
ATOM     52  H   IDU d1623      65.598  42.672  32.071  0.00  0.00     0.100 H 
ATOM     53  H   IDU d1623      64.310  42.201  35.933  0.00  0.00     0.097 H 
ATOM     54  H   IDU d1623      65.946  41.433  34.188  0.00  0.00     0.133 H 
ATOM     55  H   IDU d1623      66.044  43.329  33.850  0.00  0.00     0.210 HD
ENDROOT
TORSDOF 16
ENDMDL
MODEL 36
REMARK VINA RESULT:      -4.8      2.972      6.301
REMARK  0 active torsions:
REMARK  status: ('A' for Active; 'I' for Inactive)
REMARK       I    between atoms: O2S_2  and  S1_19 
REMARK       I    between atoms: C3_3  and  O3_35 
REMARK       I    between atoms: O2_5  and  C2_22 
REMARK       I    between atoms: O2_5  and  S_7 
REMARK       I    between atoms: O1_6  and  C1_12 
REMARK       I    between atoms: O4_8  and  C1_32 
REMARK       I    between atoms: O4_8  and  C4_20 
REMARK       I    between atoms: C5_10  and  C6_33 
REMARK       I    between atoms: C5_14  and  C6_23 
REMARK       I    between atoms: O3_17  and  C3_31 
REMARK       I    between atoms: S1_19  and  N_30 
REMARK       I    between atoms: S1_19  and  O1S_28 
REMARK       I    between atoms: S1_19  and  O3S_25 
REMARK       I    between atoms: S2_21  and  O6_29 
REMARK       I    between atoms: C2_24  and  N_30 
REMARK       I    between atoms: O6_29  and  C6_33 
ROOT
ATOM      1  O5S SGN d5702      62.931  44.877  35.582  0.00  0.00    -0.572 OA
ATOM      2  O2S SGN d5702      62.270  37.292  42.776  0.00  0.00    -0.296 OA
ATOM      3  O1  SGN d5702      63.616  41.345  40.494  0.00  0.00    -0.369 OA
ATOM      4  O4  SGN d5702      64.455  39.856  36.182  0.00  0.00    -0.348 OA
ATOM      5  O5  SGN d5702      62.215  41.346  38.629  0.00  0.00    -0.350 OA
ATOM      6  C5  SGN d5702      63.173  41.302  37.600  0.00  0.00     0.091 C 
ATOM      7  O4S SGN d5702      65.027  44.464  34.643  0.00  0.00    -0.572 OA
ATOM      8  C1  SGN d5702      62.562  40.676  39.844  0.00  0.00     0.147 C 
ATOM      9  O3  SGN d5702      64.305  37.797  38.284  0.00  0.00    -0.391 OA
ATOM     10  S1  SGN d5702      61.949  37.631  41.428  0.00  0.00     0.156 S 
ATOM     11  C4  SGN d5702      63.476  39.829  37.257  0.00  0.00     0.095 C 
ATOM     12  S2  SGN d5702      63.714  43.937  34.832  0.00  0.00     0.251 S 
ATOM     13  C2  SGN d5702      62.893  39.228  39.532  0.00  0.00     0.081 C 
ATOM     14  O3S SGN d5702      61.852  36.471  40.563  0.00  0.00    -0.296 OA
ATOM     15  O1S SGN d5702      60.749  38.442  41.456  0.00  0.00    -0.296 OA
ATOM     16  O6  SGN d5702      63.755  42.441  35.702  0.00  0.00    -0.254 OA
ATOM     17  N   SGN d5702      63.265  38.600  40.757  0.00  0.00    -0.210 NA
ATOM     18  C3  SGN d5702      64.025  39.151  38.541  0.00  0.00     0.083 C 
ATOM     19  C6  SGN d5702      62.604  42.048  36.434  0.00  0.00     0.067 C 
ATOM     20  O6S SGN d5702      63.143  43.616  33.556  0.00  0.00    -0.572 OA
ATOM     21  H   SGN d5702      62.323  38.101  43.308  0.00  0.00     0.231 HD
ATOM     22  H   SGN d5702      63.356  42.263  40.670  0.00  0.00     0.212 HD
ATOM     23  H   SGN d5702      64.098  41.756  37.888  0.00  0.00     0.090 H 
ATOM     24  H   SGN d5702      61.734  40.687  40.522  0.00  0.00     0.131 H 
ATOM     25  H   SGN d5702      65.033  37.734  37.646  0.00  0.00     0.210 HD
ATOM     26  H   SGN d5702      62.619  39.275  36.936  0.00  0.00     0.091 H 
ATOM     27  H   SGN d5702      62.047  38.735  39.099  0.00  0.00     0.076 H 
ATOM     28  H   SGN d5702      62.685  35.975  40.592  0.00  0.00     0.231 HD
ATOM     29  H   SGN d5702      60.882  39.196  42.051  0.00  0.00     0.231 HD
ATOM     30  H   SGN d5702      64.067  37.993  40.586  0.00  0.00     0.140 HD
ATOM     31  H   SGN d5702      64.920  39.621  38.889  0.00  0.00     0.089 H 
ATOM     32  H   SGN d5702      62.048  42.902  36.760  0.00  0.00     0.080 H 
ATOM     33  H   SGN d5702      61.921  41.461  35.855  0.00  0.00     0.080 H 
ATOM     34  C3  IDU d1623      67.682  38.492  34.761  0.00  0.00     0.069 C 
ATOM     35  O1S IDU d1623      65.115  39.187  31.182  0.00  0.00    -0.572 OA
ATOM     36  O2  IDU d1623      65.599  39.032  33.677  0.00  0.00    -0.244 OA
ATOM     37  S   IDU d1623      66.102  39.619  32.126  0.00  0.00     0.252 S 
ATOM     38  C4  IDU d1623      67.269  37.013  34.735  0.00  0.00    -0.005 C 
ATOM     39  C5  IDU d1623      66.407  36.695  35.968  0.00  0.00     0.127 C 
ATOM     40  O3S IDU d1623      66.281  41.022  32.158  0.00  0.00    -0.572 OA
ATOM     41  O5  IDU d1623      65.238  37.590  35.973  0.00  0.00    -0.343 OA
ATOM     42  O61 IDU d1623      66.894  34.388  35.883  0.00  0.00    -0.646 OA
ATOM     43  C2  IDU d1623      66.399  39.337  34.794  0.00  0.00     0.132 C 
ATOM     44  C6  IDU d1623      65.992  35.251  35.894  0.00  0.00     0.203 C 
ATOM     45  O62 IDU d1623      64.780  34.991  35.848  0.00  0.00    -0.646 OA
ATOM     46  O2S IDU d1623      67.392  39.058  31.755  0.00  0.00    -0.572 OA
ATOM     47  C1  IDU d1623      65.580  39.011  36.054  0.00  0.00     0.161 C 
ATOM     48  O3  IDU d1623      68.452  38.743  35.904  0.00  0.00    -0.393 OA
ATOM     49  H   IDU d1623      68.265  38.739  33.899  0.00  0.00     0.087 H 
ATOM     50  H   IDU d1623      68.145  36.398  34.745  0.00  0.00     0.041 H 
ATOM     51  H   IDU d1623      66.705  36.818  33.848  0.00  0.00     0.041 H 
ATOM     52  H   IDU d1623      66.951  36.852  36.876  0.00  0.00     0.100 H 
ATOM     53  H   IDU d1623      66.679  40.369  34.789  0.00  0.00     0.097 H 
ATOM     54  H   IDU d1623      66.145  39.194  36.944  0.00  0.00     0.133 H 
ATOM     55  H   IDU d1623      67.936  38.524  36.696  0.00  0.00     0.210 HD
ENDROOT
TORSDOF 16
ENDMDL
MODEL 37
REMARK VINA RESULT:      -4.8      2.815      6.319
REMARK  0 active torsions:
REMARK  status: ('A' for Active; 'I' for Inactive)
REMARK       I    between atoms: O2S_2  and  S1_19 
REMARK       I    between atoms: C3_3  and  O3_35 
REMARK       I    between atoms: O2_5  and  C2_22 
REMARK       I    between atoms: O2_5  and  S_7 
REMARK       I    between atoms: O1_6  and  C1_12 
REMARK       I    between atoms: O4_8  and  C1_32 
REMARK       I    between atoms: O4_8  and  C4_20 
REMARK       I    between atoms: C5_10  and  C6_33 
REMARK       I    between atoms: C5_14  and  C6_23 
REMARK       I    between atoms: O3_17  and  C3_31 
REMARK       I    between atoms: S1_19  and  N_30 
REMARK       I    between atoms: S1_19  and  O1S_28 
REMARK       I    between atoms: S1_19  and  O3S_25 
REMARK       I    between atoms: S2_21  and  O6_29 
REMARK       I    between atoms: C2_24  and  N_30 
REMARK       I    between atoms: O6_29  and  C6_33 
ROOT
ATOM      1  O5S SGN d5702      66.560  37.510  32.016  0.00  0.00    -0.572 OA
ATOM      2  O2S SGN d5702      64.888  36.788  42.332  0.00  0.00    -0.296 OA
ATOM      3  O1  SGN d5702      64.447  36.124  37.556  0.00  0.00    -0.369 OA
ATOM      4  O4  SGN d5702      64.551  40.459  35.911  0.00  0.00    -0.348 OA
ATOM      5  O5  SGN d5702      66.250  37.347  36.722  0.00  0.00    -0.350 OA
ATOM      6  C5  SGN d5702      65.565  38.287  35.930  0.00  0.00     0.091 C 
ATOM      7  O4S SGN d5702      64.725  38.771  31.322  0.00  0.00    -0.572 OA
ATOM      8  C1  SGN d5702      65.571  36.899  37.899  0.00  0.00     0.147 C 
ATOM      9  O3  SGN d5702      64.033  40.154  38.794  0.00  0.00    -0.391 OA
ATOM     10  S1  SGN d5702      65.548  37.551  41.324  0.00  0.00     0.156 S 
ATOM     11  C4  SGN d5702      65.240  39.526  36.789  0.00  0.00     0.095 C 
ATOM     12  S2  SGN d5702      65.909  38.785  32.118  0.00  0.00     0.251 S 
ATOM     13  C2  SGN d5702      65.213  38.103  38.751  0.00  0.00     0.081 C 
ATOM     14  O3S SGN d5702      65.759  38.933  41.710  0.00  0.00    -0.296 OA
ATOM     15  O1S SGN d5702      66.766  36.850  40.971  0.00  0.00    -0.296 OA
ATOM     16  O6  SGN d5702      65.545  39.083  33.784  0.00  0.00    -0.254 OA
ATOM     17  N   SGN d5702      64.511  37.624  39.896  0.00  0.00    -0.210 NA
ATOM     18  C3  SGN d5702      64.349  39.058  37.970  0.00  0.00     0.083 C 
ATOM     19  C6  SGN d5702      66.453  38.620  34.772  0.00  0.00     0.067 C 
ATOM     20  O6S SGN d5702      66.742  39.879  31.713  0.00  0.00    -0.572 OA
ATOM     21  H   SGN d5702      64.773  35.876  42.022  0.00  0.00     0.231 HD
ATOM     22  H   SGN d5702      64.728  35.370  37.013  0.00  0.00     0.212 HD
ATOM     23  H   SGN d5702      64.637  37.905  35.561  0.00  0.00     0.090 H 
ATOM     24  H   SGN d5702      66.211  36.264  38.476  0.00  0.00     0.131 H 
ATOM     25  H   SGN d5702      63.476  40.778  38.303  0.00  0.00     0.210 HD
ATOM     26  H   SGN d5702      66.103  40.006  37.201  0.00  0.00     0.091 H 
ATOM     27  H   SGN d5702      66.097  38.630  39.045  0.00  0.00     0.076 H 
ATOM     28  H   SGN d5702      64.908  39.341  41.932  0.00  0.00     0.231 HD
ATOM     29  H   SGN d5702      66.553  35.936  40.725  0.00  0.00     0.231 HD
ATOM     30  H   SGN d5702      63.729  38.250  40.088  0.00  0.00     0.140 HD
ATOM     31  H   SGN d5702      63.435  38.617  37.631  0.00  0.00     0.089 H 
ATOM     32  H   SGN d5702      66.980  37.752  34.432  0.00  0.00     0.080 H 
ATOM     33  H   SGN d5702      67.207  39.339  35.016  0.00  0.00     0.080 H 
ATOM     34  C3  IDU d1623      61.662  42.846  35.414  0.00  0.00     0.069 C 
ATOM     35  O1S IDU d1623      65.057  44.770  33.257  0.00  0.00    -0.572 OA
ATOM     36  O2  IDU d1623      63.980  43.041  34.784  0.00  0.00    -0.244 OA
ATOM     37  S   IDU d1623      63.910  43.913  33.288  0.00  0.00     0.252 S 
ATOM     38  C4  IDU d1623      61.953  43.751  36.621  0.00  0.00    -0.005 C 
ATOM     39  C5  IDU d1623      62.468  42.900  37.793  0.00  0.00     0.127 C 
ATOM     40  O3S IDU d1623      63.838  43.020  32.193  0.00  0.00    -0.572 OA
ATOM     41  O5  IDU d1623      63.668  42.167  37.357  0.00  0.00    -0.343 OA
ATOM     42  O61 IDU d1623      61.837  44.500  39.409  0.00  0.00    -0.646 OA
ATOM     43  C2  IDU d1623      62.962  42.108  35.057  0.00  0.00     0.132 C 
ATOM     44  C6  IDU d1623      62.775  43.819  38.944  0.00  0.00     0.203 C 
ATOM     45  O62 IDU d1623      63.939  43.854  39.372  0.00  0.00    -0.646 OA
ATOM     46  O2S IDU d1623      62.707  44.728  33.221  0.00  0.00    -0.572 OA
ATOM     47  C1  IDU d1623      63.427  41.248  36.243  0.00  0.00     0.161 C 
ATOM     48  O3  IDU d1623      60.663  41.925  35.751  0.00  0.00    -0.393 OA
ATOM     49  H   IDU d1623      61.323  43.423  34.579  0.00  0.00     0.087 H 
ATOM     50  H   IDU d1623      61.056  44.255  36.914  0.00  0.00     0.041 H 
ATOM     51  H   IDU d1623      62.697  44.472  36.353  0.00  0.00     0.041 H 
ATOM     52  H   IDU d1623      61.736  42.186  38.108  0.00  0.00     0.100 H 
ATOM     53  H   IDU d1623      62.772  41.493  34.203  0.00  0.00     0.097 H 
ATOM     54  H   IDU d1623      62.682  40.533  36.522  0.00  0.00     0.133 H 
ATOM     55  H   IDU d1623      60.956  41.393  36.508  0.00  0.00     0.210 HD
ENDROOT
TORSDOF 16
ENDMDL
MODEL 38
REMARK VINA RESULT:      -4.7      2.942      7.115
REMARK  0 active torsions:
REMARK  status: ('A' for Active; 'I' for Inactive)
REMARK       I    between atoms: O2S_2  and  S1_19 
REMARK       I    between atoms: C3_3  and  O3_35 
REMARK       I    between atoms: O2_5  and  C2_22 
REMARK       I    between atoms: O2_5  and  S_7 
REMARK       I    between atoms: O1_6  and  C1_12 
REMARK       I    between atoms: O4_8  and  C1_32 
REMARK       I    between atoms: O4_8  and  C4_20 
REMARK       I    between atoms: C5_10  and  C6_33 
REMARK       I    between atoms: C5_14  and  C6_23 
REMARK       I    between atoms: O3_17  and  C3_31 
REMARK       I    between atoms: S1_19  and  N_30 
REMARK       I    between atoms: S1_19  and  O1S_28 
REMARK       I    between atoms: S1_19  and  O3S_25 
REMARK       I    between atoms: S2_21  and  O6_29 
REMARK       I    between atoms: C2_24  and  N_30 
REMARK       I    between atoms: O6_29  and  C6_33 
ROOT
ATOM      1  O5S SGN d5702      66.595  37.735  31.096  0.00  0.00    -0.572 OA
ATOM      2  O2S SGN d5702      65.775  34.287  40.953  0.00  0.00    -0.296 OA
ATOM      3  O1  SGN d5702      64.995  34.838  36.206  0.00  0.00    -0.369 OA
ATOM      4  O4  SGN d5702      64.754  39.446  35.741  0.00  0.00    -0.348 OA
ATOM      5  O5  SGN d5702      66.663  36.354  35.607  0.00  0.00    -0.350 OA
ATOM      6  C5  SGN d5702      65.873  37.416  35.132  0.00  0.00     0.091 C 
ATOM      7  O4S SGN d5702      64.650  39.004  30.870  0.00  0.00    -0.572 OA
ATOM      8  C1  SGN d5702      66.102  35.575  36.668  0.00  0.00     0.147 C 
ATOM      9  O3  SGN d5702      64.479  38.380  38.473  0.00  0.00    -0.391 OA
ATOM     10  S1  SGN d5702      66.315  35.327  40.139  0.00  0.00     0.156 S 
ATOM     11  C4  SGN d5702      65.554  38.370  36.302  0.00  0.00     0.095 C 
ATOM     12  S2  SGN d5702      65.891  38.894  31.567  0.00  0.00     0.251 S 
ATOM     13  C2  SGN d5702      65.752  36.493  37.824  0.00  0.00     0.081 C 
ATOM     14  O3S SGN d5702      66.487  36.575  40.857  0.00  0.00    -0.296 OA
ATOM     15  O1S SGN d5702      67.535  34.823  39.540  0.00  0.00    -0.296 OA
ATOM     16  O6  SGN d5702      65.645  38.731  33.272  0.00  0.00    -0.254 OA
ATOM     17  N   SGN d5702      65.167  35.691  38.847  0.00  0.00    -0.210 NA
ATOM     18  C3  SGN d5702      64.783  37.555  37.375  0.00  0.00     0.083 C 
ATOM     19  C6  SGN d5702      66.650  38.094  34.046  0.00  0.00     0.067 C 
ATOM     20  O6S SGN d5702      66.635  40.110  31.408  0.00  0.00    -0.572 OA
ATOM     21  H   SGN d5702      65.681  33.479  40.425  0.00  0.00     0.231 HD
ATOM     22  H   SGN d5702      65.269  34.269  35.470  0.00  0.00     0.212 HD
ATOM     23  H   SGN d5702      64.938  37.079  34.735  0.00  0.00     0.090 H 
ATOM     24  H   SGN d5702      66.816  34.859  37.019  0.00  0.00     0.131 H 
ATOM     25  H   SGN d5702      63.855  39.069  38.197  0.00  0.00     0.210 HD
ATOM     26  H   SGN d5702      66.422  38.785  36.769  0.00  0.00     0.091 H 
ATOM     27  H   SGN d5702      66.629  36.987  38.189  0.00  0.00     0.076 H 
ATOM     28  H   SGN d5702      65.636  36.853  41.231  0.00  0.00     0.231 HD
ATOM     29  H   SGN d5702      67.349  33.991  39.079  0.00  0.00     0.231 HD
ATOM     30  H   SGN d5702      64.372  36.192  39.244  0.00  0.00     0.140 HD
ATOM     31  H   SGN d5702      63.869  37.154  36.991  0.00  0.00     0.089 H 
ATOM     32  H   SGN d5702      67.190  37.380  33.460  0.00  0.00     0.080 H 
ATOM     33  H   SGN d5702      67.384  38.776  34.421  0.00  0.00     0.080 H 
ATOM     34  C3  IDU d1623      61.720  41.678  36.065  0.00  0.00     0.069 C 
ATOM     35  O1S IDU d1623      64.835  44.317  34.273  0.00  0.00    -0.572 OA
ATOM     36  O2  IDU d1623      63.968  42.186  35.363  0.00  0.00    -0.244 OA
ATOM     37  S   IDU d1623      63.738  43.404  34.153  0.00  0.00     0.252 S 
ATOM     38  C4  IDU d1623      62.059  42.263  37.445  0.00  0.00    -0.005 C 
ATOM     39  C5  IDU d1623      62.706  41.177  38.321  0.00  0.00     0.127 C 
ATOM     40  O3S IDU d1623      63.625  42.818  32.870  0.00  0.00    -0.572 OA
ATOM     41  O5  IDU d1623      63.902  40.664  37.634  0.00  0.00    -0.343 OA
ATOM     42  O61 IDU d1623      62.125  42.263  40.333  0.00  0.00    -0.646 OA
ATOM     43  C2  IDU d1623      63.022  41.147  35.448  0.00  0.00     0.132 C 
ATOM     44  C6  IDU d1623      63.056  41.790  39.650  0.00  0.00     0.203 C 
ATOM     45  O62 IDU d1623      64.246  41.793  39.998  0.00  0.00    -0.646 OA
ATOM     46  O2S IDU d1623      62.494  44.125  34.375  0.00  0.00    -0.572 OA
ATOM     47  C1  IDU d1623      63.621  40.045  36.337  0.00  0.00     0.161 C 
ATOM     48  O3  IDU d1623      60.797  40.635  36.213  0.00  0.00    -0.393 OA
ATOM     49  H   IDU d1623      61.288  42.425  35.432  0.00  0.00     0.087 H 
ATOM     50  H   IDU d1623      61.163  42.612  37.915  0.00  0.00     0.041 H 
ATOM     51  H   IDU d1623      62.742  43.077  37.327  0.00  0.00     0.041 H 
ATOM     52  H   IDU d1623      62.037  40.358  38.484  0.00  0.00     0.100 H 
ATOM     53  H   IDU d1623      62.797  40.759  34.477  0.00  0.00     0.097 H 
ATOM     54  H   IDU d1623      62.936  39.234  36.468  0.00  0.00     0.133 H 
ATOM     55  H   IDU d1623      61.174  39.949  36.786  0.00  0.00     0.210 HD
ENDROOT
TORSDOF 16
ENDMDL
MODEL 39
REMARK VINA RESULT:      -4.7      4.906      8.196
REMARK  0 active torsions:
REMARK  status: ('A' for Active; 'I' for Inactive)
REMARK       I    between atoms: O2S_2  and  S1_19 
REMARK       I    between atoms: C3_3  and  O3_35 
REMARK       I    between atoms: O2_5  and  C2_22 
REMARK       I    between atoms: O2_5  and  S_7 
REMARK       I    between atoms: O1_6  and  C1_12 
REMARK       I    between atoms: O4_8  and  C1_32 
REMARK       I    between atoms: O4_8  and  C4_20 
REMARK       I    between atoms: C5_10  and  C6_33 
REMARK       I    between atoms: C5_14  and  C6_23 
REMARK       I    between atoms: O3_17  and  C3_31 
REMARK       I    between atoms: S1_19  and  N_30 
REMARK       I    between atoms: S1_19  and  O1S_28 
REMARK       I    between atoms: S1_19  and  O3S_25 
REMARK       I    between atoms: S2_21  and  O6_29 
REMARK       I    between atoms: C2_24  and  N_30 
REMARK       I    between atoms: O6_29  and  C6_33 
ROOT
ATOM      1  O5S SGN d5702      68.015  43.053  41.523  0.00  0.00    -0.572 OA
ATOM      2  O2S SGN d5702      59.546  41.738  35.500  0.00  0.00    -0.296 OA
ATOM      3  O1  SGN d5702      62.379  42.998  39.219  0.00  0.00    -0.369 OA
ATOM      4  O4  SGN d5702      64.823  39.133  39.994  0.00  0.00    -0.348 OA
ATOM      5  O5  SGN d5702      64.498  42.407  38.444  0.00  0.00    -0.350 OA
ATOM      6  C5  SGN d5702      64.862  41.459  39.418  0.00  0.00     0.091 C 
ATOM      7  O4S SGN d5702      67.641  41.496  43.220  0.00  0.00    -0.572 OA
ATOM      8  C1  SGN d5702      63.105  42.484  38.128  0.00  0.00     0.147 C 
ATOM      9  O3  SGN d5702      62.393  38.851  38.353  0.00  0.00    -0.391 OA
ATOM     10  S1  SGN d5702      60.899  41.328  35.688  0.00  0.00     0.156 S 
ATOM     11  C4  SGN d5702      64.404  40.061  38.956  0.00  0.00     0.095 C 
ATOM     12  S2  SGN d5702      67.876  41.656  41.821  0.00  0.00     0.251 S 
ATOM     13  C2  SGN d5702      62.620  41.113  37.696  0.00  0.00     0.081 C 
ATOM     14  O3S SGN d5702      61.164  40.000  35.168  0.00  0.00    -0.296 OA
ATOM     15  O1S SGN d5702      61.750  42.357  35.125  0.00  0.00    -0.296 OA
ATOM     16  O6  SGN d5702      66.564  41.024  40.885  0.00  0.00    -0.254 OA
ATOM     17  N   SGN d5702      61.225  41.220  37.421  0.00  0.00    -0.210 NA
ATOM     18  C3  SGN d5702      62.861  40.104  38.788  0.00  0.00     0.083 C 
ATOM     19  C6  SGN d5702      66.348  41.541  39.581  0.00  0.00     0.067 C 
ATOM     20  O6S SGN d5702      69.019  40.880  41.439  0.00  0.00    -0.572 OA
ATOM     21  H   SGN d5702      59.425  42.628  35.864  0.00  0.00     0.231 HD
ATOM     22  H   SGN d5702      62.727  43.872  39.456  0.00  0.00     0.212 HD
ATOM     23  H   SGN d5702      64.395  41.649  40.362  0.00  0.00     0.090 H 
ATOM     24  H   SGN d5702      62.948  43.162  37.315  0.00  0.00     0.131 H 
ATOM     25  H   SGN d5702      62.543  38.191  39.048  0.00  0.00     0.210 HD
ATOM     26  H   SGN d5702      64.825  39.755  38.021  0.00  0.00     0.091 H 
ATOM     27  H   SGN d5702      63.150  40.785  36.826  0.00  0.00     0.076 H 
ATOM     28  H   SGN d5702      60.563  39.364  35.585  0.00  0.00     0.231 HD
ATOM     29  H   SGN d5702      61.520  43.215  35.514  0.00  0.00     0.231 HD
ATOM     30  H   SGN d5702      60.752  40.396  37.794  0.00  0.00     0.140 HD
ATOM     31  H   SGN d5702      62.366  40.350  39.704  0.00  0.00     0.089 H 
ATOM     32  H   SGN d5702      66.685  42.554  39.510  0.00  0.00     0.080 H 
ATOM     33  H   SGN d5702      66.882  41.005  38.825  0.00  0.00     0.080 H 
ATOM     34  C3  IDU d1623      63.935  36.206  42.215  0.00  0.00     0.069 C 
ATOM     35  O1S IDU d1623      68.225  35.546  41.195  0.00  0.00    -0.572 OA
ATOM     36  O2  IDU d1623      65.962  36.695  41.006  0.00  0.00    -0.244 OA
ATOM     37  S   IDU d1623      67.201  36.074  42.045  0.00  0.00     0.252 S 
ATOM     38  C4  IDU d1623      63.548  35.227  41.096  0.00  0.00    -0.005 C 
ATOM     39  C5  IDU d1623      62.833  35.989  39.968  0.00  0.00     0.127 C 
ATOM     40  O3S IDU d1623      67.659  37.078  42.930  0.00  0.00    -0.572 OA
ATOM     41  O5  IDU d1623      63.721  37.056  39.479  0.00  0.00    -0.343 OA
ATOM     42  O61 IDU d1623      61.750  34.054  39.163  0.00  0.00    -0.646 OA
ATOM     43  C2  IDU d1623      64.833  37.290  41.600  0.00  0.00     0.132 C 
ATOM     44  C6  IDU d1623      62.499  35.009  38.876  0.00  0.00     0.203 C 
ATOM     45  O62 IDU d1623      62.982  35.201  37.749  0.00  0.00    -0.646 OA
ATOM     46  O2S IDU d1623      66.683  35.005  42.885  0.00  0.00    -0.572 OA
ATOM     47  C1  IDU d1623      64.073  38.047  40.498  0.00  0.00     0.161 C 
ATOM     48  O3  IDU d1623      62.778  36.785  42.750  0.00  0.00    -0.393 OA
ATOM     49  H   IDU d1623      64.454  35.698  43.001  0.00  0.00     0.087 H 
ATOM     50  H   IDU d1623      62.894  34.477  41.488  0.00  0.00     0.041 H 
ATOM     51  H   IDU d1623      64.431  34.765  40.707  0.00  0.00     0.041 H 
ATOM     52  H   IDU d1623      61.928  36.441  40.315  0.00  0.00     0.100 H 
ATOM     53  H   IDU d1623      65.125  37.962  42.379  0.00  0.00     0.097 H 
ATOM     54  H   IDU d1623      63.183  38.501  40.880  0.00  0.00     0.133 H 
ATOM     55  H   IDU d1623      62.296  37.250  42.049  0.00  0.00     0.210 HD
ENDROOT
TORSDOF 16
ENDMDL
MODEL 40
REMARK VINA RESULT:      -4.7      2.828      7.079
REMARK  0 active torsions:
REMARK  status: ('A' for Active; 'I' for Inactive)
REMARK       I    between atoms: O2S_2  and  S1_19 
REMARK       I    between atoms: C3_3  and  O3_35 
REMARK       I    between atoms: O2_5  and  C2_22 
REMARK       I    between atoms: O2_5  and  S_7 
REMARK       I    between atoms: O1_6  and  C1_12 
REMARK       I    between atoms: O4_8  and  C1_32 
REMARK       I    between atoms: O4_8  and  C4_20 
REMARK       I    between atoms: C5_10  and  C6_33 
REMARK       I    between atoms: C5_14  and  C6_23 
REMARK       I    between atoms: O3_17  and  C3_31 
REMARK       I    between atoms: S1_19  and  N_30 
REMARK       I    between atoms: S1_19  and  O1S_28 
REMARK       I    between atoms: S1_19  and  O3S_25 
REMARK       I    between atoms: S2_21  and  O6_29 
REMARK       I    between atoms: C2_24  and  N_30 
REMARK       I    between atoms: O6_29  and  C6_33 
ROOT
ATOM      1  O5S SGN d5702      67.848  36.023  39.052  0.00  0.00    -0.572 OA
ATOM      2  O2S SGN d5702      65.760  40.621  29.875  0.00  0.00    -0.296 OA
ATOM      3  O1  SGN d5702      67.992  39.416  34.000  0.00  0.00    -0.369 OA
ATOM      4  O4  SGN d5702      64.578  39.696  37.126  0.00  0.00    -0.348 OA
ATOM      5  O5  SGN d5702      66.609  37.734  34.833  0.00  0.00    -0.350 OA
ATOM      6  C5  SGN d5702      66.218  38.317  36.053  0.00  0.00     0.091 C 
ATOM      7  O4S SGN d5702      67.487  37.770  40.555  0.00  0.00    -0.572 OA
ATOM      8  C1  SGN d5702      66.847  38.637  33.750  0.00  0.00     0.147 C 
ATOM      9  O3  SGN d5702      64.102  41.007  34.531  0.00  0.00    -0.391 OA
ATOM     10  S1  SGN d5702      65.190  39.852  30.933  0.00  0.00     0.156 S 
ATOM     11  C4  SGN d5702      64.932  39.138  35.831  0.00  0.00     0.095 C 
ATOM     12  S2  SGN d5702      66.866  36.919  39.592  0.00  0.00     0.251 S 
ATOM     13  C2  SGN d5702      65.604  39.479  33.527  0.00  0.00     0.081 C 
ATOM     14  O3S SGN d5702      63.761  40.057  31.074  0.00  0.00    -0.296 OA
ATOM     15  O1S SGN d5702      65.563  38.468  30.718  0.00  0.00    -0.296 OA
ATOM     16  O6  SGN d5702      66.184  37.834  38.290  0.00  0.00    -0.254 OA
ATOM     17  N   SGN d5702      65.888  40.388  32.465  0.00  0.00    -0.210 NA
ATOM     18  C3  SGN d5702      65.252  40.235  34.781  0.00  0.00     0.083 C 
ATOM     19  C6  SGN d5702      66.015  37.201  37.031  0.00  0.00     0.067 C 
ATOM     20  O6S SGN d5702      65.756  36.244  40.200  0.00  0.00    -0.572 OA
ATOM     21  H   SGN d5702      66.712  40.446  29.826  0.00  0.00     0.231 HD
ATOM     22  H   SGN d5702      68.756  38.834  34.135  0.00  0.00     0.212 HD
ATOM     23  H   SGN d5702      66.959  38.987  36.436  0.00  0.00     0.090 H 
ATOM     24  H   SGN d5702      67.043  38.092  32.850  0.00  0.00     0.131 H 
ATOM     25  H   SGN d5702      63.864  41.500  35.332  0.00  0.00     0.210 HD
ATOM     26  H   SGN d5702      64.110  38.561  35.461  0.00  0.00     0.091 H 
ATOM     27  H   SGN d5702      64.770  38.857  33.276  0.00  0.00     0.076 H 
ATOM     28  H   SGN d5702      63.582  41.000  31.214  0.00  0.00     0.231 HD
ATOM     29  H   SGN d5702      66.527  38.403  30.632  0.00  0.00     0.231 HD
ATOM     30  H   SGN d5702      65.501  41.302  32.701  0.00  0.00     0.140 HD
ATOM     31  H   SGN d5702      66.032  40.889  35.110  0.00  0.00     0.089 H 
ATOM     32  H   SGN d5702      66.743  36.430  36.888  0.00  0.00     0.080 H 
ATOM     33  H   SGN d5702      65.063  36.724  36.927  0.00  0.00     0.080 H 
ATOM     34  C3  IDU d1623      63.460  42.713  39.111  0.00  0.00     0.069 C 
ATOM     35  O1S IDU d1623      61.380  39.285  41.062  0.00  0.00    -0.572 OA
ATOM     36  O2  IDU d1623      62.781  40.405  39.255  0.00  0.00    -0.244 OA
ATOM     37  S   IDU d1623      62.488  40.185  40.949  0.00  0.00     0.252 S 
ATOM     38  C4  IDU d1623      62.178  43.001  38.315  0.00  0.00    -0.005 C 
ATOM     39  C5  IDU d1623      62.420  42.711  36.824  0.00  0.00     0.127 C 
ATOM     40  O3S IDU d1623      63.658  39.730  41.603  0.00  0.00    -0.572 OA
ATOM     41  O5  IDU d1623      62.853  41.313  36.676  0.00  0.00    -0.343 OA
ATOM     42  O61 IDU d1623      60.663  44.124  36.126  0.00  0.00    -0.646 OA
ATOM     43  C2  IDU d1623      63.843  41.245  38.868  0.00  0.00     0.132 C 
ATOM     44  C6  IDU d1623      61.138  42.971  36.080  0.00  0.00     0.203 C 
ATOM     45  O62 IDU d1623      60.620  42.029  35.460  0.00  0.00    -0.646 OA
ATOM     46  O2S IDU d1623      62.141  41.448  41.581  0.00  0.00    -0.572 OA
ATOM     47  C1  IDU d1623      64.104  41.004  37.373  0.00  0.00     0.161 C 
ATOM     48  O3  IDU d1623      64.486  43.557  38.667  0.00  0.00    -0.393 OA
ATOM     49  H   IDU d1623      63.306  42.887  40.155  0.00  0.00     0.087 H 
ATOM     50  H   IDU d1623      61.905  44.028  38.438  0.00  0.00     0.041 H 
ATOM     51  H   IDU d1623      61.389  42.374  38.674  0.00  0.00     0.041 H 
ATOM     52  H   IDU d1623      63.185  43.343  36.423  0.00  0.00     0.100 H 
ATOM     53  H   IDU d1623      64.722  41.031  39.438  0.00  0.00     0.097 H 
ATOM     54  H   IDU d1623      64.884  41.637  37.006  0.00  0.00     0.133 H 
ATOM     55  H   IDU d1623      64.638  43.410  37.720  0.00  0.00     0.210 HD
ENDROOT
TORSDOF 16
ENDMDL
MODEL 41
REMARK VINA RESULT:      -4.7      3.048      4.288
REMARK  0 active torsions:
REMARK  status: ('A' for Active; 'I' for Inactive)
REMARK       I    between atoms: O2S_2  and  S1_19 
REMARK       I    between atoms: C3_3  and  O3_35 
REMARK       I    between atoms: O2_5  and  C2_22 
REMARK       I    between atoms: O2_5  and  S_7 
REMARK       I    between atoms: O1_6  and  C1_12 
REMARK       I    between atoms: O4_8  and  C1_32 
REMARK       I    between atoms: O4_8  and  C4_20 
REMARK       I    between atoms: C5_10  and  C6_33 
REMARK       I    between atoms: C5_14  and  C6_23 
REMARK       I    between atoms: O3_17  and  C3_31 
REMARK       I    between atoms: S1_19  and  N_30 
REMARK       I    between atoms: S1_19  and  O1S_28 
REMARK       I    between atoms: S1_19  and  O3S_25 
REMARK       I    between atoms: S2_21  and  O6_29 
REMARK       I    between atoms: C2_24  and  N_30 
REMARK       I    between atoms: O6_29  and  C6_33 
ROOT
ATOM      1  O5S SGN d5702      65.104  35.019  39.269  0.00  0.00    -0.572 OA
ATOM      2  O2S SGN d5702      60.958  43.548  43.718  0.00  0.00    -0.296 OA
ATOM      3  O1  SGN d5702      61.355  39.213  41.596  0.00  0.00    -0.369 OA
ATOM      4  O4  SGN d5702      64.204  40.077  38.040  0.00  0.00    -0.348 OA
ATOM      5  O5  SGN d5702      63.667  38.946  41.455  0.00  0.00    -0.350 OA
ATOM      6  C5  SGN d5702      63.820  38.845  40.060  0.00  0.00     0.091 C 
ATOM      7  O4S SGN d5702      64.487  35.297  37.036  0.00  0.00    -0.572 OA
ATOM      8  C1  SGN d5702      62.602  39.783  41.914  0.00  0.00     0.147 C 
ATOM      9  O3  SGN d5702      62.948  42.413  39.321  0.00  0.00    -0.391 OA
ATOM     10  S1  SGN d5702      62.142  43.021  43.122  0.00  0.00     0.156 S 
ATOM     11  C4  SGN d5702      64.039  40.254  39.474  0.00  0.00     0.095 C 
ATOM     12  S2  SGN d5702      65.259  35.845  38.104  0.00  0.00     0.251 S 
ATOM     13  C2  SGN d5702      62.777  41.172  41.329  0.00  0.00     0.081 C 
ATOM     14  O3S SGN d5702      62.981  44.046  42.531  0.00  0.00    -0.296 OA
ATOM     15  O1S SGN d5702      62.816  42.220  44.125  0.00  0.00    -0.296 OA
ATOM     16  O6  SGN d5702      64.741  37.449  38.498  0.00  0.00    -0.254 OA
ATOM     17  N   SGN d5702      61.684  41.968  41.780  0.00  0.00    -0.210 NA
ATOM     18  C3  SGN d5702      62.791  41.108  39.825  0.00  0.00     0.083 C 
ATOM     19  C6  SGN d5702      64.985  37.940  39.807  0.00  0.00     0.067 C 
ATOM     20  O6S SGN d5702      66.623  35.981  37.685  0.00  0.00    -0.572 OA
ATOM     21  H   SGN d5702      60.437  42.823  44.096  0.00  0.00     0.231 HD
ATOM     22  H   SGN d5702      61.293  38.330  41.992  0.00  0.00     0.212 HD
ATOM     23  H   SGN d5702      62.951  38.437  39.587  0.00  0.00     0.090 H 
ATOM     24  H   SGN d5702      62.632  39.867  42.981  0.00  0.00     0.131 H 
ATOM     25  H   SGN d5702      62.959  42.386  38.352  0.00  0.00     0.210 HD
ATOM     26  H   SGN d5702      64.899  40.757  39.866  0.00  0.00     0.091 H 
ATOM     27  H   SGN d5702      63.707  41.597  41.645  0.00  0.00     0.076 H 
ATOM     28  H   SGN d5702      62.470  44.542  41.873  0.00  0.00     0.231 HD
ATOM     29  H   SGN d5702      62.201  41.559  44.477  0.00  0.00     0.231 HD
ATOM     30  H   SGN d5702      61.355  42.545  41.006  0.00  0.00     0.140 HD
ATOM     31  H   SGN d5702      61.895  40.694  39.413  0.00  0.00     0.089 H 
ATOM     32  H   SGN d5702      65.010  37.141  40.518  0.00  0.00     0.080 H 
ATOM     33  H   SGN d5702      65.928  38.438  39.898  0.00  0.00     0.080 H 
ATOM     34  C3  IDU d1623      63.314  41.228  34.551  0.00  0.00     0.069 C 
ATOM     35  O1S IDU d1623      67.598  40.030  34.250  0.00  0.00    -0.572 OA
ATOM     36  O2  IDU d1623      65.428  40.538  35.480  0.00  0.00    -0.244 OA
ATOM     37  S   IDU d1623      66.200  39.737  34.152  0.00  0.00     0.252 S 
ATOM     38  C4  IDU d1623      63.763  42.689  34.712  0.00  0.00    -0.005 C 
ATOM     39  C5  IDU d1623      63.435  43.177  36.132  0.00  0.00     0.127 C 
ATOM     40  O3S IDU d1623      65.908  38.353  34.165  0.00  0.00    -0.572 OA
ATOM     41  O5  IDU d1623      64.096  42.291  37.103  0.00  0.00    -0.343 OA
ATOM     42  O61 IDU d1623      63.431  45.449  35.496  0.00  0.00    -0.646 OA
ATOM     43  C2  IDU d1623      64.035  40.395  35.623  0.00  0.00     0.132 C 
ATOM     44  C6  IDU d1623      63.917  44.596  36.266  0.00  0.00     0.203 C 
ATOM     45  O62 IDU d1623      64.770  44.845  37.131  0.00  0.00    -0.646 OA
ATOM     46  O2S IDU d1623      65.698  40.241  32.882  0.00  0.00    -0.572 OA
ATOM     47  C1  IDU d1623      63.658  40.896  37.026  0.00  0.00     0.161 C 
ATOM     48  O3  IDU d1623      61.927  41.143  34.728  0.00  0.00    -0.393 OA
ATOM     49  H   IDU d1623      63.554  40.862  33.575  0.00  0.00     0.087 H 
ATOM     50  H   IDU d1623      63.251  43.300  33.998  0.00  0.00     0.041 H 
ATOM     51  H   IDU d1623      64.818  42.755  34.549  0.00  0.00     0.041 H 
ATOM     52  H   IDU d1623      62.382  43.151  36.320  0.00  0.00     0.100 H 
ATOM     53  H   IDU d1623      63.744  39.373  35.502  0.00  0.00     0.097 H 
ATOM     54  H   IDU d1623      62.602  40.842  37.189  0.00  0.00     0.133 H 
ATOM     55  H   IDU d1623      61.694  41.472  35.610  0.00  0.00     0.210 HD
ENDROOT
TORSDOF 16
ENDMDL
MODEL 42
REMARK VINA RESULT:      -4.7      4.966      8.541
REMARK  0 active torsions:
REMARK  status: ('A' for Active; 'I' for Inactive)
REMARK       I    between atoms: O2S_2  and  S1_19 
REMARK       I    between atoms: C3_3  and  O3_35 
REMARK       I    between atoms: O2_5  and  C2_22 
REMARK       I    between atoms: O2_5  and  S_7 
REMARK       I    between atoms: O1_6  and  C1_12 
REMARK       I    between atoms: O4_8  and  C1_32 
REMARK       I    between atoms: O4_8  and  C4_20 
REMARK       I    between atoms: C5_10  and  C6_33 
REMARK       I    between atoms: C5_14  and  C6_23 
REMARK       I    between atoms: O3_17  and  C3_31 
REMARK       I    between atoms: S1_19  and  N_30 
REMARK       I    between atoms: S1_19  and  O1S_28 
REMARK       I    between atoms: S1_19  and  O3S_25 
REMARK       I    between atoms: S2_21  and  O6_29 
REMARK       I    between atoms: C2_24  and  N_30 
REMARK       I    between atoms: O6_29  and  C6_33 
ROOT
ATOM      1  O5S SGN d5702      59.872  42.341  35.508  0.00  0.00    -0.572 OA
ATOM      2  O2S SGN d5702      64.372  35.423  41.959  0.00  0.00    -0.296 OA
ATOM      3  O1  SGN d5702      61.250  38.653  40.153  0.00  0.00    -0.369 OA
ATOM      4  O4  SGN d5702      64.034  42.087  38.751  0.00  0.00    -0.348 OA
ATOM      5  O5  SGN d5702      62.140  39.065  38.037  0.00  0.00    -0.350 OA
ATOM      6  C5  SGN d5702      62.399  40.444  38.141  0.00  0.00     0.091 C 
ATOM      7  O4S SGN d5702      60.257  44.354  36.623  0.00  0.00    -0.572 OA
ATOM      8  C1  SGN d5702      62.266  38.306  39.242  0.00  0.00     0.147 C 
ATOM      9  O3  SGN d5702      65.197  40.122  40.611  0.00  0.00    -0.391 OA
ATOM     10  S1  SGN d5702      64.596  36.241  40.812  0.00  0.00     0.156 S 
ATOM     11  C4  SGN d5702      63.828  40.649  38.682  0.00  0.00     0.095 C 
ATOM     12  S2  SGN d5702      60.883  43.251  35.968  0.00  0.00     0.251 S 
ATOM     13  C2  SGN d5702      63.657  38.512  39.813  0.00  0.00     0.081 C 
ATOM     14  O3S SGN d5702      65.988  36.608  40.643  0.00  0.00    -0.296 OA
ATOM     15  O1S SGN d5702      64.029  35.553  39.669  0.00  0.00    -0.296 OA
ATOM     16  O6  SGN d5702      61.940  42.399  37.041  0.00  0.00    -0.254 OA
ATOM     17  N   SGN d5702      63.736  37.769  41.027  0.00  0.00    -0.210 NA
ATOM     18  C3  SGN d5702      63.904  39.974  40.078  0.00  0.00     0.083 C 
ATOM     19  C6  SGN d5702      62.221  41.032  36.777  0.00  0.00     0.067 C 
ATOM     20  O6S SGN d5702      61.726  43.738  34.916  0.00  0.00    -0.572 OA
ATOM     21  H   SGN d5702      63.429  35.208  42.024  0.00  0.00     0.231 HD
ATOM     22  H   SGN d5702      60.384  38.504  39.742  0.00  0.00     0.212 HD
ATOM     23  H   SGN d5702      61.730  40.930  38.821  0.00  0.00     0.090 H 
ATOM     24  H   SGN d5702      62.144  37.263  39.037  0.00  0.00     0.131 H 
ATOM     25  H   SGN d5702      65.369  41.060  40.786  0.00  0.00     0.210 HD
ATOM     26  H   SGN d5702      64.589  40.215  38.068  0.00  0.00     0.091 H 
ATOM     27  H   SGN d5702      64.400  38.177  39.119  0.00  0.00     0.076 H 
ATOM     28  H   SGN d5702      66.302  37.062  41.441  0.00  0.00     0.231 HD
ATOM     29  H   SGN d5702      63.101  35.337  39.849  0.00  0.00     0.231 HD
ATOM     30  H   SGN d5702      64.229  38.328  41.724  0.00  0.00     0.140 HD
ATOM     31  H   SGN d5702      63.205  40.400  40.766  0.00  0.00     0.089 H 
ATOM     32  H   SGN d5702      61.406  40.567  36.262  0.00  0.00     0.080 H 
ATOM     33  H   SGN d5702      63.076  40.896  36.148  0.00  0.00     0.080 H 
ATOM     34  C3  IDU d1623      65.286  45.048  40.740  0.00  0.00     0.069 C 
ATOM     35  O1S IDU d1623      66.339  46.038  36.522  0.00  0.00    -0.572 OA
ATOM     36  O2  IDU d1623      65.510  44.529  38.397  0.00  0.00    -0.244 OA
ATOM     37  S   IDU d1623      65.446  46.086  37.640  0.00  0.00     0.252 S 
ATOM     38  C4  IDU d1623      66.722  44.543  40.950  0.00  0.00    -0.005 C 
ATOM     39  C5  IDU d1623      66.708  43.021  41.163  0.00  0.00     0.127 C 
ATOM     40  O3S IDU d1623      64.116  46.418  37.291  0.00  0.00    -0.572 OA
ATOM     41  O5  IDU d1623      66.069  42.385  40.000  0.00  0.00    -0.343 OA
ATOM     42  O61 IDU d1623      68.784  43.023  42.286  0.00  0.00    -0.646 OA
ATOM     43  C2  IDU d1623      64.701  44.307  39.528  0.00  0.00     0.132 C 
ATOM     44  C6  IDU d1623      68.130  42.556  41.331  0.00  0.00     0.203 C 
ATOM     45  O62 IDU d1623      68.577  41.734  40.517  0.00  0.00    -0.646 OA
ATOM     46  O2S IDU d1623      65.890  47.125  38.557  0.00  0.00    -0.572 OA
ATOM     47  C1  IDU d1623      64.678  42.792  39.792  0.00  0.00     0.161 C 
ATOM     48  O3  IDU d1623      64.524  44.778  41.883  0.00  0.00    -0.393 OA
ATOM     49  H   IDU d1623      65.276  46.104  40.567  0.00  0.00     0.087 H 
ATOM     50  H   IDU d1623      67.145  45.019  41.810  0.00  0.00     0.041 H 
ATOM     51  H   IDU d1623      67.310  44.776  40.087  0.00  0.00     0.041 H 
ATOM     52  H   IDU d1623      66.152  42.754  42.037  0.00  0.00     0.100 H 
ATOM     53  H   IDU d1623      63.709  44.670  39.362  0.00  0.00     0.097 H 
ATOM     54  H   IDU d1623      64.101  42.557  40.661  0.00  0.00     0.133 H 
ATOM     55  H   IDU d1623      64.523  43.823  42.053  0.00  0.00     0.210 HD
ENDROOT
TORSDOF 16
ENDMDL
MODEL 43
REMARK VINA RESULT:      -4.7      2.160      2.700
REMARK  0 active torsions:
REMARK  status: ('A' for Active; 'I' for Inactive)
REMARK       I    between atoms: O2S_2  and  S1_19 
REMARK       I    between atoms: C3_3  and  O3_35 
REMARK       I    between atoms: O2_5  and  C2_22 
REMARK       I    between atoms: O2_5  and  S_7 
REMARK       I    between atoms: O1_6  and  C1_12 
REMARK       I    between atoms: O4_8  and  C1_32 
REMARK       I    between atoms: O4_8  and  C4_20 
REMARK       I    between atoms: C5_10  and  C6_33 
REMARK       I    between atoms: C5_14  and  C6_23 
REMARK       I    between atoms: O3_17  and  C3_31 
REMARK       I    between atoms: S1_19  and  N_30 
REMARK       I    between atoms: S1_19  and  O1S_28 
REMARK       I    between atoms: S1_19  and  O3S_25 
REMARK       I    between atoms: S2_21  and  O6_29 
REMARK       I    between atoms: C2_24  and  N_30 
REMARK       I    between atoms: O6_29  and  C6_33 
ROOT
ATOM      1  O5S SGN d5702      64.035  35.632  39.944  0.00  0.00    -0.572 OA
ATOM      2  O2S SGN d5702      59.941  44.137  35.402  0.00  0.00    -0.296 OA
ATOM      3  O1  SGN d5702      60.609  39.541  36.774  0.00  0.00    -0.369 OA
ATOM      4  O4  SGN d5702      65.115  38.865  35.910  0.00  0.00    -0.348 OA
ATOM      5  O5  SGN d5702      62.435  39.720  38.215  0.00  0.00    -0.350 OA
ATOM      6  C5  SGN d5702      63.361  38.902  37.543  0.00  0.00     0.091 C 
ATOM      7  O4S SGN d5702      64.939  34.501  38.115  0.00  0.00    -0.572 OA
ATOM      8  C1  SGN d5702      61.508  40.432  37.390  0.00  0.00     0.147 C 
ATOM      9  O3  SGN d5702      63.863  41.204  34.630  0.00  0.00    -0.391 OA
ATOM     10  S1  SGN d5702      61.106  43.624  36.046  0.00  0.00     0.156 S 
ATOM     11  C4  SGN d5702      64.172  39.764  36.555  0.00  0.00     0.095 C 
ATOM     12  S2  SGN d5702      65.018  35.691  38.900  0.00  0.00     0.251 S 
ATOM     13  C2  SGN d5702      62.280  41.270  36.388  0.00  0.00     0.081 C 
ATOM     14  O3S SGN d5702      62.322  44.300  35.636  0.00  0.00    -0.296 OA
ATOM     15  O1S SGN d5702      60.868  43.666  37.475  0.00  0.00    -0.296 OA
ATOM     16  O6  SGN d5702      64.715  37.100  37.941  0.00  0.00    -0.254 OA
ATOM     17  N   SGN d5702      61.327  41.939  35.565  0.00  0.00    -0.210 NA
ATOM     18  C3  SGN d5702      63.171  40.393  35.549  0.00  0.00     0.083 C 
ATOM     19  C6  SGN d5702      64.229  38.268  38.585  0.00  0.00     0.067 C 
ATOM     20  O6S SGN d5702      66.356  35.849  39.391  0.00  0.00    -0.572 OA
ATOM     21  H   SGN d5702      59.161  43.651  35.711  0.00  0.00     0.231 HD
ATOM     22  H   SGN d5702      60.142  39.031  37.455  0.00  0.00     0.212 HD
ATOM     23  H   SGN d5702      62.882  38.133  36.972  0.00  0.00     0.090 H 
ATOM     24  H   SGN d5702      60.915  41.094  37.987  0.00  0.00     0.131 H 
ATOM     25  H   SGN d5702      64.441  40.651  34.083  0.00  0.00     0.210 HD
ATOM     26  H   SGN d5702      64.712  40.562  37.021  0.00  0.00     0.091 H 
ATOM     27  H   SGN d5702      62.903  41.979  36.893  0.00  0.00     0.076 H 
ATOM     28  H   SGN d5702      62.418  44.235  34.673  0.00  0.00     0.231 HD
ATOM     29  H   SGN d5702      60.043  43.198  37.679  0.00  0.00     0.231 HD
ATOM     30  H   SGN d5702      61.652  41.913  34.598  0.00  0.00     0.140 HD
ATOM     31  H   SGN d5702      62.633  39.648  35.002  0.00  0.00     0.089 H 
ATOM     32  H   SGN d5702      63.660  38.017  39.456  0.00  0.00     0.080 H 
ATOM     33  H   SGN d5702      65.011  38.914  38.926  0.00  0.00     0.080 H 
ATOM     34  C3  IDU d1623      66.735  37.694  32.701  0.00  0.00     0.069 C 
ATOM     35  O1S IDU d1623      69.995  37.435  35.733  0.00  0.00    -0.572 OA
ATOM     36  O2  IDU d1623      67.683  38.079  34.883  0.00  0.00    -0.244 OA
ATOM     37  S   IDU d1623      68.906  36.858  35.003  0.00  0.00     0.252 S 
ATOM     38  C4  IDU d1623      67.292  39.057  32.260  0.00  0.00    -0.005 C 
ATOM     39  C5  IDU d1623      66.295  40.166  32.630  0.00  0.00     0.127 C 
ATOM     40  O3S IDU d1623      68.383  35.685  35.598  0.00  0.00    -0.572 OA
ATOM     41  O5  IDU d1623      66.048  40.119  34.080  0.00  0.00    -0.343 OA
ATOM     42  O61 IDU d1623      67.141  41.654  31.006  0.00  0.00    -0.646 OA
ATOM     43  C2  IDU d1623      66.486  37.757  34.216  0.00  0.00     0.132 C 
ATOM     44  C6  IDU d1623      66.885  41.487  32.216  0.00  0.00     0.203 C 
ATOM     45  O62 IDU d1623      67.085  42.340  33.094  0.00  0.00    -0.646 OA
ATOM     46  O2S IDU d1623      69.374  36.464  33.683  0.00  0.00    -0.572 OA
ATOM     47  C1  IDU d1623      65.463  38.858  34.541  0.00  0.00     0.161 C 
ATOM     48  O3  IDU d1623      65.535  37.439  32.026  0.00  0.00    -0.393 OA
ATOM     49  H   IDU d1623      67.426  36.909  32.472  0.00  0.00     0.087 H 
ATOM     50  H   IDU d1623      67.445  39.053  31.201  0.00  0.00     0.041 H 
ATOM     51  H   IDU d1623      68.223  39.236  32.756  0.00  0.00     0.041 H 
ATOM     52  H   IDU d1623      65.360  40.034  32.127  0.00  0.00     0.100 H 
ATOM     53  H   IDU d1623      66.120  36.804  34.533  0.00  0.00     0.097 H 
ATOM     54  H   IDU d1623      64.534  38.688  34.037  0.00  0.00     0.133 H 
ATOM     55  H   IDU d1623      64.898  38.143  32.224  0.00  0.00     0.210 HD
ENDROOT
TORSDOF 16
ENDMDL
MODEL 44
REMARK VINA RESULT:      -4.7      3.091      4.091
REMARK  0 active torsions:
REMARK  status: ('A' for Active; 'I' for Inactive)
REMARK       I    between atoms: O2S_2  and  S1_19 
REMARK       I    between atoms: C3_3  and  O3_35 
REMARK       I    between atoms: O2_5  and  C2_22 
REMARK       I    between atoms: O2_5  and  S_7 
REMARK       I    between atoms: O1_6  and  C1_12 
REMARK       I    between atoms: O4_8  and  C1_32 
REMARK       I    between atoms: O4_8  and  C4_20 
REMARK       I    between atoms: C5_10  and  C6_33 
REMARK       I    between atoms: C5_14  and  C6_23 
REMARK       I    between atoms: O3_17  and  C3_31 
REMARK       I    between atoms: S1_19  and  N_30 
REMARK       I    between atoms: S1_19  and  O1S_28 
REMARK       I    between atoms: S1_19  and  O3S_25 
REMARK       I    between atoms: S2_21  and  O6_29 
REMARK       I    between atoms: C2_24  and  N_30 
REMARK       I    between atoms: O6_29  and  C6_33 
ROOT
ATOM      1  O5S SGN d5702      65.227  37.584  41.594  0.00  0.00    -0.572 OA
ATOM      2  O2S SGN d5702      60.903  47.125  41.688  0.00  0.00    -0.296 OA
ATOM      3  O1  SGN d5702      61.393  42.309  41.805  0.00  0.00    -0.369 OA
ATOM      4  O4  SGN d5702      64.172  41.479  38.186  0.00  0.00    -0.348 OA
ATOM      5  O5  SGN d5702      63.710  42.050  41.748  0.00  0.00    -0.350 OA
ATOM      6  C5  SGN d5702      63.848  41.317  40.555  0.00  0.00     0.091 C 
ATOM      7  O4S SGN d5702      64.575  36.784  39.502  0.00  0.00    -0.572 OA
ATOM      8  C1  SGN d5702      62.628  42.984  41.793  0.00  0.00     0.147 C 
ATOM      9  O3  SGN d5702      62.868  44.119  38.270  0.00  0.00    -0.391 OA
ATOM     10  S1  SGN d5702      62.094  46.404  41.376  0.00  0.00     0.156 S 
ATOM     11  C4  SGN d5702      64.020  42.298  39.378  0.00  0.00     0.095 C 
ATOM     12  S2  SGN d5702      65.344  37.779  40.177  0.00  0.00     0.251 S 
ATOM     13  C2  SGN d5702      62.757  43.947  40.628  0.00  0.00     0.081 C 
ATOM     14  O3S SGN d5702      62.897  47.054  40.357  0.00  0.00    -0.296 OA
ATOM     15  O1S SGN d5702      62.802  46.172  42.618  0.00  0.00    -0.296 OA
ATOM     16  O6  SGN d5702      64.788  39.373  39.795  0.00  0.00    -0.254 OA
ATOM     17  N   SGN d5702      61.648  44.841  40.685  0.00  0.00    -0.210 NA
ATOM     18  C3  SGN d5702      62.754  43.194  39.324  0.00  0.00     0.083 C 
ATOM     19  C6  SGN d5702      65.034  40.420  40.722  0.00  0.00     0.067 C 
ATOM     20  O6S SGN d5702      66.699  37.731  39.709  0.00  0.00    -0.572 OA
ATOM     21  H   SGN d5702      60.407  46.648  42.371  0.00  0.00     0.231 HD
ATOM     22  H   SGN d5702      61.360  41.708  42.566  0.00  0.00     0.212 HD
ATOM     23  H   SGN d5702      62.985  40.720  40.345  0.00  0.00     0.090 H 
ATOM     24  H   SGN d5702      62.669  43.554  42.699  0.00  0.00     0.131 H 
ATOM     25  H   SGN d5702      62.867  43.646  37.423  0.00  0.00     0.210 HD
ATOM     26  H   SGN d5702      64.871  42.940  39.472  0.00  0.00     0.091 H 
ATOM     27  H   SGN d5702      63.679  44.488  40.689  0.00  0.00     0.076 H 
ATOM     28  H   SGN d5702      62.364  47.179  39.557  0.00  0.00     0.231 HD
ATOM     29  H   SGN d5702      62.210  45.737  43.252  0.00  0.00     0.231 HD
ATOM     30  H   SGN d5702      61.293  44.987  39.740  0.00  0.00     0.140 HD
ATOM     31  H   SGN d5702      61.864  42.619  39.173  0.00  0.00     0.089 H 
ATOM     32  H   SGN d5702      65.090  40.041  41.721  0.00  0.00     0.080 H 
ATOM     33  H   SGN d5702      65.964  40.920  40.549  0.00  0.00     0.080 H 
ATOM     34  C3  IDU d1623      63.207  40.866  34.583  0.00  0.00     0.069 C 
ATOM     35  O1S IDU d1623      67.519  39.745  34.768  0.00  0.00    -0.572 OA
ATOM     36  O2  IDU d1623      65.351  40.724  35.675  0.00  0.00    -0.244 OA
ATOM     37  S   IDU d1623      66.128  39.414  34.850  0.00  0.00     0.252 S 
ATOM     38  C4  IDU d1623      63.618  42.243  34.038  0.00  0.00    -0.005 C 
ATOM     39  C5  IDU d1623      63.294  43.327  35.079  0.00  0.00     0.127 C 
ATOM     40  O3S IDU d1623      65.874  38.188  35.509  0.00  0.00    -0.572 OA
ATOM     41  O5  IDU d1623      63.992  43.005  36.334  0.00  0.00    -0.343 OA
ATOM     42  O61 IDU d1623      63.219  45.046  33.463  0.00  0.00    -0.646 OA
ATOM     43  C2  IDU d1623      63.964  40.638  35.900  0.00  0.00     0.132 C 
ATOM     44  C6  IDU d1623      63.738  44.655  34.529  0.00  0.00     0.203 C 
ATOM     45  O62 IDU d1623      64.595  45.293  35.160  0.00  0.00    -0.646 OA
ATOM     46  O2S IDU d1623      65.596  39.262  33.504  0.00  0.00    -0.572 OA
ATOM     47  C1  IDU d1623      63.591  41.725  36.922  0.00  0.00     0.161 C 
ATOM     48  O3  IDU d1623      61.825  40.847  34.812  0.00  0.00    -0.393 OA
ATOM     49  H   IDU d1623      63.445  40.094  33.881  0.00  0.00     0.087 H 
ATOM     50  H   IDU d1623      63.080  42.444  33.135  0.00  0.00     0.041 H 
ATOM     51  H   IDU d1623      64.668  42.246  33.838  0.00  0.00     0.041 H 
ATOM     52  H   IDU d1623      62.244  43.372  35.282  0.00  0.00     0.100 H 
ATOM     53  H   IDU d1623      63.700  39.671  36.273  0.00  0.00     0.097 H 
ATOM     54  H   IDU d1623      62.539  41.733  37.116  0.00  0.00     0.133 H 
ATOM     55  H   IDU d1623      61.594  41.543  35.447  0.00  0.00     0.210 HD
ENDROOT
TORSDOF 16
ENDMDL
MODEL 45
REMARK VINA RESULT:      -4.6      3.394      7.766
REMARK  0 active torsions:
REMARK  status: ('A' for Active; 'I' for Inactive)
REMARK       I    between atoms: O2S_2  and  S1_19 
REMARK       I    between atoms: C3_3  and  O3_35 
REMARK       I    between atoms: O2_5  and  C2_22 
REMARK       I    between atoms: O2_5  and  S_7 
REMARK       I    between atoms: O1_6  and  C1_12 
REMARK       I    between atoms: O4_8  and  C1_32 
REMARK       I    between atoms: O4_8  and  C4_20 
REMARK       I    between atoms: C5_10  and  C6_33 
REMARK       I    between atoms: C5_14  and  C6_23 
REMARK       I    between atoms: O3_17  and  C3_31 
REMARK       I    between atoms: S1_19  and  N_30 
REMARK       I    between atoms: S1_19  and  O1S_28 
REMARK       I    between atoms: S1_19  and  O3S_25 
REMARK       I    between atoms: S2_21  and  O6_29 
REMARK       I    between atoms: C2_24  and  N_30 
REMARK       I    between atoms: O6_29  and  C6_33 
ROOT
ATOM      1  O5S SGN d5702      65.673  36.953  38.672  0.00  0.00    -0.572 OA
ATOM      2  O2S SGN d5702      64.505  44.935  31.991  0.00  0.00    -0.296 OA
ATOM      3  O1  SGN d5702      66.518  41.794  35.078  0.00  0.00    -0.369 OA
ATOM      4  O4  SGN d5702      63.514  41.773  38.612  0.00  0.00    -0.348 OA
ATOM      5  O5  SGN d5702      64.752  40.332  35.510  0.00  0.00    -0.350 OA
ATOM      6  C5  SGN d5702      64.618  40.510  36.899  0.00  0.00     0.091 C 
ATOM      7  O4S SGN d5702      65.922  38.065  40.707  0.00  0.00    -0.572 OA
ATOM      8  C1  SGN d5702      65.182  41.475  34.766  0.00  0.00     0.147 C 
ATOM      9  O3  SGN d5702      63.297  44.011  36.709  0.00  0.00    -0.391 OA
ATOM     10  S1  SGN d5702      63.797  44.006  32.808  0.00  0.00     0.156 S 
ATOM     11  C4  SGN d5702      63.617  41.653  37.166  0.00  0.00     0.095 C 
ATOM     12  S2  SGN d5702      65.027  37.809  39.625  0.00  0.00     0.251 S 
ATOM     13  C2  SGN d5702      64.229  42.626  35.032  0.00  0.00     0.081 C 
ATOM     14  O3S SGN d5702      62.500  44.500  33.231  0.00  0.00    -0.296 OA
ATOM     15  O1S SGN d5702      63.737  42.749  32.090  0.00  0.00    -0.296 OA
ATOM     16  O6  SGN d5702      64.570  39.274  38.825  0.00  0.00    -0.254 OA
ATOM     17  N   SGN d5702      64.705  43.754  34.302  0.00  0.00    -0.210 NA
ATOM     18  C3  SGN d5702      64.183  42.938  36.505  0.00  0.00     0.083 C 
ATOM     19  C6  SGN d5702      64.153  39.207  37.469  0.00  0.00     0.067 C 
ATOM     20  O6S SGN d5702      63.805  37.263  40.139  0.00  0.00    -0.572 OA
ATOM     21  H   SGN d5702      65.361  44.556  31.738  0.00  0.00     0.231 HD
ATOM     22  H   SGN d5702      67.084  41.029  34.891  0.00  0.00     0.212 HD
ATOM     23  H   SGN d5702      65.543  40.785  37.363  0.00  0.00     0.090 H 
ATOM     24  H   SGN d5702      65.160  41.263  33.717  0.00  0.00     0.131 H 
ATOM     25  H   SGN d5702      63.258  44.222  37.655  0.00  0.00     0.210 HD
ATOM     26  H   SGN d5702      62.643  41.478  36.759  0.00  0.00     0.091 H 
ATOM     27  H   SGN d5702      63.237  42.370  34.723  0.00  0.00     0.076 H 
ATOM     28  H   SGN d5702      62.612  45.340  33.703  0.00  0.00     0.231 HD
ATOM     29  H   SGN d5702      64.634  42.478  31.838  0.00  0.00     0.231 HD
ATOM     30  H   SGN d5702      64.616  44.586  34.886  0.00  0.00     0.140 HD
ATOM     31  H   SGN d5702      65.137  43.207  36.907  0.00  0.00     0.089 H 
ATOM     32  H   SGN d5702      64.616  38.383  36.967  0.00  0.00     0.080 H 
ATOM     33  H   SGN d5702      63.099  39.056  37.363  0.00  0.00     0.080 H 
ATOM     34  C3  IDU d1623      63.439  44.040  41.636  0.00  0.00     0.069 C 
ATOM     35  O1S IDU d1623      60.562  40.783  42.636  0.00  0.00    -0.572 OA
ATOM     36  O2  IDU d1623      62.125  42.089  41.109  0.00  0.00    -0.244 OA
ATOM     37  S   IDU d1623      61.876  41.351  42.656  0.00  0.00     0.252 S 
ATOM     38  C4  IDU d1623      62.254  44.911  41.191  0.00  0.00    -0.005 C 
ATOM     39  C5  IDU d1623      62.316  45.132  39.671  0.00  0.00     0.127 C 
ATOM     40  O3S IDU d1623      62.897  40.411  42.931  0.00  0.00    -0.572 OA
ATOM     41  O5  IDU d1623      62.314  43.822  39.001  0.00  0.00    -0.343 OA
ATOM     42  O61 IDU d1623      61.012  47.096  39.766  0.00  0.00    -0.646 OA
ATOM     43  C2  IDU d1623      63.362  42.715  40.862  0.00  0.00     0.132 C 
ATOM     44  C6  IDU d1623      61.126  45.959  39.266  0.00  0.00     0.203 C 
ATOM     45  O62 IDU d1623      60.322  45.470  38.457  0.00  0.00    -0.646 OA
ATOM     46  O2S IDU d1623      61.948  42.342  43.719  0.00  0.00    -0.572 OA
ATOM     47  C1  IDU d1623      63.457  42.976  39.350  0.00  0.00     0.161 C 
ATOM     48  O3  IDU d1623      64.639  44.699  41.343  0.00  0.00    -0.393 OA
ATOM     49  H   IDU d1623      63.401  43.856  42.689  0.00  0.00     0.087 H 
ATOM     50  H   IDU d1623      62.299  45.857  41.690  0.00  0.00     0.041 H 
ATOM     51  H   IDU d1623      61.338  44.418  41.441  0.00  0.00     0.041 H 
ATOM     52  H   IDU d1623      63.209  45.650  39.389  0.00  0.00     0.100 H 
ATOM     53  H   IDU d1623      64.171  42.094  41.184  0.00  0.00     0.097 H 
ATOM     54  H   IDU d1623      64.367  43.479  39.098  0.00  0.00     0.133 H 
ATOM     55  H   IDU d1623      64.688  44.873  40.390  0.00  0.00     0.210 HD
ENDROOT
TORSDOF 16
ENDMDL
MODEL 46
REMARK VINA RESULT:      -4.6      2.924      7.178
REMARK  0 active torsions:
REMARK  status: ('A' for Active; 'I' for Inactive)
REMARK       I    between atoms: O2S_2  and  S1_19 
REMARK       I    between atoms: C3_3  and  O3_35 
REMARK       I    between atoms: O2_5  and  C2_22 
REMARK       I    between atoms: O2_5  and  S_7 
REMARK       I    between atoms: O1_6  and  C1_12 
REMARK       I    between atoms: O4_8  and  C1_32 
REMARK       I    between atoms: O4_8  and  C4_20 
REMARK       I    between atoms: C5_10  and  C6_33 
REMARK       I    between atoms: C5_14  and  C6_23 
REMARK       I    between atoms: O3_17  and  C3_31 
REMARK       I    between atoms: S1_19  and  N_30 
REMARK       I    between atoms: S1_19  and  O1S_28 
REMARK       I    between atoms: S1_19  and  O3S_25 
REMARK       I    between atoms: S2_21  and  O6_29 
REMARK       I    between atoms: C2_24  and  N_30 
REMARK       I    between atoms: O6_29  and  C6_33 
ROOT
ATOM      1  O5S SGN d5702      68.650  38.013  39.551  0.00  0.00    -0.572 OA
ATOM      2  O2S SGN d5702      65.533  40.541  29.876  0.00  0.00    -0.296 OA
ATOM      3  O1  SGN d5702      68.054  40.462  34.009  0.00  0.00    -0.369 OA
ATOM      4  O4  SGN d5702      64.729  40.687  37.235  0.00  0.00    -0.348 OA
ATOM      5  O5  SGN d5702      67.014  38.737  35.185  0.00  0.00    -0.350 OA
ATOM      6  C5  SGN d5702      66.559  39.445  36.312  0.00  0.00     0.091 C 
ATOM      7  O4S SGN d5702      68.025  39.905  40.765  0.00  0.00    -0.572 OA
ATOM      8  C1  SGN d5702      67.059  39.468  33.956  0.00  0.00     0.147 C 
ATOM      9  O3  SGN d5702      63.958  41.433  34.491  0.00  0.00    -0.391 OA
ATOM     10  S1  SGN d5702      65.138  39.880  31.076  0.00  0.00     0.156 S 
ATOM     11  C4  SGN d5702      65.142  39.984  36.031  0.00  0.00     0.095 C 
ATOM     12  S2  SGN d5702      67.539  38.808  39.991  0.00  0.00     0.251 S 
ATOM     13  C2  SGN d5702      65.681  40.034  33.668  0.00  0.00     0.081 C 
ATOM     14  O3S SGN d5702      63.699  39.859  31.262  0.00  0.00    -0.296 OA
ATOM     15  O1S SGN d5702      65.745  38.564  31.070  0.00  0.00    -0.296 OA
ATOM     16  O6  SGN d5702      66.671  39.355  38.597  0.00  0.00    -0.254 OA
ATOM     17  N   SGN d5702      65.770  40.782  32.457  0.00  0.00    -0.210 NA
ATOM     18  C3  SGN d5702      65.233  40.923  34.798  0.00  0.00     0.083 C 
ATOM     19  C6  SGN d5702      66.584  38.496  37.470  0.00  0.00     0.067 C 
ATOM     20  O6S SGN d5702      66.585  38.067  40.763  0.00  0.00    -0.572 OA
ATOM     21  H   SGN d5702      66.500  40.525  29.802  0.00  0.00     0.231 HD
ATOM     22  H   SGN d5702      68.912  40.051  34.195  0.00  0.00     0.212 HD
ATOM     23  H   SGN d5702      67.179  40.288  36.538  0.00  0.00     0.090 H 
ATOM     24  H   SGN d5702      67.325  38.818  33.149  0.00  0.00     0.131 H 
ATOM     25  H   SGN d5702      63.658  42.007  35.212  0.00  0.00     0.210 HD
ATOM     26  H   SGN d5702      64.426  39.221  35.808  0.00  0.00     0.091 H 
ATOM     27  H   SGN d5702      64.964  39.245  33.571  0.00  0.00     0.076 H 
ATOM     28  H   SGN d5702      63.360  40.767  31.255  0.00  0.00     0.231 HD
ATOM     29  H   SGN d5702      66.703  38.650  30.942  0.00  0.00     0.231 HD
ATOM     30  H   SGN d5702      65.233  41.643  32.561  0.00  0.00     0.140 HD
ATOM     31  H   SGN d5702      65.893  41.747  34.972  0.00  0.00     0.089 H 
ATOM     32  H   SGN d5702      67.434  37.848  37.416  0.00  0.00     0.080 H 
ATOM     33  H   SGN d5702      65.730  37.852  37.500  0.00  0.00     0.080 H 
ATOM     34  C3  IDU d1623      63.146  43.764  38.757  0.00  0.00     0.069 C 
ATOM     35  O1S IDU d1623      61.762  40.419  41.359  0.00  0.00    -0.572 OA
ATOM     36  O2  IDU d1623      62.892  41.434  39.317  0.00  0.00    -0.244 OA
ATOM     37  S   IDU d1623      62.689  41.461  41.037  0.00  0.00     0.252 S 
ATOM     38  C4  IDU d1623      61.812  43.688  37.998  0.00  0.00    -0.005 C 
ATOM     39  C5  IDU d1623      62.061  43.192  36.564  0.00  0.00     0.127 C 
ATOM     40  O3S IDU d1623      63.937  41.333  41.690  0.00  0.00    -0.572 OA
ATOM     41  O5  IDU d1623      62.733  41.884  36.624  0.00  0.00    -0.343 OA
ATOM     42  O61 IDU d1623      60.064  44.143  35.744  0.00  0.00    -0.646 OA
ATOM     43  C2  IDU d1623      63.777  42.364  38.737  0.00  0.00     0.132 C 
ATOM     44  C6  IDU d1623      60.734  43.097  35.861  0.00  0.00     0.203 C 
ATOM     45  O62 IDU d1623      60.376  41.989  35.434  0.00  0.00    -0.646 OA
ATOM     46  O2S IDU d1623      62.139  42.736  41.472  0.00  0.00    -0.572 OA
ATOM     47  C1  IDU d1623      64.036  41.917  37.290  0.00  0.00     0.161 C 
ATOM     48  O3  IDU d1623      63.993  44.682  38.123  0.00  0.00    -0.393 OA
ATOM     49  H   IDU d1623      62.991  44.086  39.765  0.00  0.00     0.087 H 
ATOM     50  H   IDU d1623      61.364  44.659  37.966  0.00  0.00     0.041 H 
ATOM     51  H   IDU d1623      61.157  43.007  38.500  0.00  0.00     0.041 H 
ATOM     52  H   IDU d1623      62.691  43.867  36.022  0.00  0.00     0.100 H 
ATOM     53  H   IDU d1623      64.695  42.404  39.284  0.00  0.00     0.097 H 
ATOM     54  H   IDU d1623      64.682  42.602  36.780  0.00  0.00     0.133 H 
ATOM     55  H   IDU d1623      64.143  44.403  37.206  0.00  0.00     0.210 HD
ENDROOT
TORSDOF 16
ENDMDL
MODEL 47
REMARK VINA RESULT:      -4.6      4.036      8.157
REMARK  0 active torsions:
REMARK  status: ('A' for Active; 'I' for Inactive)
REMARK       I    between atoms: O2S_2  and  S1_19 
REMARK       I    between atoms: C3_3  and  O3_35 
REMARK       I    between atoms: O2_5  and  C2_22 
REMARK       I    between atoms: O2_5  and  S_7 
REMARK       I    between atoms: O1_6  and  C1_12 
REMARK       I    between atoms: O4_8  and  C1_32 
REMARK       I    between atoms: O4_8  and  C4_20 
REMARK       I    between atoms: C5_10  and  C6_33 
REMARK       I    between atoms: C5_14  and  C6_23 
REMARK       I    between atoms: O3_17  and  C3_31 
REMARK       I    between atoms: S1_19  and  N_30 
REMARK       I    between atoms: S1_19  and  O1S_28 
REMARK       I    between atoms: S1_19  and  O3S_25 
REMARK       I    between atoms: S2_21  and  O6_29 
REMARK       I    between atoms: C2_24  and  N_30 
REMARK       I    between atoms: O6_29  and  C6_33 
ROOT
ATOM      1  O5S SGN d5702      60.821  41.154  43.308  0.00  0.00    -0.572 OA
ATOM      2  O2S SGN d5702      63.628  41.935  33.246  0.00  0.00    -0.296 OA
ATOM      3  O1  SGN d5702      60.908  41.532  37.232  0.00  0.00    -0.369 OA
ATOM      4  O4  SGN d5702      63.031  38.140  39.576  0.00  0.00    -0.348 OA
ATOM      5  O5  SGN d5702      62.500  41.679  38.930  0.00  0.00    -0.350 OA
ATOM      6  C5  SGN d5702      62.319  40.428  39.548  0.00  0.00     0.091 C 
ATOM      7  O4S SGN d5702      60.138  38.927  43.442  0.00  0.00    -0.572 OA
ATOM      8  C1  SGN d5702      62.272  41.725  37.518  0.00  0.00     0.147 C 
ATOM      9  O3  SGN d5702      63.718  38.402  36.724  0.00  0.00    -0.391 OA
ATOM     10  S1  SGN d5702      64.115  41.661  34.559  0.00  0.00     0.156 S 
ATOM     11  C4  SGN d5702      63.256  39.399  38.884  0.00  0.00     0.095 C 
ATOM     12  S2  SGN d5702      61.250  39.789  43.201  0.00  0.00     0.251 S 
ATOM     13  C2  SGN d5702      63.163  40.700  36.841  0.00  0.00     0.081 C 
ATOM     14  O3S SGN d5702      65.291  40.813  34.560  0.00  0.00    -0.296 OA
ATOM     15  O1S SGN d5702      64.311  42.933  35.226  0.00  0.00    -0.296 OA
ATOM     16  O6  SGN d5702      61.905  39.543  41.618  0.00  0.00    -0.254 OA
ATOM     17  N   SGN d5702      62.887  40.750  35.443  0.00  0.00    -0.210 NA
ATOM     18  C3  SGN d5702      62.880  39.322  37.380  0.00  0.00     0.083 C 
ATOM     19  C6  SGN d5702      62.617  40.607  41.003  0.00  0.00     0.067 C 
ATOM     20  O6S SGN d5702      62.313  39.458  44.104  0.00  0.00    -0.572 OA
ATOM     21  H   SGN d5702      62.845  42.503  33.305  0.00  0.00     0.231 HD
ATOM     22  H   SGN d5702      60.383  42.210  37.687  0.00  0.00     0.212 HD
ATOM     23  H   SGN d5702      61.319  40.064  39.437  0.00  0.00     0.090 H 
ATOM     24  H   SGN d5702      62.528  42.691  37.133  0.00  0.00     0.131 H 
ATOM     25  H   SGN d5702      63.545  37.510  37.062  0.00  0.00     0.210 HD
ATOM     26  H   SGN d5702      64.293  39.653  38.948  0.00  0.00     0.091 H 
ATOM     27  H   SGN d5702      64.194  40.917  37.028  0.00  0.00     0.076 H 
ATOM     28  H   SGN d5702      65.092  39.983  34.100  0.00  0.00     0.231 HD
ATOM     29  H   SGN d5702      63.490  43.448  35.188  0.00  0.00     0.231 HD
ATOM     30  H   SGN d5702      62.858  39.798  35.078  0.00  0.00     0.140 HD
ATOM     31  H   SGN d5702      61.865  39.016  37.237  0.00  0.00     0.089 H 
ATOM     32  H   SGN d5702      62.265  41.555  41.353  0.00  0.00     0.080 H 
ATOM     33  H   SGN d5702      63.665  40.590  41.221  0.00  0.00     0.080 H 
ATOM     34  C3  IDU d1623      62.463  34.410  39.329  0.00  0.00     0.069 C 
ATOM     35  O1S IDU d1623      64.974  34.897  42.981  0.00  0.00    -0.572 OA
ATOM     36  O2  IDU d1623      63.824  35.689  40.853  0.00  0.00    -0.244 OA
ATOM     37  S   IDU d1623      63.701  34.798  42.334  0.00  0.00     0.252 S 
ATOM     38  C4  IDU d1623      63.735  34.076  38.534  0.00  0.00    -0.005 C 
ATOM     39  C5  IDU d1623      64.023  35.199  37.524  0.00  0.00     0.127 C 
ATOM     40  O3S IDU d1623      62.626  35.279  43.118  0.00  0.00    -0.572 OA
ATOM     41  O5  IDU d1623      64.152  36.471  38.253  0.00  0.00    -0.343 OA
ATOM     42  O61 IDU d1623      65.310  33.799  36.128  0.00  0.00    -0.646 OA
ATOM     43  C2  IDU d1623      62.687  35.762  40.025  0.00  0.00     0.132 C 
ATOM     44  C6  IDU d1623      65.290  34.857  36.788  0.00  0.00     0.203 C 
ATOM     45  O62 IDU d1623      66.247  35.643  36.873  0.00  0.00    -0.646 OA
ATOM     46  O2S IDU d1623      63.409  33.397  42.071  0.00  0.00    -0.572 OA
ATOM     47  C1  IDU d1623      62.943  36.861  38.982  0.00  0.00     0.161 C 
ATOM     48  O3  IDU d1623      61.374  34.495  38.453  0.00  0.00    -0.393 OA
ATOM     49  H   IDU d1623      62.258  33.650  40.053  0.00  0.00     0.087 H 
ATOM     50  H   IDU d1623      63.596  33.154  38.010  0.00  0.00     0.041 H 
ATOM     51  H   IDU d1623      64.561  33.985  39.207  0.00  0.00     0.041 H 
ATOM     52  H   IDU d1623      63.228  35.299  36.815  0.00  0.00     0.100 H 
ATOM     53  H   IDU d1623      61.814  35.989  40.599  0.00  0.00     0.097 H 
ATOM     54  H   IDU d1623      62.124  36.948  38.298  0.00  0.00     0.133 H 
ATOM     55  H   IDU d1623      61.545  35.181  37.789  0.00  0.00     0.210 HD
ENDROOT
TORSDOF 16
ENDMDL
MODEL 48
REMARK VINA RESULT:      -4.6      3.437      7.706
REMARK  0 active torsions:
REMARK  status: ('A' for Active; 'I' for Inactive)
REMARK       I    between atoms: O2S_2  and  S1_19 
REMARK       I    between atoms: C3_3  and  O3_35 
REMARK       I    between atoms: O2_5  and  C2_22 
REMARK       I    between atoms: O2_5  and  S_7 
REMARK       I    between atoms: O1_6  and  C1_12 
REMARK       I    between atoms: O4_8  and  C1_32 
REMARK       I    between atoms: O4_8  and  C4_20 
REMARK       I    between atoms: C5_10  and  C6_33 
REMARK       I    between atoms: C5_14  and  C6_23 
REMARK       I    between atoms: O3_17  and  C3_31 
REMARK       I    between atoms: S1_19  and  N_30 
REMARK       I    between atoms: S1_19  and  O1S_28 
REMARK       I    between atoms: S1_19  and  O3S_25 
REMARK       I    between atoms: S2_21  and  O6_29 
REMARK       I    between atoms: C2_24  and  N_30 
REMARK       I    between atoms: O6_29  and  C6_33 
ROOT
ATOM      1  O5S SGN d5702      68.726  40.439  40.731  0.00  0.00    -0.572 OA
ATOM      2  O2S SGN d5702      65.651  41.120  30.741  0.00  0.00    -0.296 OA
ATOM      3  O1  SGN d5702      67.978  42.002  34.895  0.00  0.00    -0.369 OA
ATOM      4  O4  SGN d5702      64.528  42.106  37.993  0.00  0.00    -0.348 OA
ATOM      5  O5  SGN d5702      67.178  40.301  36.276  0.00  0.00    -0.350 OA
ATOM      6  C5  SGN d5702      66.570  41.069  37.286  0.00  0.00     0.091 C 
ATOM      7  O4S SGN d5702      67.757  42.347  41.661  0.00  0.00    -0.572 OA
ATOM      8  C1  SGN d5702      67.157  40.861  34.959  0.00  0.00     0.147 C 
ATOM      9  O3  SGN d5702      63.764  42.346  35.158  0.00  0.00    -0.391 OA
ATOM     10  S1  SGN d5702      65.316  40.568  32.013  0.00  0.00     0.156 S 
ATOM     11  C4  SGN d5702      65.098  41.327  36.906  0.00  0.00     0.095 C 
ATOM     12  S2  SGN d5702      67.485  41.093  41.036  0.00  0.00     0.251 S 
ATOM     13  C2  SGN d5702      65.720  41.151  34.569  0.00  0.00     0.081 C 
ATOM     14  O3S SGN d5702      63.893  40.338  32.172  0.00  0.00    -0.296 OA
ATOM     15  O1S SGN d5702      66.125  39.380  32.200  0.00  0.00    -0.296 OA
ATOM     16  O6  SGN d5702      66.600  41.302  39.563  0.00  0.00    -0.254 OA
ATOM     17  N   SGN d5702      65.739  41.736  33.269  0.00  0.00    -0.210 NA
ATOM     18  C3  SGN d5702      65.090  42.097  35.558  0.00  0.00     0.083 C 
ATOM     19  C6  SGN d5702      66.697  40.298  38.563  0.00  0.00     0.067 C 
ATOM     20  O6S SGN d5702      66.629  40.315  41.883  0.00  0.00    -0.572 OA
ATOM     21  H   SGN d5702      66.610  41.253  30.689  0.00  0.00     0.231 HD
ATOM     22  H   SGN d5702      68.883  41.765  35.152  0.00  0.00     0.212 HD
ATOM     23  H   SGN d5702      67.038  42.024  37.406  0.00  0.00     0.090 H 
ATOM     24  H   SGN d5702      67.556  40.161  34.254  0.00  0.00     0.131 H 
ATOM     25  H   SGN d5702      63.346  42.954  35.788  0.00  0.00     0.210 HD
ATOM     26  H   SGN d5702      64.523  40.434  36.776  0.00  0.00     0.091 H 
ATOM     27  H   SGN d5702      65.142  40.250  34.567  0.00  0.00     0.076 H 
ATOM     28  H   SGN d5702      63.413  41.169  32.034  0.00  0.00     0.231 HD
ATOM     29  H   SGN d5702      67.061  39.604  32.080  0.00  0.00     0.231 HD
ATOM     30  H   SGN d5702      65.068  42.504  33.243  0.00  0.00     0.140 HD
ATOM     31  H   SGN d5702      65.602  43.033  35.629  0.00  0.00     0.089 H 
ATOM     32  H   SGN d5702      67.641  39.796  38.615  0.00  0.00     0.080 H 
ATOM     33  H   SGN d5702      65.956  39.533  38.665  0.00  0.00     0.080 H 
ATOM     34  C3  IDU d1623      62.414  45.058  39.047  0.00  0.00     0.069 C 
ATOM     35  O1S IDU d1623      61.473  41.905  42.056  0.00  0.00    -0.572 OA
ATOM     36  O2  IDU d1623      62.512  42.812  39.916  0.00  0.00    -0.244 OA
ATOM     37  S   IDU d1623      62.235  43.034  41.612  0.00  0.00     0.252 S 
ATOM     38  C4  IDU d1623      61.142  44.665  38.280  0.00  0.00    -0.005 C 
ATOM     39  C5  IDU d1623      61.526  44.031  36.932  0.00  0.00     0.127 C 
ATOM     40  O3S IDU d1623      63.460  43.198  42.301  0.00  0.00    -0.572 OA
ATOM     41  O5  IDU d1623      62.394  42.870  37.185  0.00  0.00    -0.343 OA
ATOM     42  O61 IDU d1623      59.439  44.526  35.950  0.00  0.00    -0.646 OA
ATOM     43  C2  IDU d1623      63.260  43.789  39.232  0.00  0.00     0.132 C 
ATOM     44  C6  IDU d1623      60.262  43.629  36.224  0.00  0.00     0.203 C 
ATOM     45  O62 IDU d1623      60.102  42.430  35.946  0.00  0.00    -0.646 OA
ATOM     46  O2S IDU d1623      61.472  44.248  41.857  0.00  0.00    -0.572 OA
ATOM     47  C1  IDU d1623      63.647  43.203  37.865  0.00  0.00     0.161 C 
ATOM     48  O3  IDU d1623      63.130  46.009  38.310  0.00  0.00    -0.393 OA
ATOM     49  H   IDU d1623      62.168  45.481  39.998  0.00  0.00     0.087 H 
ATOM     50  H   IDU d1623      60.547  45.537  38.106  0.00  0.00     0.041 H 
ATOM     51  H   IDU d1623      60.583  43.959  38.857  0.00  0.00     0.041 H 
ATOM     52  H   IDU d1623      62.063  44.722  36.316  0.00  0.00     0.100 H 
ATOM     53  H   IDU d1623      64.137  44.051  39.786  0.00  0.00     0.097 H 
ATOM     54  H   IDU d1623      64.196  43.911  37.279  0.00  0.00     0.133 H 
ATOM     55  H   IDU d1623      63.360  45.640  37.443  0.00  0.00     0.210 HD
ENDROOT
TORSDOF 16
ENDMDL
MODEL 49
REMARK VINA RESULT:      -4.6      2.601      8.352
REMARK  0 active torsions:
REMARK  status: ('A' for Active; 'I' for Inactive)
REMARK       I    between atoms: O2S_2  and  S1_19 
REMARK       I    between atoms: C3_3  and  O3_35 
REMARK       I    between atoms: O2_5  and  C2_22 
REMARK       I    between atoms: O2_5  and  S_7 
REMARK       I    between atoms: O1_6  and  C1_12 
REMARK       I    between atoms: O4_8  and  C1_32 
REMARK       I    between atoms: O4_8  and  C4_20 
REMARK       I    between atoms: C5_10  and  C6_33 
REMARK       I    between atoms: C5_14  and  C6_23 
REMARK       I    between atoms: O3_17  and  C3_31 
REMARK       I    between atoms: S1_19  and  N_30 
REMARK       I    between atoms: S1_19  and  O1S_28 
REMARK       I    between atoms: S1_19  and  O3S_25 
REMARK       I    between atoms: S2_21  and  O6_29 
REMARK       I    between atoms: C2_24  and  N_30 
REMARK       I    between atoms: O6_29  and  C6_33 
ROOT
ATOM      1  O5S SGN d5702      64.873  43.960  30.095  0.00  0.00    -0.572 OA
ATOM      2  O2S SGN d5702      68.353  34.526  33.031  0.00  0.00    -0.296 OA
ATOM      3  O1  SGN d5702      65.718  37.984  30.899  0.00  0.00    -0.369 OA
ATOM      4  O4  SGN d5702      64.836  40.897  34.398  0.00  0.00    -0.348 OA
ATOM      5  O5  SGN d5702      66.850  39.923  31.530  0.00  0.00    -0.350 OA
ATOM      6  C5  SGN d5702      65.831  40.584  32.240  0.00  0.00     0.091 C 
ATOM      7  O4S SGN d5702      62.875  44.125  31.289  0.00  0.00    -0.572 OA
ATOM      8  C1  SGN d5702      66.834  38.494  31.588  0.00  0.00     0.147 C 
ATOM      9  O3  SGN d5702      65.769  38.200  35.129  0.00  0.00    -0.391 OA
ATOM     10  S1  SGN d5702      68.418  35.920  33.327  0.00  0.00     0.156 S 
ATOM     11  C4  SGN d5702      65.900  40.170  33.724  0.00  0.00     0.095 C 
ATOM     12  S2  SGN d5702      64.294  44.025  31.407  0.00  0.00     0.251 S 
ATOM     13  C2  SGN d5702      66.873  38.057  33.041  0.00  0.00     0.081 C 
ATOM     14  O3S SGN d5702      68.728  36.188  34.718  0.00  0.00    -0.296 OA
ATOM     15  O1S SGN d5702      69.350  36.521  32.394  0.00  0.00    -0.296 OA
ATOM     16  O6  SGN d5702      64.755  42.604  32.281  0.00  0.00    -0.254 OA
ATOM     17  N   SGN d5702      66.824  36.633  33.062  0.00  0.00    -0.210 NA
ATOM     18  C3  SGN d5702      65.701  38.632  33.792  0.00  0.00     0.083 C 
ATOM     19  C6  SGN d5702      66.044  42.054  32.053  0.00  0.00     0.067 C 
ATOM     20  O6S SGN d5702      64.785  45.123  32.187  0.00  0.00    -0.572 OA
ATOM     21  H   SGN d5702      68.144  34.405  32.092  0.00  0.00     0.231 HD
ATOM     22  H   SGN d5702      65.739  38.290  29.978  0.00  0.00     0.212 HD
ATOM     23  H   SGN d5702      64.856  40.324  31.884  0.00  0.00     0.090 H 
ATOM     24  H   SGN d5702      67.699  38.094  31.099  0.00  0.00     0.131 H 
ATOM     25  H   SGN d5702      65.019  38.564  35.625  0.00  0.00     0.210 HD
ATOM     26  H   SGN d5702      66.834  40.400  34.193  0.00  0.00     0.091 H 
ATOM     27  H   SGN d5702      67.767  38.409  33.514  0.00  0.00     0.076 H 
ATOM     28  H   SGN d5702      68.068  35.758  35.285  0.00  0.00     0.231 HD
ATOM     29  H   SGN d5702      69.086  36.303  31.487  0.00  0.00     0.231 HD
ATOM     30  H   SGN d5702      66.201  36.336  33.814  0.00  0.00     0.140 HD
ATOM     31  H   SGN d5702      64.757  38.333  33.389  0.00  0.00     0.089 H 
ATOM     32  H   SGN d5702      66.382  42.268  31.060  0.00  0.00     0.080 H 
ATOM     33  H   SGN d5702      66.791  42.454  32.706  0.00  0.00     0.080 H 
ATOM     34  C3  IDU d1623      61.959  40.812  36.849  0.00  0.00     0.069 C 
ATOM     35  O1S IDU d1623      63.828  44.809  37.491  0.00  0.00    -0.572 OA
ATOM     36  O2  IDU d1623      63.686  42.461  36.519  0.00  0.00    -0.244 OA
ATOM     37  S   IDU d1623      62.874  43.954  36.851  0.00  0.00     0.252 S 
ATOM     38  C4  IDU d1623      62.751  40.280  38.054  0.00  0.00    -0.005 C 
ATOM     39  C5  IDU d1623      63.799  39.262  37.575  0.00  0.00     0.127 C 
ATOM     40  O3S IDU d1623      62.327  44.501  35.666  0.00  0.00    -0.572 OA
ATOM     41  O5  IDU d1623      64.676  39.912  36.588  0.00  0.00    -0.343 OA
ATOM     42  O61 IDU d1623      63.945  38.216  39.685  0.00  0.00    -0.646 OA
ATOM     43  C2  IDU d1623      62.963  41.441  35.870  0.00  0.00     0.132 C 
ATOM     44  C6  IDU d1623      64.576  38.788  38.773  0.00  0.00     0.203 C 
ATOM     45  O62 IDU d1623      65.801  38.986  38.792  0.00  0.00    -0.646 OA
ATOM     46  O2S IDU d1623      61.749  43.742  37.750  0.00  0.00    -0.572 OA
ATOM     47  C1  IDU d1623      63.974  40.386  35.394  0.00  0.00     0.161 C 
ATOM     48  O3  IDU d1623      61.283  39.753  36.230  0.00  0.00    -0.393 OA
ATOM     49  H   IDU d1623      61.239  41.540  37.159  0.00  0.00     0.087 H 
ATOM     50  H   IDU d1623      62.080  39.805  38.739  0.00  0.00     0.041 H 
ATOM     51  H   IDU d1623      63.244  41.094  38.542  0.00  0.00     0.041 H 
ATOM     52  H   IDU d1623      63.337  38.418  37.107  0.00  0.00     0.100 H 
ATOM     53  H   IDU d1623      62.416  41.834  35.039  0.00  0.00     0.097 H 
ATOM     54  H   IDU d1623      63.483  39.564  34.916  0.00  0.00     0.133 H 
ATOM     55  H   IDU d1623      61.924  39.084  35.943  0.00  0.00     0.210 HD
ENDROOT
TORSDOF 16
ENDMDL
MODEL 50
REMARK VINA RESULT:      -4.6      2.807      6.205
REMARK  0 active torsions:
REMARK  status: ('A' for Active; 'I' for Inactive)
REMARK       I    between atoms: O2S_2  and  S1_19 
REMARK       I    between atoms: C3_3  and  O3_35 
REMARK       I    between atoms: O2_5  and  C2_22 
REMARK       I    between atoms: O2_5  and  S_7 
REMARK       I    between atoms: O1_6  and  C1_12 
REMARK       I    between atoms: O4_8  and  C1_32 
REMARK       I    between atoms: O4_8  and  C4_20 
REMARK       I    between atoms: C5_10  and  C6_33 
REMARK       I    between atoms: C5_14  and  C6_23 
REMARK       I    between atoms: O3_17  and  C3_31 
REMARK       I    between atoms: S1_19  and  N_30 
REMARK       I    between atoms: S1_19  and  O1S_28 
REMARK       I    between atoms: S1_19  and  O3S_25 
REMARK       I    between atoms: S2_21  and  O6_29 
REMARK       I    between atoms: C2_24  and  N_30 
REMARK       I    between atoms: O6_29  and  C6_33 
ROOT
ATOM      1  O5S SGN d5702      65.512  46.877  30.788  0.00  0.00    -0.572 OA
ATOM      2  O2S SGN d5702      62.781  46.349  40.887  0.00  0.00    -0.296 OA
ATOM      3  O1  SGN d5702      65.409  47.012  36.874  0.00  0.00    -0.369 OA
ATOM      4  O4  SGN d5702      64.511  43.178  34.424  0.00  0.00    -0.348 OA
ATOM      5  O5  SGN d5702      63.830  46.668  35.192  0.00  0.00    -0.350 OA
ATOM      6  C5  SGN d5702      64.411  45.571  34.529  0.00  0.00     0.091 C 
ATOM      7  O4S SGN d5702      66.902  45.016  30.571  0.00  0.00    -0.572 OA
ATOM      8  C1  SGN d5702      64.054  46.743  36.603  0.00  0.00     0.147 C 
ATOM      9  O3  SGN d5702      63.826  43.104  37.287  0.00  0.00    -0.391 OA
ATOM     10  S1  SGN d5702      62.392  45.969  39.569  0.00  0.00     0.156 S 
ATOM     11  C4  SGN d5702      63.888  44.265  35.161  0.00  0.00     0.095 C 
ATOM     12  S2  SGN d5702      65.569  45.445  30.850  0.00  0.00     0.251 S 
ATOM     13  C2  SGN d5702      63.573  45.457  37.249  0.00  0.00     0.081 C 
ATOM     14  O3S SGN d5702      61.570  44.774  39.545  0.00  0.00    -0.296 OA
ATOM     15  O1S SGN d5702      61.768  47.120  38.949  0.00  0.00    -0.296 OA
ATOM     16  O6  SGN d5702      65.063  44.943  32.427  0.00  0.00    -0.254 OA
ATOM     17  N   SGN d5702      63.840  45.553  38.646  0.00  0.00    -0.210 NA
ATOM     18  C3  SGN d5702      64.294  44.273  36.659  0.00  0.00     0.083 C 
ATOM     19  C6  SGN d5702      64.045  45.685  33.082  0.00  0.00     0.067 C 
ATOM     20  O6S SGN d5702      64.664  44.803  29.941  0.00  0.00    -0.572 OA
ATOM     21  H   SGN d5702      63.326  47.149  40.845  0.00  0.00     0.231 HD
ATOM     22  H   SGN d5702      65.666  47.841  36.441  0.00  0.00     0.212 HD
ATOM     23  H   SGN d5702      65.477  45.561  34.621  0.00  0.00     0.090 H 
ATOM     24  H   SGN d5702      63.495  47.553  37.023  0.00  0.00     0.131 H 
ATOM     25  H   SGN d5702      64.283  42.334  36.916  0.00  0.00     0.210 HD
ATOM     26  H   SGN d5702      62.824  44.158  35.112  0.00  0.00     0.091 H 
ATOM     27  H   SGN d5702      62.525  45.319  37.075  0.00  0.00     0.076 H 
ATOM     28  H   SGN d5702      62.046  44.046  39.974  0.00  0.00     0.231 HD
ATOM     29  H   SGN d5702      62.368  47.880  39.000  0.00  0.00     0.231 HD
ATOM     30  H   SGN d5702      64.194  44.655  38.976  0.00  0.00     0.140 HD
ATOM     31  H   SGN d5702      65.355  44.322  36.786  0.00  0.00     0.089 H 
ATOM     32  H   SGN d5702      64.052  46.707  32.765  0.00  0.00     0.080 H 
ATOM     33  H   SGN d5702      63.061  45.322  32.870  0.00  0.00     0.080 H 
ATOM     34  C3  IDU d1623      66.305  39.853  34.535  0.00  0.00     0.069 C 
ATOM     35  O1S IDU d1623      63.714  39.579  30.917  0.00  0.00    -0.572 OA
ATOM     36  O2  IDU d1623      64.567  40.645  33.065  0.00  0.00    -0.244 OA
ATOM     37  S   IDU d1623      64.957  39.895  31.553  0.00  0.00     0.252 S 
ATOM     38  C4  IDU d1623      65.234  39.085  35.325  0.00  0.00    -0.005 C 
ATOM     39  C5  IDU d1623      64.603  40.013  36.376  0.00  0.00     0.127 C 
ATOM     40  O3S IDU d1623      65.793  40.735  30.780  0.00  0.00    -0.572 OA
ATOM     41  O5  IDU d1623      64.041  41.189  35.693  0.00  0.00    -0.343 OA
ATOM     42  O61 IDU d1623      63.887  38.217  37.729  0.00  0.00    -0.646 OA
ATOM     43  C2  IDU d1623      65.627  41.071  33.889  0.00  0.00     0.132 C 
ATOM     44  C6  IDU d1623      63.538  39.241  37.106  0.00  0.00     0.203 C 
ATOM     45  O62 IDU d1623      62.371  39.660  37.055  0.00  0.00    -0.646 OA
ATOM     46  O2S IDU d1623      65.708  38.667  31.764  0.00  0.00    -0.572 OA
ATOM     47  C1  IDU d1623      65.035  41.986  34.972  0.00  0.00     0.161 C 
ATOM     48  O3  IDU d1623      67.318  40.272  35.406  0.00  0.00    -0.393 OA
ATOM     49  H   IDU d1623      66.742  39.230  33.783  0.00  0.00     0.087 H 
ATOM     50  H   IDU d1623      65.685  38.247  35.815  0.00  0.00     0.041 H 
ATOM     51  H   IDU d1623      64.476  38.742  34.653  0.00  0.00     0.041 H 
ATOM     52  H   IDU d1623      65.330  40.352  37.083  0.00  0.00     0.100 H 
ATOM     53  H   IDU d1623      66.363  41.598  33.318  0.00  0.00     0.097 H 
ATOM     54  H   IDU d1623      65.788  42.323  35.653  0.00  0.00     0.133 H 
ATOM     55  H   IDU d1623      66.937  40.839  36.095  0.00  0.00     0.210 HD
ENDROOT
TORSDOF 16
ENDMDL
MODEL 51
REMARK VINA RESULT:      -4.6      3.092      6.452
REMARK  0 active torsions:
REMARK  status: ('A' for Active; 'I' for Inactive)
REMARK       I    between atoms: O2S_2  and  S1_19 
REMARK       I    between atoms: C3_3  and  O3_35 
REMARK       I    between atoms: O2_5  and  C2_22 
REMARK       I    between atoms: O2_5  and  S_7 
REMARK       I    between atoms: O1_6  and  C1_12 
REMARK       I    between atoms: O4_8  and  C1_32 
REMARK       I    between atoms: O4_8  and  C4_20 
REMARK       I    between atoms: C5_10  and  C6_33 
REMARK       I    between atoms: C5_14  and  C6_23 
REMARK       I    between atoms: O3_17  and  C3_31 
REMARK       I    between atoms: S1_19  and  N_30 
REMARK       I    between atoms: S1_19  and  O1S_28 
REMARK       I    between atoms: S1_19  and  O3S_25 
REMARK       I    between atoms: S2_21  and  O6_29 
REMARK       I    between atoms: C2_24  and  N_30 
REMARK       I    between atoms: O6_29  and  C6_33 
ROOT
ATOM      1  O5S SGN d5702      63.981  47.089  34.838  0.00  0.00    -0.572 OA
ATOM      2  O2S SGN d5702      62.425  42.082  43.907  0.00  0.00    -0.296 OA
ATOM      3  O1  SGN d5702      64.435  44.856  40.484  0.00  0.00    -0.369 OA
ATOM      4  O4  SGN d5702      64.202  42.158  36.719  0.00  0.00    -0.348 OA
ATOM      5  O5  SGN d5702      62.822  44.803  38.800  0.00  0.00    -0.350 OA
ATOM      6  C5  SGN d5702      63.571  44.223  37.759  0.00  0.00     0.091 C 
ATOM      7  O4S SGN d5702      65.730  45.859  33.907  0.00  0.00    -0.572 OA
ATOM      8  C1  SGN d5702      63.157  44.386  40.127  0.00  0.00     0.147 C 
ATOM      9  O3  SGN d5702      63.830  40.828  39.321  0.00  0.00    -0.391 OA
ATOM     10  S1  SGN d5702      62.008  42.152  42.544  0.00  0.00     0.156 S 
ATOM     11  C4  SGN d5702      63.421  42.690  37.825  0.00  0.00     0.095 C 
ATOM     12  S2  SGN d5702      64.368  45.804  34.330  0.00  0.00     0.251 S 
ATOM     13  C2  SGN d5702      63.046  42.875  40.212  0.00  0.00     0.081 C 
ATOM     14  O3S SGN d5702      61.481  40.894  42.050  0.00  0.00    -0.296 OA
ATOM     15  O1S SGN d5702      61.081  43.260  42.428  0.00  0.00    -0.296 OA
ATOM     16  O6  SGN d5702      64.143  44.629  35.581  0.00  0.00    -0.254 OA
ATOM     17  N   SGN d5702      63.417  42.492  41.535  0.00  0.00    -0.210 NA
ATOM     18  C3  SGN d5702      63.957  42.224  39.205  0.00  0.00     0.083 C 
ATOM     19  C6  SGN d5702      63.051  44.788  36.474  0.00  0.00     0.067 C 
ATOM     20  O6S SGN d5702      63.550  45.357  33.241  0.00  0.00    -0.572 OA
ATOM     21  H   SGN d5702      62.767  42.946  44.184  0.00  0.00     0.231 HD
ATOM     22  H   SGN d5702      64.454  45.824  40.413  0.00  0.00     0.212 HD
ATOM     23  H   SGN d5702      64.615  44.443  37.841  0.00  0.00     0.090 H 
ATOM     24  H   SGN d5702      62.472  44.809  40.832  0.00  0.00     0.131 H 
ATOM     25  H   SGN d5702      64.412  40.396  38.676  0.00  0.00     0.210 HD
ATOM     26  H   SGN d5702      62.411  42.350  37.735  0.00  0.00     0.091 H 
ATOM     27  H   SGN d5702      62.045  42.560  39.997  0.00  0.00     0.076 H 
ATOM     28  H   SGN d5702      62.149  40.199  42.158  0.00  0.00     0.231 HD
ATOM     29  H   SGN d5702      61.495  44.065  42.775  0.00  0.00     0.231 HD
ATOM     30  H   SGN d5702      63.996  41.654  41.485  0.00  0.00     0.140 HD
ATOM     31  H   SGN d5702      64.986  42.482  39.342  0.00  0.00     0.089 H 
ATOM     32  H   SGN d5702      62.795  45.821  36.585  0.00  0.00     0.080 H 
ATOM     33  H   SGN d5702      62.160  44.303  36.135  0.00  0.00     0.080 H 
ATOM     34  C3  IDU d1623      66.708  39.598  35.513  0.00  0.00     0.069 C 
ATOM     35  O1S IDU d1623      63.912  40.098  32.076  0.00  0.00    -0.572 OA
ATOM     36  O2  IDU d1623      64.703  40.436  34.472  0.00  0.00    -0.244 OA
ATOM     37  S   IDU d1623      65.106  40.443  32.787  0.00  0.00     0.252 S 
ATOM     38  C4  IDU d1623      65.921  38.347  35.934  0.00  0.00    -0.005 C 
ATOM     39  C5  IDU d1623      65.199  38.616  37.265  0.00  0.00     0.127 C 
ATOM     40  O3S IDU d1623      65.651  41.693  32.409  0.00  0.00    -0.572 OA
ATOM     41  O5  IDU d1623      64.321  39.786  37.101  0.00  0.00    -0.343 OA
ATOM     42  O61 IDU d1623      65.044  36.323  37.799  0.00  0.00    -0.646 OA
ATOM     43  C2  IDU d1623      65.712  40.762  35.398  0.00  0.00     0.132 C 
ATOM     44  C6  IDU d1623      64.413  37.386  37.631  0.00  0.00     0.203 C 
ATOM     45  O62 IDU d1623      63.182  37.491  37.747  0.00  0.00    -0.646 OA
ATOM     46  O2S IDU d1623      66.133  39.455  32.498  0.00  0.00    -0.572 OA
ATOM     47  C1  IDU d1623      65.033  41.017  36.754  0.00  0.00     0.161 C 
ATOM     48  O3  IDU d1623      67.678  39.888  36.481  0.00  0.00    -0.393 OA
ATOM     49  H   IDU d1623      67.201  39.439  34.577  0.00  0.00     0.087 H 
ATOM     50  H   IDU d1623      66.595  37.526  36.055  0.00  0.00     0.041 H 
ATOM     51  H   IDU d1623      65.200  38.112  35.181  0.00  0.00     0.041 H 
ATOM     52  H   IDU d1623      65.894  38.827  38.050  0.00  0.00     0.100 H 
ATOM     53  H   IDU d1623      66.250  41.631  35.082  0.00  0.00     0.097 H 
ATOM     54  H   IDU d1623      65.752  41.242  37.513  0.00  0.00     0.133 H 
ATOM     55  H   IDU d1623      67.246  40.035  37.337  0.00  0.00     0.210 HD
ENDROOT
TORSDOF 16
ENDMDL
MODEL 52
REMARK VINA RESULT:      -4.6      2.679      7.965
REMARK  0 active torsions:
REMARK  status: ('A' for Active; 'I' for Inactive)
REMARK       I    between atoms: O2S_2  and  S1_19 
REMARK       I    between atoms: C3_3  and  O3_35 
REMARK       I    between atoms: O2_5  and  C2_22 
REMARK       I    between atoms: O2_5  and  S_7 
REMARK       I    between atoms: O1_6  and  C1_12 
REMARK       I    between atoms: O4_8  and  C1_32 
REMARK       I    between atoms: O4_8  and  C4_20 
REMARK       I    between atoms: C5_10  and  C6_33 
REMARK       I    between atoms: C5_14  and  C6_23 
REMARK       I    between atoms: O3_17  and  C3_31 
REMARK       I    between atoms: S1_19  and  N_30 
REMARK       I    between atoms: S1_19  and  O1S_28 
REMARK       I    between atoms: S1_19  and  O3S_25 
REMARK       I    between atoms: S2_21  and  O6_29 
REMARK       I    between atoms: C2_24  and  N_30 
REMARK       I    between atoms: O6_29  and  C6_33 
ROOT
ATOM      1  O5S SGN d5702      65.806  40.960  29.875  0.00  0.00    -0.572 OA
ATOM      2  O2S SGN d5702      68.250  33.912  37.228  0.00  0.00    -0.296 OA
ATOM      3  O1  SGN d5702      66.144  36.013  33.408  0.00  0.00    -0.369 OA
ATOM      4  O4  SGN d5702      65.016  40.203  35.043  0.00  0.00    -0.348 OA
ATOM      5  O5  SGN d5702      67.312  38.025  33.249  0.00  0.00    -0.350 OA
ATOM      6  C5  SGN d5702      66.256  38.938  33.428  0.00  0.00     0.091 C 
ATOM      7  O4S SGN d5702      63.687  41.653  30.563  0.00  0.00    -0.572 OA
ATOM      8  C1  SGN d5702      67.194  36.781  33.945  0.00  0.00     0.147 C 
ATOM      9  O3  SGN d5702      65.668  38.139  37.040  0.00  0.00    -0.391 OA
ATOM     10  S1  SGN d5702      68.369  35.286  36.868  0.00  0.00     0.156 S 
ATOM     11  C4  SGN d5702      66.107  39.248  34.931  0.00  0.00     0.095 C 
ATOM     12  S2  SGN d5702      65.069  41.618  30.917  0.00  0.00     0.251 S 
ATOM     13  C2  SGN d5702      67.018  37.057  35.426  0.00  0.00     0.081 C 
ATOM     14  O3S SGN d5702      68.515  36.161  38.015  0.00  0.00    -0.296 OA
ATOM     15  O1S SGN d5702      69.450  35.394  35.909  0.00  0.00    -0.296 OA
ATOM     16  O6  SGN d5702      65.320  40.754  32.395  0.00  0.00    -0.254 OA
ATOM     17  N   SGN d5702      66.872  35.800  36.082  0.00  0.00    -0.210 NA
ATOM     18  C3  SGN d5702      65.800  37.912  35.658  0.00  0.00     0.083 C 
ATOM     19  C6  SGN d5702      66.588  40.160  32.629  0.00  0.00     0.067 C 
ATOM     20  O6S SGN d5702      65.527  42.951  31.177  0.00  0.00    -0.572 OA
ATOM     21  H   SGN d5702      68.155  33.374  36.427  0.00  0.00     0.231 HD
ATOM     22  H   SGN d5702      66.303  35.864  32.462  0.00  0.00     0.212 HD
ATOM     23  H   SGN d5702      65.320  38.544  33.092  0.00  0.00     0.090 H 
ATOM     24  H   SGN d5702      68.086  36.202  33.820  0.00  0.00     0.131 H 
ATOM     25  H   SGN d5702      64.886  38.689  37.204  0.00  0.00     0.210 HD
ATOM     26  H   SGN d5702      66.986  39.667  35.375  0.00  0.00     0.091 H 
ATOM     27  H   SGN d5702      67.865  37.586  35.812  0.00  0.00     0.076 H 
ATOM     28  H   SGN d5702      67.761  36.038  38.613  0.00  0.00     0.231 HD
ATOM     29  H   SGN d5702      69.290  34.786  35.171  0.00  0.00     0.231 HD
ATOM     30  H   SGN d5702      66.140  35.879  36.789  0.00  0.00     0.140 HD
ATOM     31  H   SGN d5702      64.897  37.462  35.303  0.00  0.00     0.089 H 
ATOM     32  H   SGN d5702      67.063  39.896  31.707  0.00  0.00     0.080 H 
ATOM     33  H   SGN d5702      67.270  40.814  33.130  0.00  0.00     0.080 H 
ATOM     34  C3  IDU d1623      61.850  41.249  36.823  0.00  0.00     0.069 C 
ATOM     35  O1S IDU d1623      63.881  45.097  35.849  0.00  0.00    -0.572 OA
ATOM     36  O2  IDU d1623      63.709  42.564  36.035  0.00  0.00    -0.244 OA
ATOM     37  S   IDU d1623      62.962  44.045  35.535  0.00  0.00     0.252 S 
ATOM     38  C4  IDU d1623      62.444  41.327  38.238  0.00  0.00    -0.005 C 
ATOM     39  C5  IDU d1623      63.474  40.202  38.428  0.00  0.00     0.127 C 
ATOM     40  O3S IDU d1623      62.609  43.989  34.166  0.00  0.00    -0.572 OA
ATOM     41  O5  IDU d1623      64.512  40.329  37.392  0.00  0.00    -0.343 OA
ATOM     42  O61 IDU d1623      63.280  40.237  40.780  0.00  0.00    -0.646 OA
ATOM     43  C2  IDU d1623      63.009  41.361  35.822  0.00  0.00     0.132 C 
ATOM     44  C6  IDU d1623      64.059  40.328  39.809  0.00  0.00     0.203 C 
ATOM     45  O62 IDU d1623      65.282  40.513  39.913  0.00  0.00    -0.646 OA
ATOM     46  O2S IDU d1623      61.720  44.267  36.260  0.00  0.00    -0.572 OA
ATOM     47  C1  IDU d1623      64.001  40.205  36.025  0.00  0.00     0.161 C 
ATOM     48  O3  IDU d1623      61.190  40.025  36.660  0.00  0.00    -0.393 OA
ATOM     49  H   IDU d1623      61.145  42.038  36.663  0.00  0.00     0.087 H 
ATOM     50  H   IDU d1623      61.661  41.218  38.960  0.00  0.00     0.041 H 
ATOM     51  H   IDU d1623      62.923  42.274  38.370  0.00  0.00     0.041 H 
ATOM     52  H   IDU d1623      63.022  39.238  38.332  0.00  0.00     0.100 H 
ATOM     53  H   IDU d1623      62.601  41.331  34.834  0.00  0.00     0.097 H 
ATOM     54  H   IDU d1623      63.523  39.255  35.906  0.00  0.00     0.133 H 
ATOM     55  H   IDU d1623      61.816  39.298  36.802  0.00  0.00     0.210 HD
ENDROOT
TORSDOF 16
ENDMDL
MODEL 53
REMARK VINA RESULT:      -4.5      2.549      8.115
REMARK  0 active torsions:
REMARK  status: ('A' for Active; 'I' for Inactive)
REMARK       I    between atoms: O2S_2  and  S1_19 
REMARK       I    between atoms: C3_3  and  O3_35 
REMARK       I    between atoms: O2_5  and  C2_22 
REMARK       I    between atoms: O2_5  and  S_7 
REMARK       I    between atoms: O1_6  and  C1_12 
REMARK       I    between atoms: O4_8  and  C1_32 
REMARK       I    between atoms: O4_8  and  C4_20 
REMARK       I    between atoms: C5_10  and  C6_33 
REMARK       I    between atoms: C5_14  and  C6_23 
REMARK       I    between atoms: O3_17  and  C3_31 
REMARK       I    between atoms: S1_19  and  N_30 
REMARK       I    between atoms: S1_19  and  O1S_28 
REMARK       I    between atoms: S1_19  and  O3S_25 
REMARK       I    between atoms: S2_21  and  O6_29 
REMARK       I    between atoms: C2_24  and  N_30 
REMARK       I    between atoms: O6_29  and  C6_33 
ROOT
ATOM      1  O5S SGN d5702      60.733  43.833  35.101  0.00  0.00    -0.572 OA
ATOM      2  O2S SGN d5702      68.315  38.776  29.936  0.00  0.00    -0.296 OA
ATOM      3  O1  SGN d5702      63.930  40.100  31.508  0.00  0.00    -0.369 OA
ATOM      4  O4  SGN d5702      64.506  40.276  36.106  0.00  0.00    -0.348 OA
ATOM      5  O5  SGN d5702      64.428  41.929  32.867  0.00  0.00    -0.350 OA
ATOM      6  C5  SGN d5702      63.940  41.460  34.101  0.00  0.00     0.091 C 
ATOM      7  O4S SGN d5702      60.050  42.223  36.644  0.00  0.00    -0.572 OA
ATOM      8  C1  SGN d5702      64.957  40.939  31.980  0.00  0.00     0.147 C 
ATOM      9  O3  SGN d5702      66.562  38.827  34.573  0.00  0.00    -0.391 OA
ATOM     10  S1  SGN d5702      68.056  39.653  31.031  0.00  0.00     0.156 S 
ATOM     11  C4  SGN d5702      65.070  40.718  34.841  0.00  0.00     0.095 C 
ATOM     12  S2  SGN d5702      61.139  43.047  36.231  0.00  0.00     0.251 S 
ATOM     13  C2  SGN d5702      66.055  40.173  32.694  0.00  0.00     0.081 C 
ATOM     14  O3S SGN d5702      69.054  39.559  32.079  0.00  0.00    -0.296 OA
ATOM     15  O1S SGN d5702      67.898  40.989  30.491  0.00  0.00    -0.296 OA
ATOM     16  O6  SGN d5702      62.511  42.096  35.772  0.00  0.00    -0.254 OA
ATOM     17  N   SGN d5702      66.536  39.176  31.795  0.00  0.00    -0.210 NA
ATOM     18  C3  SGN d5702      65.518  39.531  33.946  0.00  0.00     0.083 C 
ATOM     19  C6  SGN d5702      63.450  42.651  34.864  0.00  0.00     0.067 C 
ATOM     20  O6S SGN d5702      61.584  43.839  37.340  0.00  0.00    -0.572 OA
ATOM     21  H   SGN d5702      67.620  38.880  29.268  0.00  0.00     0.231 HD
ATOM     22  H   SGN d5702      63.255  40.635  31.061  0.00  0.00     0.212 HD
ATOM     23  H   SGN d5702      63.133  40.767  33.979  0.00  0.00     0.090 H 
ATOM     24  H   SGN d5702      65.386  41.406  31.118  0.00  0.00     0.131 H 
ATOM     25  H   SGN d5702      66.229  38.408  35.382  0.00  0.00     0.210 HD
ATOM     26  H   SGN d5702      65.931  41.324  35.034  0.00  0.00     0.091 H 
ATOM     27  H   SGN d5702      66.847  40.833  32.981  0.00  0.00     0.076 H 
ATOM     28  H   SGN d5702      69.108  38.643  32.392  0.00  0.00     0.231 HD
ATOM     29  H   SGN d5702      67.220  40.981  29.799  0.00  0.00     0.231 HD
ATOM     30  H   SGN d5702      66.686  38.310  32.313  0.00  0.00     0.140 HD
ATOM     31  H   SGN d5702      64.717  38.848  33.757  0.00  0.00     0.089 H 
ATOM     32  H   SGN d5702      62.981  43.357  34.211  0.00  0.00     0.080 H 
ATOM     33  H   SGN d5702      64.238  43.186  35.352  0.00  0.00     0.080 H 
ATOM     34  C3  IDU d1623      64.097  37.488  38.627  0.00  0.00     0.069 C 
ATOM     35  O1S IDU d1623      64.385  41.179  41.112  0.00  0.00    -0.572 OA
ATOM     36  O2  IDU d1623      64.500  39.843  38.948  0.00  0.00    -0.244 OA
ATOM     37  S   IDU d1623      63.623  40.198  40.399  0.00  0.00     0.252 S 
ATOM     38  C4  IDU d1623      65.593  37.237  38.877  0.00  0.00    -0.005 C 
ATOM     39  C5  IDU d1623      66.372  37.406  37.563  0.00  0.00     0.127 C 
ATOM     40  O3S IDU d1623      62.304  40.613  40.097  0.00  0.00    -0.572 OA
ATOM     41  O5  IDU d1623      66.125  38.757  37.035  0.00  0.00    -0.343 OA
ATOM     42  O61 IDU d1623      68.175  36.076  38.304  0.00  0.00    -0.646 OA
ATOM     43  C2  IDU d1623      63.950  38.906  38.052  0.00  0.00     0.132 C 
ATOM     44  C6  IDU d1623      67.833  37.187  37.851  0.00  0.00     0.203 C 
ATOM     45  O62 IDU d1623      68.620  38.118  37.622  0.00  0.00    -0.646 OA
ATOM     46  O2S IDU d1623      63.489  39.009  41.227  0.00  0.00    -0.572 OA
ATOM     47  C1  IDU d1623      64.719  39.025  36.727  0.00  0.00     0.161 C 
ATOM     48  O3  IDU d1623      63.612  36.546  37.712  0.00  0.00    -0.393 OA
ATOM     49  H   IDU d1623      63.540  37.397  39.535  0.00  0.00     0.087 H 
ATOM     50  H   IDU d1623      65.730  36.243  39.248  0.00  0.00     0.041 H 
ATOM     51  H   IDU d1623      65.954  37.941  39.597  0.00  0.00     0.041 H 
ATOM     52  H   IDU d1623      66.055  36.697  36.828  0.00  0.00     0.100 H 
ATOM     53  H   IDU d1623      62.909  39.096  37.897  0.00  0.00     0.097 H 
ATOM     54  H   IDU d1623      64.368  38.315  36.007  0.00  0.00     0.133 H 
ATOM     55  H   IDU d1623      64.109  36.616  36.881  0.00  0.00     0.210 HD
ENDROOT
TORSDOF 16
ENDMDL
MODEL 54
REMARK VINA RESULT:      -4.5      4.359      7.627
REMARK  0 active torsions:
REMARK  status: ('A' for Active; 'I' for Inactive)
REMARK       I    between atoms: O2S_2  and  S1_19 
REMARK       I    between atoms: C3_3  and  O3_35 
REMARK       I    between atoms: O2_5  and  C2_22 
REMARK       I    between atoms: O2_5  and  S_7 
REMARK       I    between atoms: O1_6  and  C1_12 
REMARK       I    between atoms: O4_8  and  C1_32 
REMARK       I    between atoms: O4_8  and  C4_20 
REMARK       I    between atoms: C5_10  and  C6_33 
REMARK       I    between atoms: C5_14  and  C6_23 
REMARK       I    between atoms: O3_17  and  C3_31 
REMARK       I    between atoms: S1_19  and  N_30 
REMARK       I    between atoms: S1_19  and  O1S_28 
REMARK       I    between atoms: S1_19  and  O3S_25 
REMARK       I    between atoms: S2_21  and  O6_29 
REMARK       I    between atoms: C2_24  and  N_30 
REMARK       I    between atoms: O6_29  and  C6_33 
ROOT
ATOM      1  O5S SGN d5702      67.379  45.088  42.556  0.00  0.00    -0.572 OA
ATOM      2  O2S SGN d5702      62.840  35.669  41.921  0.00  0.00    -0.296 OA
ATOM      3  O1  SGN d5702      66.200  39.156  41.860  0.00  0.00    -0.369 OA
ATOM      4  O4  SGN d5702      64.211  42.442  39.261  0.00  0.00    -0.348 OA
ATOM      5  O5  SGN d5702      64.976  41.027  42.523  0.00  0.00    -0.350 OA
ATOM      6  C5  SGN d5702      65.138  41.843  41.389  0.00  0.00     0.091 C 
ATOM      7  O4S SGN d5702      67.840  45.549  40.316  0.00  0.00    -0.572 OA
ATOM      8  C1  SGN d5702      64.940  39.617  42.286  0.00  0.00     0.147 C 
ATOM      9  O3  SGN d5702      63.035  39.746  39.106  0.00  0.00    -0.391 OA
ATOM     10  S1  SGN d5702      62.581  37.071  41.953  0.00  0.00     0.156 S 
ATOM     11  C4  SGN d5702      63.993  41.560  40.396  0.00  0.00     0.095 C 
ATOM     12  S2  SGN d5702      66.798  45.326  41.265  0.00  0.00     0.251 S 
ATOM     13  C2  SGN d5702      63.838  39.312  41.290  0.00  0.00     0.081 C 
ATOM     14  O3S SGN d5702      61.344  37.433  41.289  0.00  0.00    -0.296 OA
ATOM     15  O1S SGN d5702      62.646  37.495  43.338  0.00  0.00    -0.296 OA
ATOM     16  O6  SGN d5702      65.837  43.952  40.836  0.00  0.00    -0.254 OA
ATOM     17  N   SGN d5702      63.852  37.906  41.053  0.00  0.00    -0.210 NA
ATOM     18  C3  SGN d5702      64.072  40.060  40.004  0.00  0.00     0.083 C 
ATOM     19  C6  SGN d5702      65.138  43.263  41.862  0.00  0.00     0.067 C 
ATOM     20  O6S SGN d5702      65.894  46.438  41.249  0.00  0.00    -0.572 OA
ATOM     21  H   SGN d5702      63.676  35.484  42.377  0.00  0.00     0.231 HD
ATOM     22  H   SGN d5702      66.868  39.375  42.529  0.00  0.00     0.212 HD
ATOM     23  H   SGN d5702      66.057  41.646  40.876  0.00  0.00     0.090 H 
ATOM     24  H   SGN d5702      64.719  39.095  43.194  0.00  0.00     0.131 H 
ATOM     25  H   SGN d5702      63.174  40.222  38.273  0.00  0.00     0.210 HD
ATOM     26  H   SGN d5702      63.018  41.741  40.799  0.00  0.00     0.091 H 
ATOM     27  H   SGN d5702      62.887  39.618  41.676  0.00  0.00     0.076 H 
ATOM     28  H   SGN d5702      61.367  37.120  40.371  0.00  0.00     0.231 HD
ATOM     29  H   SGN d5702      63.495  37.222  43.720  0.00  0.00     0.231 HD
ATOM     30  H   SGN d5702      63.713  37.738  40.056  0.00  0.00     0.140 HD
ATOM     31  H   SGN d5702      65.004  39.817  39.540  0.00  0.00     0.089 H 
ATOM     32  H   SGN d5702      65.646  43.355  42.799  0.00  0.00     0.080 H 
ATOM     33  H   SGN d5702      64.153  43.648  42.027  0.00  0.00     0.080 H 
ATOM     34  C3  IDU d1623      64.332  42.851  35.505  0.00  0.00     0.069 C 
ATOM     35  O1S IDU d1623      62.611  46.694  36.971  0.00  0.00    -0.572 OA
ATOM     36  O2  IDU d1623      63.420  44.292  37.208  0.00  0.00    -0.244 OA
ATOM     37  S   IDU d1623      63.724  45.880  36.585  0.00  0.00     0.252 S 
ATOM     38  C4  IDU d1623      62.906  42.357  35.213  0.00  0.00    -0.005 C 
ATOM     39  C5  IDU d1623      62.553  41.205  36.168  0.00  0.00     0.127 C 
ATOM     40  O3S IDU d1623      64.970  46.367  37.046  0.00  0.00    -0.572 OA
ATOM     41  O5  IDU d1623      62.696  41.678  37.555  0.00  0.00    -0.343 OA
ATOM     42  O61 IDU d1623      60.890  40.345  34.733  0.00  0.00    -0.646 OA
ATOM     43  C2  IDU d1623      64.383  43.292  36.976  0.00  0.00     0.132 C 
ATOM     44  C6  IDU d1623      61.143  40.769  35.879  0.00  0.00     0.203 C 
ATOM     45  O62 IDU d1623      60.306  40.851  36.791  0.00  0.00    -0.646 OA
ATOM     46  O2S IDU d1623      63.814  45.857  35.133  0.00  0.00    -0.572 OA
ATOM     47  C1  IDU d1623      64.053  42.107  37.898  0.00  0.00     0.161 C 
ATOM     48  O3  IDU d1623      65.242  41.810  35.283  0.00  0.00    -0.393 OA
ATOM     49  H   IDU d1623      64.589  43.669  34.865  0.00  0.00     0.087 H 
ATOM     50  H   IDU d1623      62.849  42.012  34.202  0.00  0.00     0.041 H 
ATOM     51  H   IDU d1623      62.216  43.162  35.357  0.00  0.00     0.041 H 
ATOM     52  H   IDU d1623      63.208  40.370  36.031  0.00  0.00     0.100 H 
ATOM     53  H   IDU d1623      65.367  43.659  37.180  0.00  0.00     0.097 H 
ATOM     54  H   IDU d1623      64.734  41.296  37.749  0.00  0.00     0.133 H 
ATOM     55  H   IDU d1623      65.022  41.061  35.857  0.00  0.00     0.210 HD
ENDROOT
TORSDOF 16
ENDMDL
MODEL 55
REMARK VINA RESULT:      -4.5      3.775      7.593
REMARK  0 active torsions:
REMARK  status: ('A' for Active; 'I' for Inactive)
REMARK       I    between atoms: O2S_2  and  S1_19 
REMARK       I    between atoms: C3_3  and  O3_35 
REMARK       I    between atoms: O2_5  and  C2_22 
REMARK       I    between atoms: O2_5  and  S_7 
REMARK       I    between atoms: O1_6  and  C1_12 
REMARK       I    between atoms: O4_8  and  C1_32 
REMARK       I    between atoms: O4_8  and  C4_20 
REMARK       I    between atoms: C5_10  and  C6_33 
REMARK       I    between atoms: C5_14  and  C6_23 
REMARK       I    between atoms: O3_17  and  C3_31 
REMARK       I    between atoms: S1_19  and  N_30 
REMARK       I    between atoms: S1_19  and  O1S_28 
REMARK       I    between atoms: S1_19  and  O3S_25 
REMARK       I    between atoms: S2_21  and  O6_29 
REMARK       I    between atoms: C2_24  and  N_30 
REMARK       I    between atoms: O6_29  and  C6_33 
ROOT
ATOM      1  O5S SGN d5702      63.250  43.100  33.621  0.00  0.00    -0.572 OA
ATOM      2  O2S SGN d5702      60.671  47.125  42.942  0.00  0.00    -0.296 OA
ATOM      3  O1  SGN d5702      63.042  46.289  38.804  0.00  0.00    -0.369 OA
ATOM      4  O4  SGN d5702      63.315  41.660  38.703  0.00  0.00    -0.348 OA
ATOM      5  O5  SGN d5702      61.649  44.748  37.743  0.00  0.00    -0.350 OA
ATOM      6  C5  SGN d5702      62.529  43.655  37.632  0.00  0.00     0.091 C 
ATOM      7  O4S SGN d5702      65.119  41.812  34.158  0.00  0.00    -0.572 OA
ATOM      8  C1  SGN d5702      61.826  45.586  38.889  0.00  0.00     0.147 C 
ATOM      9  O3  SGN d5702      62.648  42.886  41.297  0.00  0.00    -0.391 OA
ATOM     10  S1  SGN d5702      60.423  46.041  42.048  0.00  0.00     0.156 S 
ATOM     11  C4  SGN d5702      62.396  42.772  38.889  0.00  0.00     0.095 C 
ATOM     12  S2  SGN d5702      63.717  41.968  34.370  0.00  0.00     0.251 S 
ATOM     13  C2  SGN d5702      61.728  44.736  40.142  0.00  0.00     0.081 C 
ATOM     14  O3S SGN d5702      59.981  44.838  42.728  0.00  0.00    -0.296 OA
ATOM     15  O1S SGN d5702      59.501  46.513  41.035  0.00  0.00    -0.296 OA
ATOM     16  O6  SGN d5702      63.358  42.232  36.043  0.00  0.00    -0.254 OA
ATOM     17  N   SGN d5702      61.940  45.596  41.260  0.00  0.00    -0.210 NA
ATOM     18  C3  SGN d5702      62.766  43.645  40.118  0.00  0.00     0.083 C 
ATOM     19  C6  SGN d5702      62.162  42.918  36.382  0.00  0.00     0.067 C 
ATOM     20  O6S SGN d5702      63.045  40.748  34.028  0.00  0.00    -0.572 OA
ATOM     21  H   SGN d5702      60.963  47.899  42.437  0.00  0.00     0.231 HD
ATOM     22  H   SGN d5702      63.055  46.814  37.988  0.00  0.00     0.212 HD
ATOM     23  H   SGN d5702      63.552  43.964  37.569  0.00  0.00     0.090 H 
ATOM     24  H   SGN d5702      61.052  46.325  38.929  0.00  0.00     0.131 H 
ATOM     25  H   SGN d5702      63.311  42.179  41.293  0.00  0.00     0.210 HD
ATOM     26  H   SGN d5702      61.410  42.389  39.046  0.00  0.00     0.091 H 
ATOM     27  H   SGN d5702      60.767  44.269  40.205  0.00  0.00     0.076 H 
ATOM     28  H   SGN d5702      60.641  44.579  43.389  0.00  0.00     0.231 HD
ATOM     29  H   SGN d5702      59.856  47.316  40.623  0.00  0.00     0.231 HD
ATOM     30  H   SGN d5702      62.534  45.116  41.937  0.00  0.00     0.140 HD
ATOM     31  H   SGN d5702      63.766  44.019  40.056  0.00  0.00     0.089 H 
ATOM     32  H   SGN d5702      61.878  43.598  35.606  0.00  0.00     0.080 H 
ATOM     33  H   SGN d5702      61.327  42.262  36.513  0.00  0.00     0.080 H 
ATOM     34  C3  IDU d1623      65.990  39.438  40.186  0.00  0.00     0.069 C 
ATOM     35  O1S IDU d1623      63.629  36.711  37.564  0.00  0.00    -0.572 OA
ATOM     36  O2  IDU d1623      64.114  38.899  38.771  0.00  0.00    -0.244 OA
ATOM     37  S   IDU d1623      64.721  37.610  37.785  0.00  0.00     0.252 S 
ATOM     38  C4  IDU d1623      65.176  38.938  41.390  0.00  0.00    -0.005 C 
ATOM     39  C5  IDU d1623      64.292  40.077  41.924  0.00  0.00     0.127 C 
ATOM     40  O3S IDU d1623      65.289  38.118  36.593  0.00  0.00    -0.572 OA
ATOM     41  O5  IDU d1623      63.423  40.554  40.837  0.00  0.00    -0.343 OA
ATOM     42  O61 IDU d1623      64.109  39.110  44.069  0.00  0.00    -0.646 OA
ATOM     43  C2  IDU d1623      64.997  39.938  39.125  0.00  0.00     0.132 C 
ATOM     44  C6  IDU d1623      63.487  39.545  43.079  0.00  0.00     0.203 C 
ATOM     45  O62 IDU d1623      62.250  39.568  42.989  0.00  0.00    -0.646 OA
ATOM     46  O2S IDU d1623      65.792  36.898  38.467  0.00  0.00    -0.572 OA
ATOM     47  C1  IDU d1623      64.154  41.093  39.688  0.00  0.00     0.161 C 
ATOM     48  O3  IDU d1623      66.829  40.484  40.590  0.00  0.00    -0.393 OA
ATOM     49  H   IDU d1623      66.596  38.653  39.785  0.00  0.00     0.087 H 
ATOM     50  H   IDU d1623      65.844  38.614  42.161  0.00  0.00     0.041 H 
ATOM     51  H   IDU d1623      64.557  38.121  41.085  0.00  0.00     0.041 H 
ATOM     52  H   IDU d1623      64.883  40.901  42.266  0.00  0.00     0.100 H 
ATOM     53  H   IDU d1623      65.556  40.266  38.274  0.00  0.00     0.097 H 
ATOM     54  H   IDU d1623      64.770  41.907  40.005  0.00  0.00     0.133 H 
ATOM     55  H   IDU d1623      66.293  41.205  40.956  0.00  0.00     0.210 HD
ENDROOT
TORSDOF 16
ENDMDL
MODEL 56
REMARK VINA RESULT:      -4.5      4.675      8.145
REMARK  0 active torsions:
REMARK  status: ('A' for Active; 'I' for Inactive)
REMARK       I    between atoms: O2S_2  and  S1_19 
REMARK       I    between atoms: C3_3  and  O3_35 
REMARK       I    between atoms: O2_5  and  C2_22 
REMARK       I    between atoms: O2_5  and  S_7 
REMARK       I    between atoms: O1_6  and  C1_12 
REMARK       I    between atoms: O4_8  and  C1_32 
REMARK       I    between atoms: O4_8  and  C4_20 
REMARK       I    between atoms: C5_10  and  C6_33 
REMARK       I    between atoms: C5_14  and  C6_23 
REMARK       I    between atoms: O3_17  and  C3_31 
REMARK       I    between atoms: S1_19  and  N_30 
REMARK       I    between atoms: S1_19  and  O1S_28 
REMARK       I    between atoms: S1_19  and  O3S_25 
REMARK       I    between atoms: S2_21  and  O6_29 
REMARK       I    between atoms: C2_24  and  N_30 
REMARK       I    between atoms: O6_29  and  C6_33 
ROOT
ATOM      1  O5S SGN d5702      66.288  44.259  43.899  0.00  0.00    -0.572 OA
ATOM      2  O2S SGN d5702      63.517  34.653  40.773  0.00  0.00    -0.296 OA
ATOM      3  O1  SGN d5702      66.204  38.559  41.761  0.00  0.00    -0.369 OA
ATOM      4  O4  SGN d5702      63.737  41.998  39.864  0.00  0.00    -0.348 OA
ATOM      5  O5  SGN d5702      64.648  39.986  42.754  0.00  0.00    -0.350 OA
ATOM      6  C5  SGN d5702      64.695  41.066  41.854  0.00  0.00     0.091 C 
ATOM      7  O4S SGN d5702      66.724  45.316  41.865  0.00  0.00    -0.572 OA
ATOM      8  C1  SGN d5702      64.870  38.688  42.194  0.00  0.00     0.147 C 
ATOM      9  O3  SGN d5702      63.065  39.262  39.004  0.00  0.00    -0.391 OA
ATOM     10  S1  SGN d5702      63.012  35.943  41.113  0.00  0.00     0.156 S 
ATOM     11  C4  SGN d5702      63.647  40.844  40.745  0.00  0.00     0.095 C 
ATOM     12  S2  SGN d5702      65.711  44.701  42.661  0.00  0.00     0.251 S 
ATOM     13  C2  SGN d5702      63.869  38.454  41.078  0.00  0.00     0.081 C 
ATOM     14  O3S SGN d5702      61.750  36.244  40.465  0.00  0.00    -0.296 OA
ATOM     15  O1S SGN d5702      62.961  36.025  42.559  0.00  0.00    -0.296 OA
ATOM     16  O6  SGN d5702      65.023  43.332  41.857  0.00  0.00    -0.254 OA
ATOM     17  N   SGN d5702      64.139  37.168  40.523  0.00  0.00    -0.210 NA
ATOM     18  C3  SGN d5702      64.003  39.518  40.021  0.00  0.00     0.083 C 
ATOM     19  C6  SGN d5702      64.428  42.310  42.643  0.00  0.00     0.067 C 
ATOM     20  O6S SGN d5702      64.624  45.619  42.840  0.00  0.00    -0.572 OA
ATOM     21  H   SGN d5702      64.359  34.505  41.232  0.00  0.00     0.231 HD
ATOM     22  H   SGN d5702      66.802  38.718  42.508  0.00  0.00     0.212 HD
ATOM     23  H   SGN d5702      65.648  41.153  41.376  0.00  0.00     0.090 H 
ATOM     24  H   SGN d5702      64.719  37.933  42.938  0.00  0.00     0.131 H 
ATOM     25  H   SGN d5702      63.141  39.941  38.317  0.00  0.00     0.210 HD
ATOM     26  H   SGN d5702      62.644  40.759  41.109  0.00  0.00     0.091 H 
ATOM     27  H   SGN d5702      62.868  38.496  41.457  0.00  0.00     0.076 H 
ATOM     28  H   SGN d5702      61.855  36.170  39.503  0.00  0.00     0.231 HD
ATOM     29  H   SGN d5702      63.833  35.813  42.926  0.00  0.00     0.231 HD
ATOM     30  H   SGN d5702      64.061  37.225  39.507  0.00  0.00     0.140 HD
ATOM     31  H   SGN d5702      64.977  39.552  39.581  0.00  0.00     0.089 H 
ATOM     32  H   SGN d5702      64.884  42.256  43.610  0.00  0.00     0.080 H 
ATOM     33  H   SGN d5702      63.386  42.475  42.824  0.00  0.00     0.080 H 
ATOM     34  C3  IDU d1623      63.892  43.315  36.324  0.00  0.00     0.069 C 
ATOM     35  O1S IDU d1623      61.473  46.351  38.518  0.00  0.00    -0.572 OA
ATOM     36  O2  IDU d1623      62.689  44.131  38.247  0.00  0.00    -0.244 OA
ATOM     37  S   IDU d1623      62.724  45.850  38.033  0.00  0.00     0.252 S 
ATOM     38  C4  IDU d1623      62.586  42.677  35.826  0.00  0.00    -0.005 C 
ATOM     39  C5  IDU d1623      62.416  41.286  36.460  0.00  0.00     0.127 C 
ATOM     40  O3S IDU d1623      63.850  46.411  38.681  0.00  0.00    -0.572 OA
ATOM     41  O5  IDU d1623      62.432  41.427  37.925  0.00  0.00    -0.343 OA
ATOM     42  O61 IDU d1623      60.975  40.534  34.750  0.00  0.00    -0.646 OA
ATOM     43  C2  IDU d1623      63.822  43.390  37.857  0.00  0.00     0.132 C 
ATOM     44  C6  IDU d1623      61.114  40.705  35.978  0.00  0.00     0.203 C 
ATOM     45  O62 IDU d1623      60.250  40.425  36.823  0.00  0.00    -0.646 OA
ATOM     46  O2S IDU d1623      62.859  46.193  36.626  0.00  0.00    -0.572 OA
ATOM     47  C1  IDU d1623      63.681  41.980  38.453  0.00  0.00     0.161 C 
ATOM     48  O3  IDU d1623      64.979  42.524  35.931  0.00  0.00    -0.393 OA
ATOM     49  H   IDU d1623      64.018  44.294  35.911  0.00  0.00     0.087 H 
ATOM     50  H   IDU d1623      62.620  42.581  34.761  0.00  0.00     0.041 H 
ATOM     51  H   IDU d1623      61.760  43.297  36.103  0.00  0.00     0.041 H 
ATOM     52  H   IDU d1623      63.212  40.629  36.179  0.00  0.00     0.100 H 
ATOM     53  H   IDU d1623      64.718  43.855  38.209  0.00  0.00     0.097 H 
ATOM     54  H   IDU d1623      64.500  41.353  38.168  0.00  0.00     0.133 H 
ATOM     55  H   IDU d1623      64.879  41.632  36.298  0.00  0.00     0.210 HD
ENDROOT
TORSDOF 16
ENDMDL
MODEL 57
REMARK VINA RESULT:      -4.4      4.878      9.639
REMARK  0 active torsions:
REMARK  status: ('A' for Active; 'I' for Inactive)
REMARK       I    between atoms: O2S_2  and  S1_19 
REMARK       I    between atoms: C3_3  and  O3_35 
REMARK       I    between atoms: O2_5  and  C2_22 
REMARK       I    between atoms: O2_5  and  S_7 
REMARK       I    between atoms: O1_6  and  C1_12 
REMARK       I    between atoms: O4_8  and  C1_32 
REMARK       I    between atoms: O4_8  and  C4_20 
REMARK       I    between atoms: C5_10  and  C6_33 
REMARK       I    between atoms: C5_14  and  C6_23 
REMARK       I    between atoms: O3_17  and  C3_31 
REMARK       I    between atoms: S1_19  and  N_30 
REMARK       I    between atoms: S1_19  and  O1S_28 
REMARK       I    between atoms: S1_19  and  O3S_25 
REMARK       I    between atoms: S2_21  and  O6_29 
REMARK       I    between atoms: C2_24  and  N_30 
REMARK       I    between atoms: O6_29  and  C6_33 
ROOT
ATOM      1  O5S SGN d5702      60.345  44.424  36.515  0.00  0.00    -0.572 OA
ATOM      2  O2S SGN d5702      64.090  35.014  39.190  0.00  0.00    -0.296 OA
ATOM      3  O1  SGN d5702      61.133  38.826  38.777  0.00  0.00    -0.369 OA
ATOM      4  O4  SGN d5702      63.907  42.387  39.841  0.00  0.00    -0.348 OA
ATOM      5  O5  SGN d5702      62.342  40.233  37.363  0.00  0.00    -0.350 OA
ATOM      6  C5  SGN d5702      62.497  41.352  38.202  0.00  0.00     0.091 C 
ATOM      7  O4S SGN d5702      60.416  45.563  38.550  0.00  0.00    -0.572 OA
ATOM      8  C1  SGN d5702      62.307  38.959  38.011  0.00  0.00     0.147 C 
ATOM      9  O3  SGN d5702      64.853  39.704  40.604  0.00  0.00    -0.391 OA
ATOM     10  S1  SGN d5702      64.455  36.296  38.682  0.00  0.00     0.156 S 
ATOM     11  C4  SGN d5702      63.800  41.197  39.012  0.00  0.00     0.095 C 
ATOM     12  S2  SGN d5702      61.208  44.930  37.545  0.00  0.00     0.251 S 
ATOM     13  C2  SGN d5702      63.567  38.791  38.840  0.00  0.00     0.081 C 
ATOM     14  O3S SGN d5702      65.832  36.646  38.972  0.00  0.00    -0.296 OA
ATOM     15  O1S SGN d5702      64.132  36.314  37.270  0.00  0.00    -0.296 OA
ATOM     16  O6  SGN d5702      62.117  43.609  38.196  0.00  0.00    -0.254 OA
ATOM     17  N   SGN d5702      63.484  37.527  39.495  0.00  0.00    -0.210 NA
ATOM     18  C3  SGN d5702      63.679  39.898  39.853  0.00  0.00     0.083 C 
ATOM     19  C6  SGN d5702      62.518  42.564  37.324  0.00  0.00     0.067 C 
ATOM     20  O6S SGN d5702      62.186  45.857  37.057  0.00  0.00    -0.572 OA
ATOM     21  H   SGN d5702      63.164  34.831  38.969  0.00  0.00     0.231 HD
ATOM     22  H   SGN d5702      60.359  38.941  38.203  0.00  0.00     0.212 HD
ATOM     23  H   SGN d5702      61.697  41.444  38.906  0.00  0.00     0.090 H 
ATOM     24  H   SGN d5702      62.283  38.174  37.283  0.00  0.00     0.131 H 
ATOM     25  H   SGN d5702      64.937  40.412  41.261  0.00  0.00     0.210 HD
ATOM     26  H   SGN d5702      64.678  41.113  38.406  0.00  0.00     0.091 H 
ATOM     27  H   SGN d5702      64.435  38.833  38.214  0.00  0.00     0.076 H 
ATOM     28  H   SGN d5702      65.980  36.614  39.930  0.00  0.00     0.231 HD
ATOM     29  H   SGN d5702      63.201  36.071  37.148  0.00  0.00     0.231 HD
ATOM     30  H   SGN d5702      63.818  37.630  40.453  0.00  0.00     0.140 HD
ATOM     31  H   SGN d5702      62.850  39.936  40.528  0.00  0.00     0.089 H 
ATOM     32  H   SGN d5702      61.831  42.459  36.510  0.00  0.00     0.080 H 
ATOM     33  H   SGN d5702      63.474  42.738  36.875  0.00  0.00     0.080 H 
ATOM     34  C3  IDU d1623      64.629  43.857  43.249  0.00  0.00     0.069 C 
ATOM     35  O1S IDU d1623      66.319  46.833  40.390  0.00  0.00    -0.572 OA
ATOM     36  O2  IDU d1623      65.275  44.607  41.051  0.00  0.00    -0.244 OA
ATOM     37  S   IDU d1623      65.249  46.333  41.200  0.00  0.00     0.252 S 
ATOM     38  C4  IDU d1623      66.036  43.263  43.418  0.00  0.00    -0.005 C 
ATOM     39  C5  IDU d1623      66.076  41.849  42.816  0.00  0.00     0.127 C 
ATOM     40  O3S IDU d1623      63.979  46.846  40.843  0.00  0.00    -0.572 OA
ATOM     41  O5  IDU d1623      65.681  41.925  41.400  0.00  0.00    -0.343 OA
ATOM     42  O61 IDU d1623      67.928  41.198  44.125  0.00  0.00    -0.646 OA
ATOM     43  C2  IDU d1623      64.302  43.866  41.747  0.00  0.00     0.132 C 
ATOM     44  C6  IDU d1623      67.473  41.312  42.968  0.00  0.00     0.203 C 
ATOM     45  O62 IDU d1623      68.099  41.010  41.941  0.00  0.00    -0.646 OA
ATOM     46  O2S IDU d1623      65.470  46.736  42.581  0.00  0.00    -0.572 OA
ATOM     47  C1  IDU d1623      64.324  42.433  41.190  0.00  0.00     0.161 C 
ATOM     48  O3  IDU d1623      63.702  43.066  43.939  0.00  0.00    -0.393 OA
ATOM     49  H   IDU d1623      64.586  44.851  43.642  0.00  0.00     0.087 H 
ATOM     50  H   IDU d1623      66.279  43.214  44.459  0.00  0.00     0.041 H 
ATOM     51  H   IDU d1623      66.746  43.884  42.914  0.00  0.00     0.041 H 
ATOM     52  H   IDU d1623      65.397  41.192  43.318  0.00  0.00     0.100 H 
ATOM     53  H   IDU d1623      63.332  44.299  41.620  0.00  0.00     0.097 H 
ATOM     54  H   IDU d1623      63.623  41.805  41.700  0.00  0.00     0.133 H 
ATOM     55  H   IDU d1623      63.729  42.161  43.592  0.00  0.00     0.210 HD
ENDROOT
TORSDOF 16
ENDMDL
MODEL 58
REMARK VINA RESULT:      -4.4      2.819      6.703
REMARK  0 active torsions:
REMARK  status: ('A' for Active; 'I' for Inactive)
REMARK       I    between atoms: O2S_2  and  S1_19 
REMARK       I    between atoms: C3_3  and  O3_35 
REMARK       I    between atoms: O2_5  and  C2_22 
REMARK       I    between atoms: O2_5  and  S_7 
REMARK       I    between atoms: O1_6  and  C1_12 
REMARK       I    between atoms: O4_8  and  C1_32 
REMARK       I    between atoms: O4_8  and  C4_20 
REMARK       I    between atoms: C5_10  and  C6_33 
REMARK       I    between atoms: C5_14  and  C6_23 
REMARK       I    between atoms: O3_17  and  C3_31 
REMARK       I    between atoms: S1_19  and  N_30 
REMARK       I    between atoms: S1_19  and  O1S_28 
REMARK       I    between atoms: S1_19  and  O3S_25 
REMARK       I    between atoms: S2_21  and  O6_29 
REMARK       I    between atoms: C2_24  and  N_30 
REMARK       I    between atoms: O6_29  and  C6_33 
ROOT
ATOM      1  O5S SGN d5702      65.902  37.491  30.112  0.00  0.00    -0.572 OA
ATOM      2  O2S SGN d5702      66.750  35.572  40.375  0.00  0.00    -0.296 OA
ATOM      3  O1  SGN d5702      65.125  35.502  35.814  0.00  0.00    -0.369 OA
ATOM      4  O4  SGN d5702      65.066  40.000  34.684  0.00  0.00    -0.348 OA
ATOM      5  O5  SGN d5702      66.736  36.769  34.700  0.00  0.00    -0.350 OA
ATOM      6  C5  SGN d5702      65.933  37.816  34.212  0.00  0.00     0.091 C 
ATOM      7  O4S SGN d5702      64.026  38.875  30.038  0.00  0.00    -0.572 OA
ATOM      8  C1  SGN d5702      66.340  36.200  35.952  0.00  0.00     0.147 C 
ATOM      9  O3  SGN d5702      65.249  39.363  37.555  0.00  0.00    -0.391 OA
ATOM     10  S1  SGN d5702      67.186  36.435  39.326  0.00  0.00     0.156 S 
ATOM     11  C4  SGN d5702      65.895  38.950  35.256  0.00  0.00     0.095 C 
ATOM     12  S2  SGN d5702      65.367  38.761  30.513  0.00  0.00     0.251 S 
ATOM     13  C2  SGN d5702      66.266  37.301  36.993  0.00  0.00     0.081 C 
ATOM     14  O3S SGN d5702      67.561  37.754  39.798  0.00  0.00    -0.296 OA
ATOM     15  O1S SGN d5702      68.241  35.749  38.607  0.00  0.00    -0.296 OA
ATOM     16  O6  SGN d5702      65.435  38.865  32.239  0.00  0.00    -0.254 OA
ATOM     17  N   SGN d5702      65.839  36.706  38.216  0.00  0.00    -0.210 NA
ATOM     18  C3  SGN d5702      65.293  38.367  36.562  0.00  0.00     0.083 C 
ATOM     19  C6  SGN d5702      66.530  38.262  32.914  0.00  0.00     0.067 C 
ATOM     20  O6S SGN d5702      66.136  39.874  30.037  0.00  0.00    -0.572 OA
ATOM     21  H   SGN d5702      66.512  34.708  40.005  0.00  0.00     0.231 HD
ATOM     22  H   SGN d5702      65.224  34.812  35.139  0.00  0.00     0.212 HD
ATOM     23  H   SGN d5702      64.922  37.506  34.044  0.00  0.00     0.090 H 
ATOM     24  H   SGN d5702      67.065  35.484  36.278  0.00  0.00     0.131 H 
ATOM     25  H   SGN d5702      64.625  40.056  37.289  0.00  0.00     0.210 HD
ATOM     26  H   SGN d5702      66.858  39.353  35.491  0.00  0.00     0.091 H 
ATOM     27  H   SGN d5702      67.223  37.766  37.116  0.00  0.00     0.076 H 
ATOM     28  H   SGN d5702      66.813  38.154  40.268  0.00  0.00     0.231 HD
ATOM     29  H   SGN d5702      67.924  34.878  38.322  0.00  0.00     0.231 HD
ATOM     30  H   SGN d5702      65.162  37.325  38.665  0.00  0.00     0.140 HD
ATOM     31  H   SGN d5702      64.301  37.994  36.414  0.00  0.00     0.089 H 
ATOM     32  H   SGN d5702      66.908  37.428  32.360  0.00  0.00     0.080 H 
ATOM     33  H   SGN d5702      67.359  38.926  33.041  0.00  0.00     0.080 H 
ATOM     34  C3  IDU d1623      62.280  42.505  35.186  0.00  0.00     0.069 C 
ATOM     35  O1S IDU d1623      65.150  44.585  32.481  0.00  0.00    -0.572 OA
ATOM     36  O2  IDU d1623      64.383  42.714  34.027  0.00  0.00    -0.244 OA
ATOM     37  S   IDU d1623      64.000  43.761  32.701  0.00  0.00     0.252 S 
ATOM     38  C4  IDU d1623      62.906  43.250  36.376  0.00  0.00    -0.005 C 
ATOM     39  C5  IDU d1623      63.642  42.250  37.282  0.00  0.00     0.127 C 
ATOM     40  O3S IDU d1623      63.615  43.010  31.566  0.00  0.00    -0.572 OA
ATOM     41  O5  IDU d1623      64.657  41.544  36.484  0.00  0.00    -0.343 OA
ATOM     42  O61 IDU d1623      63.513  43.659  39.171  0.00  0.00    -0.646 OA
ATOM     43  C2  IDU d1623      63.411  41.782  34.439  0.00  0.00     0.132 C 
ATOM     44  C6  IDU d1623      64.270  43.016  38.416  0.00  0.00     0.203 C 
ATOM     45  O62 IDU d1623      65.503  42.967  38.543  0.00  0.00    -0.646 OA
ATOM     46  O2S IDU d1623      62.863  44.610  33.025  0.00  0.00    -0.572 OA
ATOM     47  C1  IDU d1623      64.102  40.772  35.370  0.00  0.00     0.161 C 
ATOM     48  O3  IDU d1623      61.344  41.577  35.657  0.00  0.00    -0.393 OA
ATOM     49  H   IDU d1623      61.781  43.188  34.531  0.00  0.00     0.087 H 
ATOM     50  H   IDU d1623      62.136  43.738  36.936  0.00  0.00     0.041 H 
ATOM     51  H   IDU d1623      63.601  43.978  36.013  0.00  0.00     0.041 H 
ATOM     52  H   IDU d1623      62.970  41.523  37.687  0.00  0.00     0.100 H 
ATOM     53  H   IDU d1623      62.986  41.280  33.596  0.00  0.00     0.097 H 
ATOM     54  H   IDU d1623      63.409  40.049  35.745  0.00  0.00     0.133 H 
ATOM     55  H   IDU d1623      61.782  40.950  36.253  0.00  0.00     0.210 HD
ENDROOT
TORSDOF 16
ENDMDL
MODEL 59
REMARK VINA RESULT:      -4.4      2.591      6.489
REMARK  0 active torsions:
REMARK  status: ('A' for Active; 'I' for Inactive)
REMARK       I    between atoms: O2S_2  and  S1_19 
REMARK       I    between atoms: C3_3  and  O3_35 
REMARK       I    between atoms: O2_5  and  C2_22 
REMARK       I    between atoms: O2_5  and  S_7 
REMARK       I    between atoms: O1_6  and  C1_12 
REMARK       I    between atoms: O4_8  and  C1_32 
REMARK       I    between atoms: O4_8  and  C4_20 
REMARK       I    between atoms: C5_10  and  C6_33 
REMARK       I    between atoms: C5_14  and  C6_23 
REMARK       I    between atoms: O3_17  and  C3_31 
REMARK       I    between atoms: S1_19  and  N_30 
REMARK       I    between atoms: S1_19  and  O1S_28 
REMARK       I    between atoms: S1_19  and  O3S_25 
REMARK       I    between atoms: S2_21  and  O6_29 
REMARK       I    between atoms: C2_24  and  N_30 
REMARK       I    between atoms: O6_29  and  C6_33 
ROOT
ATOM      1  O5S SGN d5702      68.015  36.966  34.544  0.00  0.00    -0.572 OA
ATOM      2  O2S SGN d5702      66.008  46.498  30.694  0.00  0.00    -0.296 OA
ATOM      3  O1  SGN d5702      68.170  42.868  33.059  0.00  0.00    -0.369 OA
ATOM      4  O4  SGN d5702      64.662  40.953  35.412  0.00  0.00    -0.348 OA
ATOM      5  O5  SGN d5702      66.829  41.046  32.492  0.00  0.00    -0.350 OA
ATOM      6  C5  SGN d5702      66.383  40.660  33.770  0.00  0.00     0.091 C 
ATOM      7  O4S SGN d5702      67.547  37.257  36.810  0.00  0.00    -0.572 OA
ATOM      8  C1  SGN d5702      67.062  42.444  32.301  0.00  0.00     0.147 C 
ATOM      9  O3  SGN d5702      64.209  43.658  34.337  0.00  0.00    -0.391 OA
ATOM     10  S1  SGN d5702      65.439  45.214  30.941  0.00  0.00     0.156 S 
ATOM     11  C4  SGN d5702      65.073  41.407  34.093  0.00  0.00     0.095 C 
ATOM     12  S2  SGN d5702      66.985  37.262  35.498  0.00  0.00     0.251 S 
ATOM     13  C2  SGN d5702      65.795  43.208  32.640  0.00  0.00     0.081 C 
ATOM     14  O3S SGN d5702      64.000  45.258  31.117  0.00  0.00    -0.296 OA
ATOM     15  O1S SGN d5702      65.871  44.333  29.875  0.00  0.00    -0.296 OA
ATOM     16  O6  SGN d5702      66.306  38.806  35.109  0.00  0.00    -0.254 OA
ATOM     17  N   SGN d5702      66.073  44.596  32.470  0.00  0.00    -0.210 NA
ATOM     18  C3  SGN d5702      65.380  42.928  34.060  0.00  0.00     0.083 C 
ATOM     19  C6  SGN d5702      66.196  39.175  33.743  0.00  0.00     0.067 C 
ATOM     20  O6S SGN d5702      65.886  36.343  35.448  0.00  0.00    -0.572 OA
ATOM     21  H   SGN d5702      66.967  46.411  30.585  0.00  0.00     0.231 HD
ATOM     22  H   SGN d5702      68.951  42.352  32.806  0.00  0.00     0.212 HD
ATOM     23  H   SGN d5702      67.087  40.910  34.536  0.00  0.00     0.090 H 
ATOM     24  H   SGN d5702      67.304  42.642  31.277  0.00  0.00     0.131 H 
ATOM     25  H   SGN d5702      63.930  43.486  35.250  0.00  0.00     0.210 HD
ATOM     26  H   SGN d5702      64.285  41.217  33.396  0.00  0.00     0.091 H 
ATOM     27  H   SGN d5702      64.993  42.904  32.000  0.00  0.00     0.076 H 
ATOM     28  H   SGN d5702      63.781  45.864  31.843  0.00  0.00     0.231 HD
ATOM     29  H   SGN d5702      66.838  44.351  29.812  0.00  0.00     0.231 HD
ATOM     30  H   SGN d5702      65.645  45.114  33.237  0.00  0.00     0.140 HD
ATOM     31  H   SGN d5702      66.125  43.202  34.777  0.00  0.00     0.089 H 
ATOM     32  H   SGN d5702      66.956  38.704  33.156  0.00  0.00     0.080 H 
ATOM     33  H   SGN d5702      65.266  38.880  33.303  0.00  0.00     0.080 H 
ATOM     34  C3  IDU d1623      63.376  41.859  38.850  0.00  0.00     0.069 C 
ATOM     35  O1S IDU d1623      61.375  37.985  37.917  0.00  0.00    -0.572 OA
ATOM     36  O2  IDU d1623      62.782  40.039  37.385  0.00  0.00    -0.244 OA
ATOM     37  S   IDU d1623      62.451  38.741  38.484  0.00  0.00     0.252 S 
ATOM     38  C4  IDU d1623      62.106  42.592  38.391  0.00  0.00    -0.005 C 
ATOM     39  C5  IDU d1623      62.400  43.376  37.101  0.00  0.00     0.127 C 
ATOM     40  O3S IDU d1623      63.618  37.977  38.721  0.00  0.00    -0.572 OA
ATOM     41  O5  IDU d1623      62.890  42.439  36.078  0.00  0.00    -0.343 OA
ATOM     42  O61 IDU d1623      60.611  44.876  37.444  0.00  0.00    -0.646 OA
ATOM     43  C2  IDU d1623      63.821  40.933  37.707  0.00  0.00     0.132 C 
ATOM     44  C6  IDU d1623      61.130  44.053  36.662  0.00  0.00     0.203 C 
ATOM     45  O62 IDU d1623      60.666  43.762  35.549  0.00  0.00    -0.646 OA
ATOM     46  O2S IDU d1623      62.038  39.254  39.781  0.00  0.00    -0.572 OA
ATOM     47  C1  IDU d1623      64.132  41.756  36.447  0.00  0.00     0.161 C 
ATOM     48  O3  IDU d1623      64.380  42.793  39.130  0.00  0.00    -0.393 OA
ATOM     49  H   IDU d1623      63.186  41.289  39.735  0.00  0.00     0.087 H 
ATOM     50  H   IDU d1623      61.790  43.271  39.156  0.00  0.00     0.041 H 
ATOM     51  H   IDU d1623      61.332  41.878  38.204  0.00  0.00     0.041 H 
ATOM     52  H   IDU d1623      63.151  44.121  37.260  0.00  0.00     0.100 H 
ATOM     53  H   IDU d1623      64.692  40.402  38.029  0.00  0.00     0.097 H 
ATOM     54  H   IDU d1623      64.898  42.479  36.632  0.00  0.00     0.133 H 
ATOM     55  H   IDU d1623      64.564  43.319  38.336  0.00  0.00     0.210 HD
ENDROOT
TORSDOF 16
ENDMDL
MODEL 60
REMARK VINA RESULT:      -4.4      3.003      4.689
REMARK  0 active torsions:
REMARK  status: ('A' for Active; 'I' for Inactive)
REMARK       I    between atoms: O2S_2  and  S1_19 
REMARK       I    between atoms: C3_3  and  O3_35 
REMARK       I    between atoms: O2_5  and  C2_22 
REMARK       I    between atoms: O2_5  and  S_7 
REMARK       I    between atoms: O1_6  and  C1_12 
REMARK       I    between atoms: O4_8  and  C1_32 
REMARK       I    between atoms: O4_8  and  C4_20 
REMARK       I    between atoms: C5_10  and  C6_33 
REMARK       I    between atoms: C5_14  and  C6_23 
REMARK       I    between atoms: O3_17  and  C3_31 
REMARK       I    between atoms: S1_19  and  N_30 
REMARK       I    between atoms: S1_19  and  O1S_28 
REMARK       I    between atoms: S1_19  and  O3S_25 
REMARK       I    between atoms: S2_21  and  O6_29 
REMARK       I    between atoms: C2_24  and  N_30 
REMARK       I    between atoms: O6_29  and  C6_33 
ROOT
ATOM      1  O5S SGN d5702      66.171  36.723  33.867  0.00  0.00    -0.572 OA
ATOM      2  O2S SGN d5702      61.333  40.405  42.397  0.00  0.00    -0.296 OA
ATOM      3  O1  SGN d5702      62.087  38.335  38.085  0.00  0.00    -0.369 OA
ATOM      4  O4  SGN d5702      64.852  41.391  35.957  0.00  0.00    -0.348 OA
ATOM      5  O5  SGN d5702      64.414  38.364  37.927  0.00  0.00    -0.350 OA
ATOM      6  C5  SGN d5702      64.573  39.154  36.774  0.00  0.00     0.091 C 
ATOM      7  O4S SGN d5702      65.531  38.275  32.247  0.00  0.00    -0.572 OA
ATOM      8  C1  SGN d5702      63.283  38.668  38.749  0.00  0.00     0.147 C 
ATOM      9  O3  SGN d5702      63.406  42.353  38.337  0.00  0.00    -0.391 OA
ATOM     10  S1  SGN d5702      62.557  40.437  41.664  0.00  0.00     0.156 S 
ATOM     11  C4  SGN d5702      64.674  40.636  37.188  0.00  0.00     0.095 C 
ATOM     12  S2  SGN d5702      66.255  38.098  33.464  0.00  0.00     0.251 S 
ATOM     13  C2  SGN d5702      63.342  40.131  39.149  0.00  0.00     0.081 C 
ATOM     14  O3S SGN d5702      63.307  41.661  41.870  0.00  0.00    -0.296 OA
ATOM     15  O1S SGN d5702      63.296  39.235  41.997  0.00  0.00    -0.296 OA
ATOM     16  O6  SGN d5702      65.606  39.081  34.732  0.00  0.00    -0.254 OA
ATOM     17  N   SGN d5702      62.186  40.405  39.938  0.00  0.00    -0.210 NA
ATOM     18  C3  SGN d5702      63.359  41.008  37.925  0.00  0.00     0.083 C 
ATOM     19  C6  SGN d5702      65.810  38.677  36.078  0.00  0.00     0.067 C 
ATOM     20  O6S SGN d5702      67.603  38.553  33.286  0.00  0.00    -0.572 OA
ATOM     21  H   SGN d5702      60.875  39.569  42.224  0.00  0.00     0.231 HD
ATOM     22  H   SGN d5702      62.099  37.393  37.852  0.00  0.00     0.212 HD
ATOM     23  H   SGN d5702      63.741  39.068  36.107  0.00  0.00     0.090 H 
ATOM     24  H   SGN d5702      63.307  38.079  39.643  0.00  0.00     0.131 H 
ATOM     25  H   SGN d5702      63.419  42.929  37.557  0.00  0.00     0.210 HD
ATOM     26  H   SGN d5702      65.489  40.846  37.848  0.00  0.00     0.091 H 
ATOM     27  H   SGN d5702      64.233  40.332  39.706  0.00  0.00     0.076 H 
ATOM     28  H   SGN d5702      62.756  42.422  41.630  0.00  0.00     0.231 HD
ATOM     29  H   SGN d5702      62.739  38.458  41.837  0.00  0.00     0.231 HD
ATOM     30  H   SGN d5702      61.810  41.314  39.665  0.00  0.00     0.140 HD
ATOM     31  H   SGN d5702      62.500  40.877  37.301  0.00  0.00     0.089 H 
ATOM     32  H   SGN d5702      65.902  37.613  36.148  0.00  0.00     0.080 H 
ATOM     33  H   SGN d5702      66.708  39.074  36.503  0.00  0.00     0.080 H 
ATOM     34  C3  IDU d1623      63.866  44.384  33.870  0.00  0.00     0.069 C 
ATOM     35  O1S IDU d1623      68.235  43.912  33.114  0.00  0.00    -0.572 OA
ATOM     36  O2  IDU d1623      66.031  43.410  34.285  0.00  0.00    -0.244 OA
ATOM     37  S   IDU d1623      66.866  43.650  32.786  0.00  0.00     0.252 S 
ATOM     38  C4  IDU d1623      64.192  45.462  34.915  0.00  0.00    -0.005 C 
ATOM     39  C5  IDU d1623      63.826  44.949  36.318  0.00  0.00     0.127 C 
ATOM     40  O3S IDU d1623      66.689  42.536  31.932  0.00  0.00    -0.572 OA
ATOM     41  O5  IDU d1623      64.559  43.699  36.572  0.00  0.00    -0.343 OA
ATOM     42  O61 IDU d1623      63.631  47.124  37.211  0.00  0.00    -0.646 OA
ATOM     43  C2  IDU d1623      64.654  43.118  34.239  0.00  0.00     0.132 C 
ATOM     44  C6  IDU d1623      64.188  46.012  37.318  0.00  0.00     0.203 C 
ATOM     45  O62 IDU d1623      65.018  45.731  38.196  0.00  0.00    -0.646 OA
ATOM     46  O2S IDU d1623      66.322  44.794  32.070  0.00  0.00    -0.572 OA
ATOM     47  C1  IDU d1623      64.239  42.622  35.634  0.00  0.00     0.161 C 
ATOM     48  O3  IDU d1623      62.491  44.117  33.887  0.00  0.00    -0.393 OA
ATOM     49  H   IDU d1623      64.135  44.714  32.888  0.00  0.00     0.087 H 
ATOM     50  H   IDU d1623      63.630  46.347  34.702  0.00  0.00     0.041 H 
ATOM     51  H   IDU d1623      65.238  45.684  34.881  0.00  0.00     0.041 H 
ATOM     52  H   IDU d1623      62.778  44.743  36.396  0.00  0.00     0.100 H 
ATOM     53  H   IDU d1623      64.450  42.371  33.502  0.00  0.00     0.097 H 
ATOM     54  H   IDU d1623      63.191  42.409  35.676  0.00  0.00     0.133 H 
ATOM     55  H   IDU d1623      62.232  43.816  34.772  0.00  0.00     0.210 HD
ENDROOT
TORSDOF 16
ENDMDL
MODEL 61
REMARK VINA RESULT:      -4.4      2.825      6.709
REMARK  0 active torsions:
REMARK  status: ('A' for Active; 'I' for Inactive)
REMARK       I    between atoms: O2S_2  and  S1_19 
REMARK       I    between atoms: C3_3  and  O3_35 
REMARK       I    between atoms: O2_5  and  C2_22 
REMARK       I    between atoms: O2_5  and  S_7 
REMARK       I    between atoms: O1_6  and  C1_12 
REMARK       I    between atoms: O4_8  and  C1_32 
REMARK       I    between atoms: O4_8  and  C4_20 
REMARK       I    between atoms: C5_10  and  C6_33 
REMARK       I    between atoms: C5_14  and  C6_23 
REMARK       I    between atoms: O3_17  and  C3_31 
REMARK       I    between atoms: S1_19  and  N_30 
REMARK       I    between atoms: S1_19  and  O1S_28 
REMARK       I    between atoms: S1_19  and  O3S_25 
REMARK       I    between atoms: S2_21  and  O6_29 
REMARK       I    between atoms: C2_24  and  N_30 
REMARK       I    between atoms: O6_29  and  C6_33 
ROOT
ATOM      1  O5S SGN d5702      69.438  35.933  36.570  0.00  0.00    -0.572 OA
ATOM      2  O2S SGN d5702      66.084  43.460  30.102  0.00  0.00    -0.296 OA
ATOM      3  O1  SGN d5702      68.515  41.173  33.611  0.00  0.00    -0.369 OA
ATOM      4  O4  SGN d5702      65.151  38.945  35.896  0.00  0.00    -0.348 OA
ATOM      5  O5  SGN d5702      67.770  38.976  33.372  0.00  0.00    -0.350 OA
ATOM      6  C5  SGN d5702      67.182  38.776  34.635  0.00  0.00     0.091 C 
ATOM      7  O4S SGN d5702      68.477  36.580  38.595  0.00  0.00    -0.572 OA
ATOM      8  C1  SGN d5702      67.707  40.306  32.851  0.00  0.00     0.147 C 
ATOM      9  O3  SGN d5702      64.307  41.115  34.093  0.00  0.00    -0.391 OA
ATOM     10  S1  SGN d5702      65.789  42.157  30.603  0.00  0.00     0.156 S 
ATOM     11  C4  SGN d5702      65.698  39.190  34.572  0.00  0.00     0.095 C 
ATOM     12  S2  SGN d5702      68.199  36.141  37.265  0.00  0.00     0.251 S 
ATOM     13  C2  SGN d5702      66.257  40.751  32.803  0.00  0.00     0.081 C 
ATOM     14  O3S SGN d5702      64.373  41.845  30.567  0.00  0.00    -0.296 OA
ATOM     15  O1S SGN d5702      66.614  41.213  29.875  0.00  0.00    -0.296 OA
ATOM     16  O6  SGN d5702      67.272  37.315  36.395  0.00  0.00    -0.254 OA
ATOM     17  N   SGN d5702      66.235  42.089  32.310  0.00  0.00    -0.210 NA
ATOM     18  C3  SGN d5702      65.645  40.690  34.178  0.00  0.00     0.083 C 
ATOM     19  C6  SGN d5702      67.352  37.329  34.977  0.00  0.00     0.067 C 
ATOM     20  O6S SGN d5702      67.374  34.969  37.314  0.00  0.00    -0.572 OA
ATOM     21  H   SGN d5702      67.039  43.615  30.149  0.00  0.00     0.231 HD
ATOM     22  H   SGN d5702      69.429  40.847  33.610  0.00  0.00     0.212 HD
ATOM     23  H   SGN d5702      67.644  39.372  35.395  0.00  0.00     0.090 H 
ATOM     24  H   SGN d5702      68.094  40.331  31.853  0.00  0.00     0.131 H 
ATOM     25  H   SGN d5702      63.901  41.081  34.973  0.00  0.00     0.210 HD
ATOM     26  H   SGN d5702      65.128  38.643  33.850  0.00  0.00     0.091 H 
ATOM     27  H   SGN d5702      65.688  40.106  32.165  0.00  0.00     0.076 H 
ATOM     28  H   SGN d5702      63.882  42.513  31.070  0.00  0.00     0.231 HD
ATOM     29  H   SGN d5702      67.544  41.480  29.939  0.00  0.00     0.231 HD
ATOM     30  H   SGN d5702      65.556  42.627  32.849  0.00  0.00     0.140 HD
ATOM     31  H   SGN d5702      66.151  41.308  34.890  0.00  0.00     0.089 H 
ATOM     32  H   SGN d5702      68.301  36.965  34.643  0.00  0.00     0.080 H 
ATOM     33  H   SGN d5702      66.621  36.701  34.512  0.00  0.00     0.080 H 
ATOM     34  C3  IDU d1623      63.039  40.203  38.768  0.00  0.00     0.069 C 
ATOM     35  O1S IDU d1623      62.210  35.824  38.635  0.00  0.00    -0.572 OA
ATOM     36  O2  IDU d1623      63.181  38.013  37.772  0.00  0.00    -0.244 OA
ATOM     37  S   IDU d1623      62.949  36.950  39.120  0.00  0.00     0.252 S 
ATOM     38  C4  IDU d1623      61.750  40.442  37.966  0.00  0.00    -0.005 C 
ATOM     39  C5  IDU d1623      62.103  40.970  36.566  0.00  0.00     0.127 C 
ATOM     40  O3S IDU d1623      64.191  36.606  39.704  0.00  0.00    -0.572 OA
ATOM     41  O5  IDU d1623      62.989  40.000  35.902  0.00  0.00    -0.343 OA
ATOM     42  O61 IDU d1623      59.985  41.963  36.258  0.00  0.00    -0.646 OA
ATOM     43  C2  IDU d1623      63.902  39.204  37.981  0.00  0.00     0.132 C 
ATOM     44  C6  IDU d1623      60.824  41.161  35.798  0.00  0.00     0.203 C 
ATOM     45  O62 IDU d1623      60.668  40.516  34.750  0.00  0.00    -0.646 OA
ATOM     46  O2S IDU d1623      62.181  37.605  40.168  0.00  0.00    -0.572 OA
ATOM     47  C1  IDU d1623      64.257  39.781  36.601  0.00  0.00     0.161 C 
ATOM     48  O3  IDU d1623      63.725  41.414  38.923  0.00  0.00    -0.393 OA
ATOM     49  H   IDU d1623      62.815  39.814  39.739  0.00  0.00     0.087 H 
ATOM     50  H   IDU d1623      61.142  41.161  38.475  0.00  0.00     0.041 H 
ATOM     51  H   IDU d1623      61.214  39.521  37.873  0.00  0.00     0.041 H 
ATOM     52  H   IDU d1623      62.616  41.908  36.621  0.00  0.00     0.100 H 
ATOM     53  H   IDU d1623      64.791  39.016  38.545  0.00  0.00     0.097 H 
ATOM     54  H   IDU d1623      64.783  40.708  36.689  0.00  0.00     0.133 H 
ATOM     55  H   IDU d1623      63.935  41.780  38.049  0.00  0.00     0.210 HD
ENDROOT
TORSDOF 16
ENDMDL
MODEL 62
REMARK VINA RESULT:      -4.4      3.281      6.773
REMARK  0 active torsions:
REMARK  status: ('A' for Active; 'I' for Inactive)
REMARK       I    between atoms: O2S_2  and  S1_19 
REMARK       I    between atoms: C3_3  and  O3_35 
REMARK       I    between atoms: O2_5  and  C2_22 
REMARK       I    between atoms: O2_5  and  S_7 
REMARK       I    between atoms: O1_6  and  C1_12 
REMARK       I    between atoms: O4_8  and  C1_32 
REMARK       I    between atoms: O4_8  and  C4_20 
REMARK       I    between atoms: C5_10  and  C6_33 
REMARK       I    between atoms: C5_14  and  C6_23 
REMARK       I    between atoms: O3_17  and  C3_31 
REMARK       I    between atoms: S1_19  and  N_30 
REMARK       I    between atoms: S1_19  and  O1S_28 
REMARK       I    between atoms: S1_19  and  O3S_25 
REMARK       I    between atoms: S2_21  and  O6_29 
REMARK       I    between atoms: C2_24  and  N_30 
REMARK       I    between atoms: O6_29  and  C6_33 
ROOT
ATOM      1  O5S SGN d5702      62.875  43.661  35.498  0.00  0.00    -0.572 OA
ATOM      2  O2S SGN d5702      62.114  36.806  43.382  0.00  0.00    -0.296 OA
ATOM      3  O1  SGN d5702      63.424  40.669  40.772  0.00  0.00    -0.369 OA
ATOM      4  O4  SGN d5702      64.561  38.798  36.684  0.00  0.00    -0.348 OA
ATOM      5  O5  SGN d5702      62.130  40.422  38.847  0.00  0.00    -0.350 OA
ATOM      6  C5  SGN d5702      63.145  40.318  37.879  0.00  0.00     0.091 C 
ATOM      7  O4S SGN d5702      65.035  43.251  34.716  0.00  0.00    -0.572 OA
ATOM      8  C1  SGN d5702      62.435  39.891  40.140  0.00  0.00     0.147 C 
ATOM      9  O3  SGN d5702      64.376  36.953  38.973  0.00  0.00    -0.391 OA
ATOM     10  S1  SGN d5702      61.856  36.994  41.992  0.00  0.00     0.156 S 
ATOM     11  C4  SGN d5702      63.525  38.834  37.703  0.00  0.00     0.095 C 
ATOM     12  S2  SGN d5702      63.736  42.686  34.889  0.00  0.00     0.251 S 
ATOM     13  C2  SGN d5702      62.840  38.436  39.994  0.00  0.00     0.081 C 
ATOM     14  O3S SGN d5702      61.853  35.751  41.245  0.00  0.00    -0.296 OA
ATOM     15  O1S SGN d5702      60.625  37.750  41.875  0.00  0.00    -0.296 OA
ATOM     16  O6  SGN d5702      63.787  41.288  35.907  0.00  0.00    -0.254 OA
ATOM     17  N   SGN d5702      63.168  37.950  41.294  0.00  0.00    -0.210 NA
ATOM     18  C3  SGN d5702      64.028  38.313  39.076  0.00  0.00     0.083 C 
ATOM     19  C6  SGN d5702      62.613  40.918  36.615  0.00  0.00     0.067 C 
ATOM     20  O6S SGN d5702      63.250  42.215  33.625  0.00  0.00    -0.572 OA
ATOM     21  H   SGN d5702      62.105  37.666  43.831  0.00  0.00     0.231 HD
ATOM     22  H   SGN d5702      63.118  41.587  40.841  0.00  0.00     0.212 HD
ATOM     23  H   SGN d5702      64.034  40.840  38.167  0.00  0.00     0.090 H 
ATOM     24  H   SGN d5702      61.571  39.932  40.770  0.00  0.00     0.131 H 
ATOM     25  H   SGN d5702      65.140  36.860  38.384  0.00  0.00     0.210 HD
ATOM     26  H   SGN d5702      62.710  38.213  37.397  0.00  0.00     0.091 H 
ATOM     27  H   SGN d5702      62.040  37.865  39.570  0.00  0.00     0.076 H 
ATOM     28  H   SGN d5702      62.702  35.299  41.367  0.00  0.00     0.231 HD
ATOM     29  H   SGN d5702      60.695  38.565  42.396  0.00  0.00     0.231 HD
ATOM     30  H   SGN d5702      64.001  37.366  41.228  0.00  0.00     0.140 HD
ATOM     31  H   SGN d5702      64.883  38.854  39.421  0.00  0.00     0.089 H 
ATOM     32  H   SGN d5702      62.007  41.775  36.824  0.00  0.00     0.080 H 
ATOM     33  H   SGN d5702      61.987  40.247  36.064  0.00  0.00     0.080 H 
ATOM     34  C3  IDU d1623      67.914  37.447  35.577  0.00  0.00     0.069 C 
ATOM     35  O1S IDU d1623      65.526  37.665  31.818  0.00  0.00    -0.572 OA
ATOM     36  O2  IDU d1623      65.875  37.781  34.337  0.00  0.00    -0.244 OA
ATOM     37  S   IDU d1623      66.440  38.233  32.763  0.00  0.00     0.252 S 
ATOM     38  C4  IDU d1623      67.562  35.954  35.680  0.00  0.00    -0.005 C 
ATOM     39  C5  IDU d1623      66.645  35.723  36.893  0.00  0.00     0.127 C 
ATOM     40  O3S IDU d1623      66.561  39.639  32.661  0.00  0.00    -0.572 OA
ATOM     41  O5  IDU d1623      65.444  36.560  36.746  0.00  0.00    -0.343 OA
ATOM     42  O61 IDU d1623      67.228  33.443  37.068  0.00  0.00    -0.646 OA
ATOM     43  C2  IDU d1623      66.599  38.231  35.458  0.00  0.00     0.132 C 
ATOM     44  C6  IDU d1623      66.293  34.261  36.944  0.00  0.00     0.203 C 
ATOM     45  O62 IDU d1623      65.097  33.943  36.863  0.00  0.00    -0.646 OA
ATOM     46  O2S IDU d1623      67.770  37.697  32.518  0.00  0.00    -0.572 OA
ATOM     47  C1  IDU d1623      65.725  37.996  36.700  0.00  0.00     0.161 C 
ATOM     48  O3  IDU d1623      68.608  37.844  36.727  0.00  0.00    -0.393 OA
ATOM     49  H   IDU d1623      68.535  37.632  34.725  0.00  0.00     0.087 H 
ATOM     50  H   IDU d1623      68.459  35.384  35.798  0.00  0.00     0.041 H 
ATOM     51  H   IDU d1623      67.056  35.647  34.789  0.00  0.00     0.041 H 
ATOM     52  H   IDU d1623      67.132  35.993  37.807  0.00  0.00     0.100 H 
ATOM     53  H   IDU d1623      66.838  39.270  35.362  0.00  0.00     0.097 H 
ATOM     54  H   IDU d1623      66.231  38.292  37.595  0.00  0.00     0.133 H 
ATOM     55  H   IDU d1623      68.058  37.681  37.509  0.00  0.00     0.210 HD
ENDROOT
TORSDOF 16
ENDMDL
MODEL 63
REMARK VINA RESULT:      -4.4      2.955      3.859
REMARK  0 active torsions:
REMARK  status: ('A' for Active; 'I' for Inactive)
REMARK       I    between atoms: O2S_2  and  S1_19 
REMARK       I    between atoms: C3_3  and  O3_35 
REMARK       I    between atoms: O2_5  and  C2_22 
REMARK       I    between atoms: O2_5  and  S_7 
REMARK       I    between atoms: O1_6  and  C1_12 
REMARK       I    between atoms: O4_8  and  C1_32 
REMARK       I    between atoms: O4_8  and  C4_20 
REMARK       I    between atoms: C5_10  and  C6_33 
REMARK       I    between atoms: C5_14  and  C6_23 
REMARK       I    between atoms: O3_17  and  C3_31 
REMARK       I    between atoms: S1_19  and  N_30 
REMARK       I    between atoms: S1_19  and  O1S_28 
REMARK       I    between atoms: S1_19  and  O3S_25 
REMARK       I    between atoms: S2_21  and  O6_29 
REMARK       I    between atoms: C2_24  and  N_30 
REMARK       I    between atoms: O6_29  and  C6_33 
ROOT
ATOM      1  O5S SGN d5702      61.749  35.092  39.223  0.00  0.00    -0.572 OA
ATOM      2  O2S SGN d5702      61.876  45.217  36.541  0.00  0.00    -0.296 OA
ATOM      3  O1  SGN d5702      60.742  40.510  36.636  0.00  0.00    -0.369 OA
ATOM      4  O4  SGN d5702      64.902  38.460  36.651  0.00  0.00    -0.348 OA
ATOM      5  O5  SGN d5702      62.004  39.738  38.439  0.00  0.00    -0.350 OA
ATOM      6  C5  SGN d5702      62.817  38.794  37.785  0.00  0.00     0.091 C 
ATOM      7  O4S SGN d5702      62.811  34.100  37.397  0.00  0.00    -0.572 OA
ATOM      8  C1  SGN d5702      61.622  40.882  37.670  0.00  0.00     0.147 C 
ATOM      9  O3  SGN d5702      64.832  41.296  35.857  0.00  0.00    -0.391 OA
ATOM     10  S1  SGN d5702      62.587  44.206  37.255  0.00  0.00     0.156 S 
ATOM     11  C4  SGN d5702      64.105  39.489  37.300  0.00  0.00     0.095 C 
ATOM     12  S2  SGN d5702      62.980  35.002  38.490  0.00  0.00     0.251 S 
ATOM     13  C2  SGN d5702      62.872  41.571  37.155  0.00  0.00     0.081 C 
ATOM     14  O3S SGN d5702      64.010  44.472  37.343  0.00  0.00    -0.296 OA
ATOM     15  O1S SGN d5702      61.941  44.045  38.542  0.00  0.00    -0.296 OA
ATOM     16  O6  SGN d5702      63.406  36.587  37.939  0.00  0.00    -0.254 OA
ATOM     17  N   SGN d5702      62.454  42.684  36.368  0.00  0.00    -0.210 NA
ATOM     18  C3  SGN d5702      63.688  40.619  36.321  0.00  0.00     0.083 C 
ATOM     19  C6  SGN d5702      63.101  37.700  38.766  0.00  0.00     0.067 C 
ATOM     20  O6S SGN d5702      64.087  34.573  39.294  0.00  0.00    -0.572 OA
ATOM     21  H   SGN d5702      60.934  44.990  36.513  0.00  0.00     0.231 HD
ATOM     22  H   SGN d5702      59.962  40.076  37.015  0.00  0.00     0.212 HD
ATOM     23  H   SGN d5702      62.339  38.376  36.924  0.00  0.00     0.090 H 
ATOM     24  H   SGN d5702      61.089  41.579  38.283  0.00  0.00     0.131 H 
ATOM     25  H   SGN d5702      65.367  40.693  35.318  0.00  0.00     0.210 HD
ATOM     26  H   SGN d5702      64.679  39.933  38.086  0.00  0.00     0.091 H 
ATOM     27  H   SGN d5702      63.484  41.896  37.971  0.00  0.00     0.076 H 
ATOM     28  H   SGN d5702      64.377  44.569  36.450  0.00  0.00     0.231 HD
ATOM     29  H   SGN d5702      60.996  43.872  38.411  0.00  0.00     0.231 HD
ATOM     30  H   SGN d5702      63.040  42.737  35.534  0.00  0.00     0.140 HD
ATOM     31  H   SGN d5702      63.156  40.239  35.475  0.00  0.00     0.089 H 
ATOM     32  H   SGN d5702      62.244  37.500  39.375  0.00  0.00     0.080 H 
ATOM     33  H   SGN d5702      63.890  37.943  39.447  0.00  0.00     0.080 H 
ATOM     34  C3  IDU d1623      67.027  37.450  33.692  0.00  0.00     0.069 C 
ATOM     35  O1S IDU d1623      68.972  35.452  37.171  0.00  0.00    -0.572 OA
ATOM     36  O2  IDU d1623      67.323  37.032  36.047  0.00  0.00    -0.244 OA
ATOM     37  S   IDU d1623      68.045  35.457  36.080  0.00  0.00     0.252 S 
ATOM     38  C4  IDU d1623      68.059  38.584  33.803  0.00  0.00    -0.005 C 
ATOM     39  C5  IDU d1623      67.358  39.879  34.244  0.00  0.00     0.127 C 
ATOM     40  O3S IDU d1623      67.051  34.454  36.175  0.00  0.00    -0.572 OA
ATOM     41  O5  IDU d1623      66.673  39.636  35.523  0.00  0.00    -0.343 OA
ATOM     42  O61 IDU d1623      69.054  41.259  33.356  0.00  0.00    -0.646 OA
ATOM     43  C2  IDU d1623      66.351  37.297  35.063  0.00  0.00     0.132 C 
ATOM     44  C6  IDU d1623      68.400  40.957  34.375  0.00  0.00     0.203 C 
ATOM     45  O62 IDU d1623      68.554  41.490  35.484  0.00  0.00    -0.646 OA
ATOM     46  O2S IDU d1623      68.765  35.192  34.844  0.00  0.00    -0.572 OA
ATOM     47  C1  IDU d1623      65.639  38.601  35.454  0.00  0.00     0.161 C 
ATOM     48  O3  IDU d1623      66.075  37.779  32.720  0.00  0.00    -0.393 OA
ATOM     49  H   IDU d1623      67.500  36.534  33.408  0.00  0.00     0.087 H 
ATOM     50  H   IDU d1623      68.524  38.737  32.852  0.00  0.00     0.041 H 
ATOM     51  H   IDU d1623      68.801  38.318  34.526  0.00  0.00     0.041 H 
ATOM     52  H   IDU d1623      66.627  40.191  33.527  0.00  0.00     0.100 H 
ATOM     53  H   IDU d1623      65.648  36.493  34.999  0.00  0.00     0.097 H 
ATOM     54  H   IDU d1623      64.904  38.877  34.727  0.00  0.00     0.133 H 
ATOM     55  H   IDU d1623      65.637  38.610  32.964  0.00  0.00     0.210 HD
ENDROOT
TORSDOF 16
ENDMDL
MODEL 64
REMARK VINA RESULT:      -4.3      3.564      9.242
REMARK  0 active torsions:
REMARK  status: ('A' for Active; 'I' for Inactive)
REMARK       I    between atoms: O2S_2  and  S1_19 
REMARK       I    between atoms: C3_3  and  O3_35 
REMARK       I    between atoms: O2_5  and  C2_22 
REMARK       I    between atoms: O2_5  and  S_7 
REMARK       I    between atoms: O1_6  and  C1_12 
REMARK       I    between atoms: O4_8  and  C1_32 
REMARK       I    between atoms: O4_8  and  C4_20 
REMARK       I    between atoms: C5_10  and  C6_33 
REMARK       I    between atoms: C5_14  and  C6_23 
REMARK       I    between atoms: O3_17  and  C3_31 
REMARK       I    between atoms: S1_19  and  N_30 
REMARK       I    between atoms: S1_19  and  O1S_28 
REMARK       I    between atoms: S1_19  and  O3S_25 
REMARK       I    between atoms: S2_21  and  O6_29 
REMARK       I    between atoms: C2_24  and  N_30 
REMARK       I    between atoms: O6_29  and  C6_33 
ROOT
ATOM      1  O5S SGN d5702      63.250  42.252  33.823  0.00  0.00    -0.572 OA
ATOM      2  O2S SGN d5702      69.746  34.112  32.692  0.00  0.00    -0.296 OA
ATOM      3  O1  SGN d5702      65.888  37.001  32.227  0.00  0.00    -0.369 OA
ATOM      4  O4  SGN d5702      64.892  38.086  36.625  0.00  0.00    -0.348 OA
ATOM      5  O5  SGN d5702      66.522  38.871  33.470  0.00  0.00    -0.350 OA
ATOM      6  C5  SGN d5702      65.510  38.873  34.447  0.00  0.00     0.091 C 
ATOM      7  O4S SGN d5702      61.549  41.328  35.125  0.00  0.00    -0.572 OA
ATOM      8  C1  SGN d5702      66.923  37.588  32.980  0.00  0.00     0.147 C 
ATOM      9  O3  SGN d5702      66.670  35.776  36.206  0.00  0.00    -0.391 OA
ATOM     10  S1  SGN d5702      69.468  35.260  33.491  0.00  0.00     0.156 S 
ATOM     11  C4  SGN d5702      65.971  38.029  35.652  0.00  0.00     0.095 C 
ATOM     12  S2  SGN d5702      62.934  41.672  35.097  0.00  0.00     0.251 S 
ATOM     13  C2  SGN d5702      67.356  36.725  34.150  0.00  0.00     0.081 C 
ATOM     14  O3S SGN d5702      69.945  35.128  34.855  0.00  0.00    -0.296 OA
ATOM     15  O1S SGN d5702      69.999  36.416  32.796  0.00  0.00    -0.296 OA
ATOM     16  O6  SGN d5702      63.934  40.279  35.329  0.00  0.00    -0.254 OA
ATOM     17  N   SGN d5702      67.717  35.447  33.630  0.00  0.00    -0.210 NA
ATOM     18  C3  SGN d5702      66.233  36.586  35.143  0.00  0.00     0.083 C 
ATOM     19  C6  SGN d5702      65.259  40.301  34.820  0.00  0.00     0.067 C 
ATOM     20  O6S SGN d5702      63.231  42.538  36.201  0.00  0.00    -0.572 OA
ATOM     21  H   SGN d5702      69.407  34.254  31.795  0.00  0.00     0.231 HD
ATOM     22  H   SGN d5702      65.648  37.590  31.494  0.00  0.00     0.212 HD
ATOM     23  H   SGN d5702      64.600  38.440  34.087  0.00  0.00     0.090 H 
ATOM     24  H   SGN d5702      67.758  37.690  32.317  0.00  0.00     0.131 H 
ATOM     25  H   SGN d5702      65.955  35.679  36.854  0.00  0.00     0.210 HD
ATOM     26  H   SGN d5702      66.873  38.383  36.108  0.00  0.00     0.091 H 
ATOM     27  H   SGN d5702      68.186  37.171  34.658  0.00  0.00     0.076 H 
ATOM     28  H   SGN d5702      69.553  34.339  35.259  0.00  0.00     0.231 HD
ATOM     29  H   SGN d5702      69.642  36.443  31.895  0.00  0.00     0.231 HD
ATOM     30  H   SGN d5702      67.357  34.724  34.253  0.00  0.00     0.140 HD
ATOM     31  H   SGN d5702      65.353  36.145  34.723  0.00  0.00     0.089 H 
ATOM     32  H   SGN d5702      65.329  40.938  33.963  0.00  0.00     0.080 H 
ATOM     33  H   SGN d5702      65.971  40.681  35.523  0.00  0.00     0.080 H 
ATOM     34  C3  IDU d1623      62.671  36.224  39.052  0.00  0.00     0.069 C 
ATOM     35  O1S IDU d1623      63.417  40.146  41.037  0.00  0.00    -0.572 OA
ATOM     36  O2  IDU d1623      63.766  38.362  39.256  0.00  0.00    -0.244 OA
ATOM     37  S   IDU d1623      62.641  39.293  40.188  0.00  0.00     0.252 S 
ATOM     38  C4  IDU d1623      63.792  35.611  39.905  0.00  0.00    -0.005 C 
ATOM     39  C5  IDU d1623      64.976  35.226  39.003  0.00  0.00     0.127 C 
ATOM     40  O3S IDU d1623      61.750  39.994  39.342  0.00  0.00    -0.572 OA
ATOM     41  O5  IDU d1623      65.431  36.424  38.280  0.00  0.00    -0.343 OA
ATOM     42  O61 IDU d1623      65.807  33.640  40.540  0.00  0.00    -0.646 OA
ATOM     43  C2  IDU d1623      63.252  37.444  38.320  0.00  0.00     0.132 C 
ATOM     44  C6  IDU d1623      66.067  34.662  39.872  0.00  0.00     0.203 C 
ATOM     45  O62 IDU d1623      67.166  35.237  39.880  0.00  0.00    -0.646 OA
ATOM     46  O2S IDU d1623      61.813  38.428  41.014  0.00  0.00    -0.572 OA
ATOM     47  C1  IDU d1623      64.412  37.013  37.408  0.00  0.00     0.161 C 
ATOM     48  O3  IDU d1623      62.218  35.277  38.125  0.00  0.00    -0.393 OA
ATOM     49  H   IDU d1623      61.846  36.520  39.665  0.00  0.00     0.087 H 
ATOM     50  H   IDU d1623      63.425  34.738  40.403  0.00  0.00     0.041 H 
ATOM     51  H   IDU d1623      64.118  36.327  40.631  0.00  0.00     0.041 H 
ATOM     52  H   IDU d1623      64.693  34.488  38.282  0.00  0.00     0.100 H 
ATOM     53  H   IDU d1623      62.470  37.889  37.742  0.00  0.00     0.097 H 
ATOM     54  H   IDU d1623      64.094  36.288  36.688  0.00  0.00     0.133 H 
ATOM     55  H   IDU d1623      62.956  34.999  37.561  0.00  0.00     0.210 HD
ENDROOT
TORSDOF 16
ENDMDL
MODEL 65
REMARK VINA RESULT:      -4.3      4.163      8.062
REMARK  0 active torsions:
REMARK  status: ('A' for Active; 'I' for Inactive)
REMARK       I    between atoms: O2S_2  and  S1_19 
REMARK       I    between atoms: C3_3  and  O3_35 
REMARK       I    between atoms: O2_5  and  C2_22 
REMARK       I    between atoms: O2_5  and  S_7 
REMARK       I    between atoms: O1_6  and  C1_12 
REMARK       I    between atoms: O4_8  and  C1_32 
REMARK       I    between atoms: O4_8  and  C4_20 
REMARK       I    between atoms: C5_10  and  C6_33 
REMARK       I    between atoms: C5_14  and  C6_23 
REMARK       I    between atoms: O3_17  and  C3_31 
REMARK       I    between atoms: S1_19  and  N_30 
REMARK       I    between atoms: S1_19  and  O1S_28 
REMARK       I    between atoms: S1_19  and  O3S_25 
REMARK       I    between atoms: S2_21  and  O6_29 
REMARK       I    between atoms: C2_24  and  N_30 
REMARK       I    between atoms: O6_29  and  C6_33 
ROOT
ATOM      1  O5S SGN d5702      67.831  43.786  42.560  0.00  0.00    -0.572 OA
ATOM      2  O2S SGN d5702      66.184  34.485  38.031  0.00  0.00    -0.296 OA
ATOM      3  O1  SGN d5702      68.179  38.753  39.153  0.00  0.00    -0.369 OA
ATOM      4  O4  SGN d5702      64.552  41.640  39.018  0.00  0.00    -0.348 OA
ATOM      5  O5  SGN d5702      66.812  39.492  40.891  0.00  0.00    -0.350 OA
ATOM      6  C5  SGN d5702      66.316  40.682  40.327  0.00  0.00     0.091 C 
ATOM      7  O4S SGN d5702      67.298  45.260  40.832  0.00  0.00    -0.572 OA
ATOM      8  C1  SGN d5702      67.086  38.427  39.977  0.00  0.00     0.147 C 
ATOM      9  O3  SGN d5702      64.201  39.019  37.722  0.00  0.00    -0.391 OA
ATOM     10  S1  SGN d5702      65.575  35.503  38.824  0.00  0.00     0.156 S 
ATOM     11  C4  SGN d5702      65.016  40.372  39.559  0.00  0.00     0.095 C 
ATOM     12  S2  SGN d5702      66.779  44.258  41.705  0.00  0.00     0.251 S 
ATOM     13  C2  SGN d5702      65.828  38.119  39.185  0.00  0.00     0.081 C 
ATOM     14  O3S SGN d5702      64.133  35.547  38.678  0.00  0.00    -0.296 OA
ATOM     15  O1S SGN d5702      66.018  35.314  40.192  0.00  0.00    -0.296 OA
ATOM     16  O6  SGN d5702      66.150  42.912  40.816  0.00  0.00    -0.254 OA
ATOM     17  N   SGN d5702      66.146  37.078  38.264  0.00  0.00    -0.210 NA
ATOM     18  C3  SGN d5702      65.361  39.346  38.447  0.00  0.00     0.083 C 
ATOM     19  C6  SGN d5702      66.093  41.644  41.452  0.00  0.00     0.067 C 
ATOM     20  O6S SGN d5702      65.659  44.789  42.426  0.00  0.00    -0.572 OA
ATOM     21  H   SGN d5702      67.143  34.501  38.167  0.00  0.00     0.231 HD
ATOM     22  H   SGN d5702      68.955  38.940  39.704  0.00  0.00     0.212 HD
ATOM     23  H   SGN d5702      67.002  41.114  39.629  0.00  0.00     0.090 H 
ATOM     24  H   SGN d5702      67.364  37.542  40.512  0.00  0.00     0.131 H 
ATOM     25  H   SGN d5702      63.889  39.801  37.241  0.00  0.00     0.210 HD
ATOM     26  H   SGN d5702      64.245  39.948  40.167  0.00  0.00     0.091 H 
ATOM     27  H   SGN d5702      65.038  37.813  39.840  0.00  0.00     0.076 H 
ATOM     28  H   SGN d5702      63.907  35.674  37.743  0.00  0.00     0.231 HD
ATOM     29  H   SGN d5702      66.987  35.294  40.217  0.00  0.00     0.231 HD
ATOM     30  H   SGN d5702      65.707  37.287  37.367  0.00  0.00     0.140 HD
ATOM     31  H   SGN d5702      66.090  39.727  37.763  0.00  0.00     0.089 H 
ATOM     32  H   SGN d5702      66.860  41.552  42.193  0.00  0.00     0.080 H 
ATOM     33  H   SGN d5702      65.170  41.477  41.968  0.00  0.00     0.080 H 
ATOM     34  C3  IDU d1623      63.182  43.543  36.053  0.00  0.00     0.069 C 
ATOM     35  O1S IDU d1623      61.115  45.351  39.566  0.00  0.00    -0.572 OA
ATOM     36  O2  IDU d1623      62.588  43.643  38.387  0.00  0.00    -0.244 OA
ATOM     37  S   IDU d1623      62.191  45.312  38.622  0.00  0.00     0.252 S 
ATOM     38  C4  IDU d1623      61.946  42.662  35.816  0.00  0.00    -0.005 C 
ATOM     39  C5  IDU d1623      62.299  41.191  36.092  0.00  0.00     0.127 C 
ATOM     40  O3S IDU d1623      63.331  46.045  39.030  0.00  0.00    -0.572 OA
ATOM     41  O5  IDU d1623      62.798  41.074  37.471  0.00  0.00    -0.343 OA
ATOM     42  O61 IDU d1623      60.538  40.375  34.750  0.00  0.00    -0.646 OA
ATOM     43  C2  IDU d1623      63.639  43.328  37.504  0.00  0.00     0.132 C 
ATOM     44  C6  IDU d1623      61.061  40.362  35.883  0.00  0.00     0.203 C 
ATOM     45  O62 IDU d1623      60.625  39.709  36.843  0.00  0.00    -0.646 OA
ATOM     46  O2S IDU d1623      61.750  45.919  37.375  0.00  0.00    -0.572 OA
ATOM     47  C1  IDU d1623      64.010  41.853  37.731  0.00  0.00     0.161 C 
ATOM     48  O3  IDU d1623      64.200  43.169  35.167  0.00  0.00    -0.393 OA
ATOM     49  H   IDU d1623      62.950  44.574  35.887  0.00  0.00     0.087 H 
ATOM     50  H   IDU d1623      61.623  42.766  34.801  0.00  0.00     0.041 H 
ATOM     51  H   IDU d1623      61.160  42.968  36.474  0.00  0.00     0.041 H 
ATOM     52  H   IDU d1623      63.064  40.843  35.429  0.00  0.00     0.100 H 
ATOM     53  H   IDU d1623      64.486  43.956  37.683  0.00  0.00     0.097 H 
ATOM     54  H   IDU d1623      64.788  41.540  37.066  0.00  0.00     0.133 H 
ATOM     55  H   IDU d1623      64.421  42.235  35.305  0.00  0.00     0.210 HD
ENDROOT
TORSDOF 16
ENDMDL
MODEL 66
REMARK VINA RESULT:      -4.2      4.500      7.780
REMARK  0 active torsions:
REMARK  status: ('A' for Active; 'I' for Inactive)
REMARK       I    between atoms: O2S_2  and  S1_19 
REMARK       I    between atoms: C3_3  and  O3_35 
REMARK       I    between atoms: O2_5  and  C2_22 
REMARK       I    between atoms: O2_5  and  S_7 
REMARK       I    between atoms: O1_6  and  C1_12 
REMARK       I    between atoms: O4_8  and  C1_32 
REMARK       I    between atoms: O4_8  and  C4_20 
REMARK       I    between atoms: C5_10  and  C6_33 
REMARK       I    between atoms: C5_14  and  C6_23 
REMARK       I    between atoms: O3_17  and  C3_31 
REMARK       I    between atoms: S1_19  and  N_30 
REMARK       I    between atoms: S1_19  and  O1S_28 
REMARK       I    between atoms: S1_19  and  O3S_25 
REMARK       I    between atoms: S2_21  and  O6_29 
REMARK       I    between atoms: C2_24  and  N_30 
REMARK       I    between atoms: O6_29  and  C6_33 
ROOT
ATOM      1  O5S SGN d5702      67.454  40.175  44.125  0.00  0.00    -0.572 OA
ATOM      2  O2S SGN d5702      62.420  33.118  38.244  0.00  0.00    -0.296 OA
ATOM      3  O1  SGN d5702      65.981  35.702  40.265  0.00  0.00    -0.369 OA
ATOM      4  O4  SGN d5702      64.491  40.064  39.753  0.00  0.00    -0.348 OA
ATOM      5  O5  SGN d5702      64.815  37.053  41.767  0.00  0.00    -0.350 OA
ATOM      6  C5  SGN d5702      65.148  38.325  41.266  0.00  0.00     0.091 C 
ATOM      7  O4S SGN d5702      68.177  41.705  42.520  0.00  0.00    -0.572 OA
ATOM      8  C1  SGN d5702      64.715  36.001  40.803  0.00  0.00     0.147 C 
ATOM      9  O3  SGN d5702      63.170  38.016  38.099  0.00  0.00    -0.391 OA
ATOM     10  S1  SGN d5702      62.248  34.305  39.016  0.00  0.00     0.156 S 
ATOM     11  C4  SGN d5702      64.099  38.743  40.216  0.00  0.00     0.095 C 
ATOM     12  S2  SGN d5702      67.029  41.127  43.139  0.00  0.00     0.251 S 
ATOM     13  C2  SGN d5702      63.707  36.398  39.741  0.00  0.00     0.081 C 
ATOM     14  O3S SGN d5702      61.114  35.100  38.585  0.00  0.00    -0.296 OA
ATOM     15  O1S SGN d5702      62.193  33.914  40.410  0.00  0.00    -0.296 OA
ATOM     16  O6  SGN d5702      66.034  40.310  41.982  0.00  0.00    -0.254 OA
ATOM     17  N   SGN d5702      63.657  35.344  38.782  0.00  0.00    -0.210 NA
ATOM     18  C3  SGN d5702      64.124  37.686  39.080  0.00  0.00     0.083 C 
ATOM     19  C6  SGN d5702      65.187  39.263  42.431  0.00  0.00     0.067 C 
ATOM     20  O6S SGN d5702      66.203  42.168  43.677  0.00  0.00    -0.572 OA
ATOM     21  H   SGN d5702      63.189  32.627  38.573  0.00  0.00     0.231 HD
ATOM     22  H   SGN d5702      66.587  35.455  40.982  0.00  0.00     0.212 HD
ATOM     23  H   SGN d5702      66.101  38.331  40.779  0.00  0.00     0.090 H 
ATOM     24  H   SGN d5702      64.366  35.103  41.270  0.00  0.00     0.131 H 
ATOM     25  H   SGN d5702      63.427  38.845  37.666  0.00  0.00     0.210 HD
ATOM     26  H   SGN d5702      63.100  38.788  40.598  0.00  0.00     0.091 H 
ATOM     27  H   SGN d5702      62.743  36.554  40.178  0.00  0.00     0.076 H 
ATOM     28  H   SGN d5702      61.215  35.325  37.647  0.00  0.00     0.231 HD
ATOM     29  H   SGN d5702      62.977  33.388  40.630  0.00  0.00     0.231 HD
ATOM     30  H   SGN d5702      63.615  35.751  37.847  0.00  0.00     0.140 HD
ATOM     31  H   SGN d5702      65.083  37.626  38.611  0.00  0.00     0.089 H 
ATOM     32  H   SGN d5702      65.598  38.783  43.295  0.00  0.00     0.080 H 
ATOM     33  H   SGN d5702      64.217  39.606  42.724  0.00  0.00     0.080 H 
ATOM     34  C3  IDU d1623      65.036  42.398  36.830  0.00  0.00     0.069 C 
ATOM     35  O1S IDU d1623      63.416  45.029  40.045  0.00  0.00    -0.572 OA
ATOM     36  O2  IDU d1623      64.042  42.799  38.988  0.00  0.00    -0.244 OA
ATOM     37  S   IDU d1623      64.510  44.429  39.342  0.00  0.00     0.252 S 
ATOM     38  C4  IDU d1623      63.621  42.297  36.239  0.00  0.00    -0.005 C 
ATOM     39  C5  IDU d1623      63.096  40.861  36.398  0.00  0.00     0.127 C 
ATOM     40  O3S IDU d1623      65.729  44.454  40.061  0.00  0.00    -0.572 OA
ATOM     41  O5  IDU d1623      63.121  40.502  37.825  0.00  0.00    -0.343 OA
ATOM     42  O61 IDU d1623      61.544  41.089  34.635  0.00  0.00    -0.646 OA
ATOM     43  C2  IDU d1623      64.959  41.977  38.305  0.00  0.00     0.132 C 
ATOM     44  C6  IDU d1623      61.700  40.805  35.841  0.00  0.00     0.203 C 
ATOM     45  O62 IDU d1623      60.778  40.481  36.604  0.00  0.00    -0.646 OA
ATOM     46  O2S IDU d1623      64.752  45.175  38.116  0.00  0.00    -0.572 OA
ATOM     47  C1  IDU d1623      64.458  40.529  38.419  0.00  0.00     0.161 C 
ATOM     48  O3  IDU d1623      65.897  41.544  36.130  0.00  0.00    -0.393 OA
ATOM     49  H   IDU d1623      65.411  43.397  36.749  0.00  0.00     0.087 H 
ATOM     50  H   IDU d1623      63.649  42.553  35.200  0.00  0.00     0.041 H 
ATOM     51  H   IDU d1623      62.972  42.971  36.757  0.00  0.00     0.041 H 
ATOM     52  H   IDU d1623      63.708  40.161  35.866  0.00  0.00     0.100 H 
ATOM     53  H   IDU d1623      65.937  42.068  38.729  0.00  0.00     0.097 H 
ATOM     54  H   IDU d1623      65.099  39.852  37.893  0.00  0.00     0.133 H 
ATOM     55  H   IDU d1623      65.570  40.633  36.194  0.00  0.00     0.210 HD
ENDROOT
TORSDOF 16
ENDMDL
MODEL 67
REMARK VINA RESULT:      -3.6      4.485      6.787
REMARK  0 active torsions:
REMARK  status: ('A' for Active; 'I' for Inactive)
REMARK       I    between atoms: O2S_2  and  S1_19 
REMARK       I    between atoms: C3_3  and  O3_35 
REMARK       I    between atoms: O2_5  and  C2_22 
REMARK       I    between atoms: O2_5  and  S_7 
REMARK       I    between atoms: O1_6  and  C1_12 
REMARK       I    between atoms: O4_8  and  C1_32 
REMARK       I    between atoms: O4_8  and  C4_20 
REMARK       I    between atoms: C5_10  and  C6_33 
REMARK       I    between atoms: C5_14  and  C6_23 
REMARK       I    between atoms: O3_17  and  C3_31 
REMARK       I    between atoms: S1_19  and  N_30 
REMARK       I    between atoms: S1_19  and  O1S_28 
REMARK       I    between atoms: S1_19  and  O3S_25 
REMARK       I    between atoms: S2_21  and  O6_29 
REMARK       I    between atoms: C2_24  and  N_30 
REMARK       I    between atoms: O6_29  and  C6_33 
ROOT
ATOM      1  O5S SGN d5702      60.667  39.940  36.934  0.00  0.00    -0.572 OA
ATOM      2  O2S SGN d5702      69.429  41.456  42.470  0.00  0.00    -0.296 OA
ATOM      3  O1  SGN d5702      64.773  41.518  41.143  0.00  0.00    -0.369 OA
ATOM      4  O4  SGN d5702      64.985  42.975  36.745  0.00  0.00    -0.348 OA
ATOM      5  O5  SGN d5702      64.807  40.272  39.172  0.00  0.00    -0.350 OA
ATOM      6  C5  SGN d5702      64.337  41.236  38.262  0.00  0.00     0.091 C 
ATOM      7  O4S SGN d5702      60.208  42.094  36.166  0.00  0.00    -0.572 OA
ATOM      8  C1  SGN d5702      65.580  40.765  40.270  0.00  0.00     0.147 C 
ATOM      9  O3  SGN d5702      67.386  43.408  38.396  0.00  0.00    -0.391 OA
ATOM     10  S1  SGN d5702      68.929  41.101  41.182  0.00  0.00     0.156 S 
ATOM     11  C4  SGN d5702      65.538  42.012  37.685  0.00  0.00     0.095 C 
ATOM     12  S2  SGN d5702      61.140  41.015  36.110  0.00  0.00     0.251 S 
ATOM     13  C2  SGN d5702      66.756  41.558  39.731  0.00  0.00     0.081 C 
ATOM     14  O3S SGN d5702      69.852  41.419  40.110  0.00  0.00    -0.296 OA
ATOM     15  O1S SGN d5702      68.550  39.703  41.232  0.00  0.00    -0.296 OA
ATOM     16  O6  SGN d5702      62.700  41.499  36.684  0.00  0.00    -0.254 OA
ATOM     17  N   SGN d5702      67.483  42.060  40.849  0.00  0.00    -0.210 NA
ATOM     18  C3  SGN d5702      66.270  42.695  38.871  0.00  0.00     0.083 C 
ATOM     19  C6  SGN d5702      63.572  40.506  37.202  0.00  0.00     0.067 C 
ATOM     20  O6S SGN d5702      61.344  40.633  34.743  0.00  0.00    -0.572 OA
ATOM     21  H   SGN d5702      68.775  41.222  43.146  0.00  0.00     0.231 HD
ATOM     22  H   SGN d5702      64.038  40.969  41.459  0.00  0.00     0.212 HD
ATOM     23  H   SGN d5702      63.692  41.952  38.728  0.00  0.00     0.090 H 
ATOM     24  H   SGN d5702      65.967  39.949  40.846  0.00  0.00     0.131 H 
ATOM     25  H   SGN d5702      67.087  44.144  37.840  0.00  0.00     0.210 HD
ATOM     26  H   SGN d5702      66.247  41.393  37.175  0.00  0.00     0.091 H 
ATOM     27  H   SGN d5702      67.381  40.936  39.125  0.00  0.00     0.076 H 
ATOM     28  H   SGN d5702      70.062  42.365  40.135  0.00  0.00     0.231 HD
ATOM     29  H   SGN d5702      67.935  39.560  41.968  0.00  0.00     0.231 HD
ATOM     30  H   SGN d5702      67.764  43.022  40.655  0.00  0.00     0.140 HD
ATOM     31  H   SGN d5702      65.633  43.376  39.395  0.00  0.00     0.089 H 
ATOM     32  H   SGN d5702      63.020  39.691  37.620  0.00  0.00     0.080 H 
ATOM     33  H   SGN d5702      64.204  40.074  36.454  0.00  0.00     0.080 H 
ATOM     34  C3  IDU d1623      64.959  46.526  35.450  0.00  0.00     0.069 C 
ATOM     35  O1S IDU d1623      64.346  44.027  31.809  0.00  0.00    -0.572 OA
ATOM     36  O2  IDU d1623      64.869  44.428  34.267  0.00  0.00    -0.244 OA
ATOM     37  S   IDU d1623      63.842  44.780  32.917  0.00  0.00     0.252 S 
ATOM     38  C4  IDU d1623      66.454  46.614  35.103  0.00  0.00    -0.005 C 
ATOM     39  C5  IDU d1623      67.274  45.848  36.155  0.00  0.00     0.127 C 
ATOM     40  O3S IDU d1623      62.491  44.495  33.230  0.00  0.00    -0.572 OA
ATOM     41  O5  IDU d1623      66.803  44.455  36.201  0.00  0.00    -0.343 OA
ATOM     42  O61 IDU d1623      69.247  47.057  35.693  0.00  0.00    -0.646 OA
ATOM     43  C2  IDU d1623      64.576  45.039  35.502  0.00  0.00     0.132 C 
ATOM     44  C6  IDU d1623      68.725  45.926  35.768  0.00  0.00     0.203 C 
ATOM     45  O62 IDU d1623      69.329  44.865  35.544  0.00  0.00    -0.646 OA
ATOM     46  O2S IDU d1623      63.887  46.196  32.589  0.00  0.00    -0.572 OA
ATOM     47  C1  IDU d1623      65.396  44.317  36.583  0.00  0.00     0.161 C 
ATOM     48  O3  IDU d1623      64.732  47.125  36.695  0.00  0.00    -0.393 OA
ATOM     49  H   IDU d1623      64.369  47.035  34.716  0.00  0.00     0.087 H 
ATOM     50  H   IDU d1623      66.758  47.640  35.092  0.00  0.00     0.041 H 
ATOM     51  H   IDU d1623      66.620  46.180  34.139  0.00  0.00     0.041 H 
ATOM     52  H   IDU d1623      67.153  46.274  37.129  0.00  0.00     0.100 H 
ATOM     53  H   IDU d1623      63.532  44.971  35.720  0.00  0.00     0.097 H 
ATOM     54  H   IDU d1623      65.242  44.754  37.547  0.00  0.00     0.133 H 
ATOM     55  H   IDU d1623      65.261  46.674  37.372  0.00  0.00     0.210 HD
ENDROOT
TORSDOF 16
ENDMDL
