MODEL 1
REMARK VINA RESULT:      -7.1      0.000      0.000
REMARK  0 active torsions:
REMARK  status: ('A' for Active; 'I' for Inactive)
REMARK       I    between atoms: C17_1  and  O25_32 
REMARK       I    between atoms: N14_2  and  C8_16 
REMARK       I    between atoms: N14_2  and  S20_34 
REMARK       I    between atoms: C7_3  and  O3_22 
REMARK       I    between atoms: C10_4  and  O15_5 
REMARK       I    between atoms: C6_8  and  C2_27 
REMARK       I    between atoms: C6_8  and  O11_31 
REMARK       I    between atoms: C27_9  and  C19_26 
REMARK       I    between atoms: O29_10  and  S20_34 
REMARK       I    between atoms: O9_11  and  C4_14 
REMARK       I    between atoms: S16_15  and  O11_31 
REMARK       I    between atoms: O30_17  and  S20_34 
REMARK       I    between atoms: O3_22  and  C1_29 
REMARK       I    between atoms: O18_24  and  C12_33 
REMARK       I    between atoms: O18_24  and  S26_35 
REMARK       I    between atoms: O28_30  and  S20_34 
ROOT
ATOM      1  C17 H1S d 301      18.348   6.345  36.542  0.00  0.00     0.086 C 
ATOM      2  N14 H1S d 301      17.090  11.726  31.460  0.00  0.00    -0.210 NA
ATOM      3  C7  H1S d 301      16.961   7.988  35.189  0.00  0.00     0.167 C 
ATOM      4  C10 H1S d 301      15.568  12.003  33.367  0.00  0.00     0.147 C 
ATOM      5  O15 H1S d 301      14.695  10.991  32.829  0.00  0.00    -0.369 OA
ATOM      6  O5  H1S d 301      15.470  12.014  34.816  0.00  0.00    -0.350 OA
ATOM      7  O13 H1S d 301      15.862   7.745  36.134  0.00  0.00    -0.311 OA
ATOM      8  C6  H1S d 301      15.772  10.814  36.946  0.00  0.00     0.067 C 
ATOM      9  C27 H1S d 301      15.131   7.405  38.433  0.00  0.00     0.233 C 
ATOM     10  O29 H1S d 301      18.098  12.511  29.300  0.00  0.00    -0.296 OA
ATOM     11  O9  H1S d 301      18.789  10.065  33.061  0.00  0.00    -0.391 OA
ATOM     12  O34 H1S d 301      13.971   7.590  38.131  0.00  0.00    -0.642 OA
ATOM     13  O32 H1S d 301      16.732   6.342  32.363  0.00  0.00    -0.572 OA
ATOM     14  C4  H1S d 301      17.447  10.370  33.458  0.00  0.00     0.083 C 
ATOM     15  S16 H1S d 301      16.712  11.905  38.878  0.00  0.00     0.251 S 
ATOM     16  C8  H1S d 301      17.017  11.736  32.917  0.00  0.00     0.081 C 
ATOM     17  O30 H1S d 301      18.345  14.103  31.238  0.00  0.00    -0.296 OA
ATOM     18  O23 H1S d 301      15.579  11.189  39.860  0.00  0.00    -0.572 OA
ATOM     19  O35 H1S d 301      15.496   7.349  39.784  0.00  0.00    -0.642 OA
ATOM     20  O31 H1S d 301      16.417   4.104  32.881  0.00  0.00    -0.572 OA
ATOM     21  O22 H1S d 301      17.063  13.164  39.416  0.00  0.00    -0.572 OA
ATOM     22  O3  H1S d 301      17.769   9.124  35.645  0.00  0.00    -0.348 OA
ATOM     23  O33 H1S d 301      18.783   4.958  32.902  0.00  0.00    -0.572 OA
ATOM     24  O18 H1S d 301      16.950   5.602  34.676  0.00  0.00    -0.244 OA
ATOM     25  O21 H1S d 301      17.882  11.088  38.828  0.00  0.00    -0.572 OA
ATOM     26  C19 H1S d 301      16.134   7.231  37.373  0.00  0.00     0.147 C 
ATOM     27  C2  H1S d 301      15.905  10.755  35.407  0.00  0.00     0.091 C 
ATOM     28  C24 H1S d 301      17.288   6.566  37.620  0.00  0.00    -0.034 C 
ATOM     29  C1  H1S d 301      17.375  10.369  35.006  0.00  0.00     0.095 C 
ATOM     30  O28 H1S d 301      19.557  11.901  30.996  0.00  0.00    -0.296 OA
ATOM     31  O11 H1S d 301      16.140  12.102  37.461  0.00  0.00    -0.254 OA
ATOM     32  O25 H1S d 301      19.490   7.162  36.831  0.00  0.00    -0.389 OA
ATOM     33  C12 H1S d 301      17.809   6.684  35.112  0.00  0.00     0.135 C 
ATOM     34  S20 H1S d 301      18.316  12.533  30.705  0.00  0.00     0.156 S 
ATOM     35  S26 H1S d 301      17.175   5.265  33.190  0.00  0.00     0.252 S 
ATOM     36  H   H1S d 301      18.617   5.309  36.549  0.00  0.00     0.093 H 
ATOM     37  H   H1S d 301      16.217  12.124  31.115  0.00  0.00     0.140 HD
ATOM     38  H   H1S d 301      16.587   8.234  34.217  0.00  0.00     0.134 H 
ATOM     39  H   H1S d 301      15.273  12.963  32.999  0.00  0.00     0.131 H 
ATOM     40  H   H1S d 301      14.964  10.121  33.164  0.00  0.00     0.212 HD
ATOM     41  H   H1S d 301      16.411  10.073  37.378  0.00  0.00     0.080 H 
ATOM     42  H   H1S d 301      14.749  10.632  37.200  0.00  0.00     0.080 H 
ATOM     43  H   H1S d 301      17.253  12.941  29.098  0.00  0.00     0.231 HD
ATOM     44  H   H1S d 301      19.040   9.197  33.414  0.00  0.00     0.210 HD
ATOM     45  H   H1S d 301      16.784   9.632  33.057  0.00  0.00     0.089 H 
ATOM     46  H   H1S d 301      17.662  12.505  33.290  0.00  0.00     0.076 H 
ATOM     47  H   H1S d 301      17.497  14.528  31.037  0.00  0.00     0.231 HD
ATOM     48  H   H1S d 301      15.265   9.992  35.017  0.00  0.00     0.090 H 
ATOM     49  H   H1S d 301      17.457   6.196  38.568  0.00  0.00     0.085 H 
ATOM     50  H   H1S d 301      18.093  11.079  35.360  0.00  0.00     0.091 H 
ATOM     51  H   H1S d 301      19.534  10.983  30.682  0.00  0.00     0.231 HD
ATOM     52  H   H1S d 301      19.230   8.097  36.821  0.00  0.00     0.210 HD
ATOM     53  H   H1S d 301      18.625   6.813  34.432  0.00  0.00     0.097 H 
ENDROOT
TORSDOF 16
ENDMDL
MODEL 2
REMARK VINA RESULT:      -6.7      3.309      7.686
REMARK  0 active torsions:
REMARK  status: ('A' for Active; 'I' for Inactive)
REMARK       I    between atoms: C17_1  and  O25_32 
REMARK       I    between atoms: N14_2  and  C8_16 
REMARK       I    between atoms: N14_2  and  S20_34 
REMARK       I    between atoms: C7_3  and  O3_22 
REMARK       I    between atoms: C10_4  and  O15_5 
REMARK       I    between atoms: C6_8  and  C2_27 
REMARK       I    between atoms: C6_8  and  O11_31 
REMARK       I    between atoms: C27_9  and  C19_26 
REMARK       I    between atoms: O29_10  and  S20_34 
REMARK       I    between atoms: O9_11  and  C4_14 
REMARK       I    between atoms: S16_15  and  O11_31 
REMARK       I    between atoms: O30_17  and  S20_34 
REMARK       I    between atoms: O3_22  and  C1_29 
REMARK       I    between atoms: O18_24  and  C12_33 
REMARK       I    between atoms: O18_24  and  S26_35 
REMARK       I    between atoms: O28_30  and  S20_34 
ROOT
ATOM      1  C17 H1S d 301      17.559  12.030  34.579  0.00  0.00     0.086 C 
ATOM      2  N14 H1S d 301      16.817   5.044  31.931  0.00  0.00    -0.210 NA
ATOM      3  C7  H1S d 301      17.147  10.239  32.824  0.00  0.00     0.167 C 
ATOM      4  C10 H1S d 301      17.855   6.479  30.230  0.00  0.00     0.147 C 
ATOM      5  O15 H1S d 301      16.561   6.989  29.856  0.00  0.00    -0.369 OA
ATOM      6  O5  H1S d 301      18.869   7.491  29.988  0.00  0.00    -0.350 OA
ATOM      7  O13 H1S d 301      17.314  11.284  31.806  0.00  0.00    -0.311 OA
ATOM      8  C6  H1S d 301      19.756   9.732  30.497  0.00  0.00     0.067 C 
ATOM      9  C27 H1S d 301      18.514  13.256  31.024  0.00  0.00     0.233 C 
ATOM     10  O29 H1S d 301      16.082   2.803  32.788  0.00  0.00    -0.296 OA
ATOM     11  O9  H1S d 301      17.499   6.955  33.954  0.00  0.00    -0.391 OA
ATOM     12  O34 H1S d 301      18.031  13.157  29.916  0.00  0.00    -0.642 OA
ATOM     13  O32 H1S d 301      14.033   9.480  33.513  0.00  0.00    -0.572 OA
ATOM     14  C4  H1S d 301      17.531   7.291  32.562  0.00  0.00     0.083 C 
ATOM     15  S16 H1S d 301      22.120  10.115  30.761  0.00  0.00     0.251 S 
ATOM     16  C8  H1S d 301      17.844   6.057  31.711  0.00  0.00     0.081 C 
ATOM     17  O30 H1S d 301      18.532   2.984  32.226  0.00  0.00    -0.296 OA
ATOM     18  O23 H1S d 301      22.013  11.521  29.883  0.00  0.00    -0.572 OA
ATOM     19  O35 H1S d 301      19.566  14.152  31.244  0.00  0.00    -0.642 OA
ATOM     20  O31 H1S d 301      12.922  11.456  34.004  0.00  0.00    -0.572 OA
ATOM     21  O22 H1S d 301      23.396   9.539  30.562  0.00  0.00    -0.572 OA
ATOM     22  O3  H1S d 301      18.437   9.599  33.101  0.00  0.00    -0.348 OA
ATOM     23  O33 H1S d 301      14.238  10.394  35.866  0.00  0.00    -0.572 OA
ATOM     24  O18 H1S d 301      15.307  11.544  33.756  0.00  0.00    -0.244 OA
ATOM     25  O21 H1S d 301      21.964  10.408  32.150  0.00  0.00    -0.572 OA
ATOM     26  C19 H1S d 301      17.975  12.441  32.122  0.00  0.00     0.147 C 
ATOM     27  C2  H1S d 301      18.660   8.684  30.798  0.00  0.00     0.091 C 
ATOM     28  C24 H1S d 301      18.121  12.837  33.409  0.00  0.00    -0.034 C 
ATOM     29  C1  H1S d 301      18.616   8.374  32.338  0.00  0.00     0.095 C 
ATOM     30  O28 H1S d 301      17.400   4.098  34.188  0.00  0.00    -0.296 OA
ATOM     31  O11 H1S d 301      21.039   9.118  30.304  0.00  0.00    -0.254 OA
ATOM     32  O25 H1S d 301      18.644  11.429  35.298  0.00  0.00    -0.389 OA
ATOM     33  C12 H1S d 301      16.566  10.919  34.101  0.00  0.00     0.135 C 
ATOM     34  S20 H1S d 301      17.174   3.712  32.838  0.00  0.00     0.156 S 
ATOM     35  S26 H1S d 301      14.108  10.707  34.240  0.00  0.00     0.252 S 
ATOM     36  H   H1S d 301      17.015  12.699  35.212  0.00  0.00     0.093 H 
ATOM     37  H   H1S d 301      16.529   4.709  31.012  0.00  0.00     0.140 HD
ATOM     38  H   H1S d 301      16.479   9.475  32.487  0.00  0.00     0.134 H 
ATOM     39  H   H1S d 301      18.086   5.618  29.637  0.00  0.00     0.131 H 
ATOM     40  H   H1S d 301      16.353   7.769  30.394  0.00  0.00     0.212 HD
ATOM     41  H   H1S d 301      19.818  10.414  31.319  0.00  0.00     0.080 H 
ATOM     42  H   H1S d 301      19.491  10.242  29.595  0.00  0.00     0.080 H 
ATOM     43  H   H1S d 301      15.925   2.538  31.869  0.00  0.00     0.231 HD
ATOM     44  H   H1S d 301      17.300   7.750  34.473  0.00  0.00     0.210 HD
ATOM     45  H   H1S d 301      16.572   7.663  32.266  0.00  0.00     0.089 H 
ATOM     46  H   H1S d 301      18.795   5.649  31.982  0.00  0.00     0.076 H 
ATOM     47  H   H1S d 301      18.372   2.723  31.306  0.00  0.00     0.231 HD
ATOM     48  H   H1S d 301      17.701   9.076  30.532  0.00  0.00     0.090 H 
ATOM     49  H   H1S d 301      18.628  13.714  33.606  0.00  0.00     0.085 H 
ATOM     50  H   H1S d 301      19.542   7.979  32.700  0.00  0.00     0.091 H 
ATOM     51  H   H1S d 301      16.603   4.524  34.541  0.00  0.00     0.231 HD
ATOM     52  H   H1S d 301      19.127  10.826  34.711  0.00  0.00     0.210 HD
ATOM     53  H   H1S d 301      16.426  10.193  34.875  0.00  0.00     0.097 H 
ENDROOT
TORSDOF 16
ENDMDL
MODEL 3
REMARK VINA RESULT:      -6.7      2.852      6.588
REMARK  0 active torsions:
REMARK  status: ('A' for Active; 'I' for Inactive)
REMARK       I    between atoms: C17_1  and  O25_32 
REMARK       I    between atoms: N14_2  and  C8_16 
REMARK       I    between atoms: N14_2  and  S20_34 
REMARK       I    between atoms: C7_3  and  O3_22 
REMARK       I    between atoms: C10_4  and  O15_5 
REMARK       I    between atoms: C6_8  and  C2_27 
REMARK       I    between atoms: C6_8  and  O11_31 
REMARK       I    between atoms: C27_9  and  C19_26 
REMARK       I    between atoms: O29_10  and  S20_34 
REMARK       I    between atoms: O9_11  and  C4_14 
REMARK       I    between atoms: S16_15  and  O11_31 
REMARK       I    between atoms: O30_17  and  S20_34 
REMARK       I    between atoms: O3_22  and  C1_29 
REMARK       I    between atoms: O18_24  and  C12_33 
REMARK       I    between atoms: O18_24  and  S26_35 
REMARK       I    between atoms: O28_30  and  S20_34 
ROOT
ATOM      1  C17 H1S d 301      17.775   6.232  30.427  0.00  0.00     0.086 C 
ATOM      2  N14 H1S d 301      15.097  10.434  36.042  0.00  0.00    -0.210 NA
ATOM      3  C7  H1S d 301      17.900   7.733  32.472  0.00  0.00     0.167 C 
ATOM      4  C10 H1S d 301      17.191  11.399  35.199  0.00  0.00     0.147 C 
ATOM      5  O15 H1S d 301      17.952  10.457  35.979  0.00  0.00    -0.369 OA
ATOM      6  O5  H1S d 301      17.937  11.760  34.006  0.00  0.00    -0.350 OA
ATOM      7  O13 H1S d 301      19.330   7.907  32.183  0.00  0.00    -0.311 OA
ATOM      8  C6  H1S d 301      18.973  11.048  31.887  0.00  0.00     0.067 C 
ATOM      9  C27 H1S d 301      21.094   8.236  30.536  0.00  0.00     0.233 C 
ATOM     10  O29 H1S d 301      13.044  10.516  37.483  0.00  0.00    -0.296 OA
ATOM     11  O9  H1S d 301      14.826   8.919  33.626  0.00  0.00    -0.391 OA
ATOM     12  O34 H1S d 301      21.892   8.542  31.396  0.00  0.00    -0.642 OA
ATOM     13  O32 H1S d 301      17.230   5.546  34.821  0.00  0.00    -0.572 OA
ATOM     14  C4  H1S d 301      16.067   9.534  33.992  0.00  0.00     0.083 C 
ATOM     15  S16 H1S d 301      18.776  12.376  29.887  0.00  0.00     0.251 S 
ATOM     16  C8  H1S d 301      15.825  10.792  34.830  0.00  0.00     0.081 C 
ATOM     17  O30 H1S d 301      13.306  12.444  35.881  0.00  0.00    -0.296 OA
ATOM     18  O23 H1S d 301      20.376  12.111  29.527  0.00  0.00    -0.572 OA
ATOM     19  O35 H1S d 301      21.420   8.429  29.188  0.00  0.00    -0.642 OA
ATOM     20  O31 H1S d 301      18.322   3.575  34.274  0.00  0.00    -0.572 OA
ATOM     21  O22 H1S d 301      18.393  13.645  29.395  0.00  0.00    -0.572 OA
ATOM     22  O3  H1S d 301      17.124   8.787  31.809  0.00  0.00    -0.348 OA
ATOM     23  O33 H1S d 301      16.100   3.991  33.172  0.00  0.00    -0.572 OA
ATOM     24  O18 H1S d 301      18.300   5.332  32.641  0.00  0.00    -0.244 OA
ATOM     25  O21 H1S d 301      17.974  11.380  29.249  0.00  0.00    -0.572 OA
ATOM     26  C19 H1S d 301      19.803   7.652  30.923  0.00  0.00     0.147 C 
ATOM     27  C2  H1S d 301      18.169  10.615  33.135  0.00  0.00     0.091 C 
ATOM     28  C24 H1S d 301      19.111   6.873  30.057  0.00  0.00    -0.034 C 
ATOM     29  C1  H1S d 301      16.839   9.901  32.700  0.00  0.00     0.095 C 
ATOM     30  O28 H1S d 301      12.745  10.071  35.228  0.00  0.00    -0.296 OA
ATOM     31  O11 H1S d 301      18.559  12.337  31.411  0.00  0.00    -0.254 OA
ATOM     32  O25 H1S d 301      16.723   6.885  29.702  0.00  0.00    -0.389 OA
ATOM     33  C12 H1S d 301      17.487   6.320  31.962  0.00  0.00     0.135 C 
ATOM     34  S20 H1S d 301      13.498  10.822  36.171  0.00  0.00     0.156 S 
ATOM     35  S26 H1S d 301      17.515   4.629  33.764  0.00  0.00     0.252 S 
ATOM     36  H   H1S d 301      17.822   5.195  30.166  0.00  0.00     0.093 H 
ATOM     37  H   H1S d 301      15.576  10.886  36.821  0.00  0.00     0.140 HD
ATOM     38  H   H1S d 301      17.707   7.809  33.522  0.00  0.00     0.134 H 
ATOM     39  H   H1S d 301      17.021  12.286  35.774  0.00  0.00     0.131 H 
ATOM     40  H   H1S d 301      18.105   9.654  35.457  0.00  0.00     0.212 HD
ATOM     41  H   H1S d 301      18.823  10.328  31.111  0.00  0.00     0.080 H 
ATOM     42  H   H1S d 301      20.006  11.108  32.160  0.00  0.00     0.080 H 
ATOM     43  H   H1S d 301      13.556  11.026  38.129  0.00  0.00     0.231 HD
ATOM     44  H   H1S d 301      15.003   8.125  33.096  0.00  0.00     0.210 HD
ATOM     45  H   H1S d 301      16.640   8.848  34.582  0.00  0.00     0.089 H 
ATOM     46  H   H1S d 301      15.247  11.502  34.276  0.00  0.00     0.076 H 
ATOM     47  H   H1S d 301      13.821  12.951  36.527  0.00  0.00     0.231 HD
ATOM     48  H   H1S d 301      18.734   9.904  33.700  0.00  0.00     0.090 H 
ATOM     49  H   H1S d 301      19.501   6.708  29.116  0.00  0.00     0.085 H 
ATOM     50  H   H1S d 301      16.206  10.539  32.119  0.00  0.00     0.091 H 
ATOM     51  H   H1S d 301      12.861   9.123  35.402  0.00  0.00     0.231 HD
ATOM     52  H   H1S d 301      16.694   7.823  29.950  0.00  0.00     0.210 HD
ATOM     53  H   H1S d 301      16.448   6.147  32.153  0.00  0.00     0.097 H 
ENDROOT
TORSDOF 16
ENDMDL
MODEL 4
REMARK VINA RESULT:      -6.6      2.580      6.119
REMARK  0 active torsions:
REMARK  status: ('A' for Active; 'I' for Inactive)
REMARK       I    between atoms: C17_1  and  O25_32 
REMARK       I    between atoms: N14_2  and  C8_16 
REMARK       I    between atoms: N14_2  and  S20_34 
REMARK       I    between atoms: C7_3  and  O3_22 
REMARK       I    between atoms: C10_4  and  O15_5 
REMARK       I    between atoms: C6_8  and  C2_27 
REMARK       I    between atoms: C6_8  and  O11_31 
REMARK       I    between atoms: C27_9  and  C19_26 
REMARK       I    between atoms: O29_10  and  S20_34 
REMARK       I    between atoms: O9_11  and  C4_14 
REMARK       I    between atoms: S16_15  and  O11_31 
REMARK       I    between atoms: O30_17  and  S20_34 
REMARK       I    between atoms: O3_22  and  C1_29 
REMARK       I    between atoms: O18_24  and  C12_33 
REMARK       I    between atoms: O18_24  and  S26_35 
REMARK       I    between atoms: O28_30  and  S20_34 
ROOT
ATOM      1  C17 H1S d 301      20.299  10.596  32.933  0.00  0.00     0.086 C 
ATOM      2  N14 H1S d 301      13.206  12.076  34.895  0.00  0.00    -0.210 NA
ATOM      3  C7  H1S d 301      17.780  10.270  32.969  0.00  0.00     0.167 C 
ATOM      4  C10 H1S d 301      13.520   9.653  34.658  0.00  0.00     0.147 C 
ATOM      5  O15 H1S d 301      13.376   9.763  33.229  0.00  0.00    -0.369 OA
ATOM      6  O5  H1S d 301      14.387   8.531  34.977  0.00  0.00    -0.350 OA
ATOM      7  O13 H1S d 301      18.002   8.954  32.357  0.00  0.00    -0.311 OA
ATOM      8  C6  H1S d 301      16.612   7.488  34.807  0.00  0.00     0.067 C 
ATOM      9  C27 H1S d 301      19.318   6.907  32.242  0.00  0.00     0.233 C 
ATOM     10  O29 H1S d 301      11.840  14.078  35.548  0.00  0.00    -0.296 OA
ATOM     11  O9  H1S d 301      16.042  12.422  35.099  0.00  0.00    -0.391 OA
ATOM     12  O34 H1S d 301      18.460   6.347  31.593  0.00  0.00    -0.642 OA
ATOM     13  O32 H1S d 301      16.875  12.625  30.875  0.00  0.00    -0.572 OA
ATOM     14  C4  H1S d 301      15.467  11.205  34.608  0.00  0.00     0.083 C 
ATOM     15  S16 H1S d 301      17.625   6.381  36.691  0.00  0.00     0.251 S 
ATOM     16  C8  H1S d 301      14.089  10.965  35.230  0.00  0.00     0.081 C 
ATOM     17  O30 H1S d 301      12.222  12.397  37.386  0.00  0.00    -0.296 OA
ATOM     18  O23 H1S d 301      18.142   5.141  35.714  0.00  0.00    -0.572 OA
ATOM     19  O35 H1S d 301      20.384   6.167  32.767  0.00  0.00    -0.642 OA
ATOM     20  O31 H1S d 301      18.412  12.645  29.138  0.00  0.00    -0.572 OA
ATOM     21  O22 H1S d 301      17.371   5.875  37.987  0.00  0.00    -0.572 OA
ATOM     22  O3  H1S d 301      17.766  10.146  34.431  0.00  0.00    -0.348 OA
ATOM     23  O33 H1S d 301      19.038  13.894  31.230  0.00  0.00    -0.572 OA
ATOM     24  O18 H1S d 301      18.897  11.273  31.045  0.00  0.00    -0.244 OA
ATOM     25  O21 H1S d 301      18.649   7.373  36.783  0.00  0.00    -0.572 OA
ATOM     26  C19 H1S d 301      19.231   8.358  32.454  0.00  0.00     0.147 C 
ATOM     27  C2  H1S d 301      15.734   8.710  34.451  0.00  0.00     0.091 C 
ATOM     28  C24 H1S d 301      20.343   9.083  32.725  0.00  0.00    -0.034 C 
ATOM     29  C1  H1S d 301      16.416  10.032  34.958  0.00  0.00     0.095 C 
ATOM     30  O28 H1S d 301      13.984  13.923  36.416  0.00  0.00    -0.296 OA
ATOM     31  O11 H1S d 301      16.333   7.001  36.127  0.00  0.00    -0.254 OA
ATOM     32  O25 H1S d 301      20.533  10.887  34.317  0.00  0.00    -0.389 OA
ATOM     33  C12 H1S d 301      18.928  11.209  32.492  0.00  0.00     0.135 C 
ATOM     34  S20 H1S d 301      12.822  13.185  36.056  0.00  0.00     0.156 S 
ATOM     35  S26 H1S d 301      18.266  12.588  30.551  0.00  0.00     0.252 S 
ATOM     36  H   H1S d 301      21.061  11.036  32.323  0.00  0.00     0.093 H 
ATOM     37  H   H1S d 301      12.328  11.671  34.571  0.00  0.00     0.140 HD
ATOM     38  H   H1S d 301      16.835  10.678  32.676  0.00  0.00     0.134 H 
ATOM     39  H   H1S d 301      12.562   9.479  35.103  0.00  0.00     0.131 H 
ATOM     40  H   H1S d 301      14.245   9.921  32.828  0.00  0.00     0.212 HD
ATOM     41  H   H1S d 301      17.641   7.773  34.753  0.00  0.00     0.080 H 
ATOM     42  H   H1S d 301      16.394   6.706  34.109  0.00  0.00     0.080 H 
ATOM     43  H   H1S d 301      11.046  13.578  35.301  0.00  0.00     0.231 HD
ATOM     44  H   H1S d 301      16.913  12.554  34.693  0.00  0.00     0.210 HD
ATOM     45  H   H1S d 301      15.344  11.276  33.548  0.00  0.00     0.089 H 
ATOM     46  H   H1S d 301      14.168  10.895  36.295  0.00  0.00     0.076 H 
ATOM     47  H   H1S d 301      11.431  11.895  37.134  0.00  0.00     0.231 HD
ATOM     48  H   H1S d 301      15.644   8.794  33.388  0.00  0.00     0.090 H 
ATOM     49  H   H1S d 301      21.250   8.596  32.793  0.00  0.00     0.085 H 
ATOM     50  H   H1S d 301      16.553  10.037  36.020  0.00  0.00     0.091 H 
ATOM     51  H   H1S d 301      14.331  14.382  35.635  0.00  0.00     0.231 HD
ATOM     52  H   H1S d 301      19.835  10.482  34.855  0.00  0.00     0.210 HD
ATOM     53  H   H1S d 301      18.808  12.185  32.914  0.00  0.00     0.097 H 
ENDROOT
TORSDOF 16
ENDMDL
MODEL 5
REMARK VINA RESULT:      -6.5      2.313      6.345
REMARK  0 active torsions:
REMARK  status: ('A' for Active; 'I' for Inactive)
REMARK       I    between atoms: C17_1  and  O25_32 
REMARK       I    between atoms: N14_2  and  C8_16 
REMARK       I    between atoms: N14_2  and  S20_34 
REMARK       I    between atoms: C7_3  and  O3_22 
REMARK       I    between atoms: C10_4  and  O15_5 
REMARK       I    between atoms: C6_8  and  C2_27 
REMARK       I    between atoms: C6_8  and  O11_31 
REMARK       I    between atoms: C27_9  and  C19_26 
REMARK       I    between atoms: O29_10  and  S20_34 
REMARK       I    between atoms: O9_11  and  C4_14 
REMARK       I    between atoms: S16_15  and  O11_31 
REMARK       I    between atoms: O30_17  and  S20_34 
REMARK       I    between atoms: O3_22  and  C1_29 
REMARK       I    between atoms: O18_24  and  C12_33 
REMARK       I    between atoms: O18_24  and  S26_35 
REMARK       I    between atoms: O28_30  and  S20_34 
ROOT
ATOM      1  C17 H1S d 301      15.673  10.955  33.001  0.00  0.00     0.086 C 
ATOM      2  N14 H1S d 301      18.542   4.048  33.658  0.00  0.00    -0.210 NA
ATOM      3  C7  H1S d 301      17.185   9.144  33.945  0.00  0.00     0.167 C 
ATOM      4  C10 H1S d 301      18.457   5.133  35.859  0.00  0.00     0.147 C 
ATOM      5  O15 H1S d 301      19.675   5.845  35.567  0.00  0.00    -0.369 OA
ATOM      6  O5  H1S d 301      17.636   5.918  36.765  0.00  0.00    -0.350 OA
ATOM      7  O13 H1S d 301      17.488  10.060  35.053  0.00  0.00    -0.311 OA
ATOM      8  C6  H1S d 301      16.367   7.987  37.182  0.00  0.00     0.067 C 
ATOM      9  C27 H1S d 301      16.702  11.710  36.664  0.00  0.00     0.233 C 
ATOM     10  O29 H1S d 301      18.933   2.054  32.186  0.00  0.00    -0.296 OA
ATOM     11  O9  H1S d 301      16.646   5.947  32.653  0.00  0.00    -0.391 OA
ATOM     12  O34 H1S d 301      17.723  11.619  37.313  0.00  0.00    -0.642 OA
ATOM     13  O32 H1S d 301      19.467   9.030  31.594  0.00  0.00    -0.572 OA
ATOM     14  C4  H1S d 301      17.347   6.165  33.883  0.00  0.00     0.083 C 
ATOM     15  S16 H1S d 301      14.223   7.944  38.280  0.00  0.00     0.251 S 
ATOM     16  C8  H1S d 301      17.698   4.834  34.552  0.00  0.00     0.081 C 
ATOM     17  O30 H1S d 301      17.196   1.734  33.984  0.00  0.00    -0.296 OA
ATOM     18  O23 H1S d 301      14.635   9.275  39.185  0.00  0.00    -0.572 OA
ATOM     19  O35 H1S d 301      15.608  12.410  37.188  0.00  0.00    -0.642 OA
ATOM     20  O31 H1S d 301      19.889  11.209  30.922  0.00  0.00    -0.572 OA
ATOM     21  O22 H1S d 301      13.343   7.128  39.029  0.00  0.00    -0.572 OA
ATOM     22  O3  H1S d 301      16.038   8.299  34.295  0.00  0.00    -0.348 OA
ATOM     23  O33 H1S d 301      17.897  10.065  29.898  0.00  0.00    -0.572 OA
ATOM     24  O18 H1S d 301      18.044  10.835  32.409  0.00  0.00    -0.244 OA
ATOM     25  O21 H1S d 301      13.553   8.365  37.091  0.00  0.00    -0.572 OA
ATOM     26  C19 H1S d 301      16.635  11.095  35.331  0.00  0.00     0.147 C 
ATOM     27  C2  H1S d 301      17.227   7.186  36.177  0.00  0.00     0.091 C 
ATOM     28  C24 H1S d 301      15.761  11.553  34.404  0.00  0.00    -0.034 C 
ATOM     29  C1  H1S d 301      16.450   7.008  34.823  0.00  0.00     0.095 C 
ATOM     30  O28 H1S d 301      16.925   3.184  31.935  0.00  0.00    -0.296 OA
ATOM     31  O11 H1S d 301      15.483   7.133  37.922  0.00  0.00    -0.254 OA
ATOM     32  O25 H1S d 301      14.448  10.219  32.879  0.00  0.00    -0.389 OA
ATOM     33  C12 H1S d 301      16.884  10.014  32.688  0.00  0.00     0.135 C 
ATOM     34  S20 H1S d 301      17.900   2.746  32.874  0.00  0.00     0.156 S 
ATOM     35  S26 H1S d 301      18.864  10.274  31.232  0.00  0.00     0.252 S 
ATOM     36  H   H1S d 301      15.698  11.759  32.296  0.00  0.00     0.093 H 
ATOM     37  H   H1S d 301      19.325   3.704  34.213  0.00  0.00     0.140 HD
ATOM     38  H   H1S d 301      18.010   8.494  33.745  0.00  0.00     0.134 H 
ATOM     39  H   H1S d 301      18.691   4.202  36.333  0.00  0.00     0.131 H 
ATOM     40  H   H1S d 301      19.461   6.688  35.138  0.00  0.00     0.212 HD
ATOM     41  H   H1S d 301      15.785   8.706  36.644  0.00  0.00     0.080 H 
ATOM     42  H   H1S d 301      17.025   8.469  37.875  0.00  0.00     0.080 H 
ATOM     43  H   H1S d 301      19.600   1.754  32.823  0.00  0.00     0.231 HD
ATOM     44  H   H1S d 301      16.434   6.802  32.246  0.00  0.00     0.210 HD
ATOM     45  H   H1S d 301      18.261   6.684  33.680  0.00  0.00     0.089 H 
ATOM     46  H   H1S d 301      16.809   4.278  34.765  0.00  0.00     0.076 H 
ATOM     47  H   H1S d 301      17.865   1.439  34.621  0.00  0.00     0.231 HD
ATOM     48  H   H1S d 301      18.121   7.729  35.954  0.00  0.00     0.090 H 
ATOM     49  H   H1S d 301      15.133  12.333  34.654  0.00  0.00     0.085 H 
ATOM     50  H   H1S d 301      15.530   6.476  34.948  0.00  0.00     0.091 H 
ATOM     51  H   H1S d 301      17.341   3.776  31.289  0.00  0.00     0.231 HD
ATOM     52  H   H1S d 301      14.441   9.494  33.525  0.00  0.00     0.210 HD
ATOM     53  H   H1S d 301      16.657   9.388  31.850  0.00  0.00     0.097 H 
ENDROOT
TORSDOF 16
ENDMDL
MODEL 6
REMARK VINA RESULT:      -6.5      1.085      1.122
REMARK  0 active torsions:
REMARK  status: ('A' for Active; 'I' for Inactive)
REMARK       I    between atoms: C17_1  and  O25_32 
REMARK       I    between atoms: N14_2  and  C8_16 
REMARK       I    between atoms: N14_2  and  S20_34 
REMARK       I    between atoms: C7_3  and  O3_22 
REMARK       I    between atoms: C10_4  and  O15_5 
REMARK       I    between atoms: C6_8  and  C2_27 
REMARK       I    between atoms: C6_8  and  O11_31 
REMARK       I    between atoms: C27_9  and  C19_26 
REMARK       I    between atoms: O29_10  and  S20_34 
REMARK       I    between atoms: O9_11  and  C4_14 
REMARK       I    between atoms: S16_15  and  O11_31 
REMARK       I    between atoms: O30_17  and  S20_34 
REMARK       I    between atoms: O3_22  and  C1_29 
REMARK       I    between atoms: O18_24  and  C12_33 
REMARK       I    between atoms: O18_24  and  S26_35 
REMARK       I    between atoms: O28_30  and  S20_34 
ROOT
ATOM      1  C17 H1S d 301      18.142   6.891  37.744  0.00  0.00     0.086 C 
ATOM      2  N14 H1S d 301      16.904  11.210  31.728  0.00  0.00    -0.210 NA
ATOM      3  C7  H1S d 301      16.758   8.029  35.942  0.00  0.00     0.167 C 
ATOM      4  C10 H1S d 301      15.029  11.407  33.301  0.00  0.00     0.147 C 
ATOM      5  O15 H1S d 301      14.468  10.178  32.802  0.00  0.00    -0.369 OA
ATOM      6  O5  H1S d 301      14.662  11.582  34.695  0.00  0.00    -0.350 OA
ATOM      7  O13 H1S d 301      15.565   7.688  36.728  0.00  0.00    -0.311 OA
ATOM      8  C6  H1S d 301      14.773  10.750  37.012  0.00  0.00     0.067 C 
ATOM      9  C27 H1S d 301      14.491   7.499  38.907  0.00  0.00     0.233 C 
ATOM     10  O29 H1S d 301      18.139  11.905  29.657  0.00  0.00    -0.296 OA
ATOM     11  O9  H1S d 301      18.546  10.150  33.824  0.00  0.00    -0.391 OA
ATOM     12  O34 H1S d 301      13.393   7.401  38.400  0.00  0.00    -0.642 OA
ATOM     13  O32 H1S d 301      17.360   6.026  33.417  0.00  0.00    -0.572 OA
ATOM     14  C4  H1S d 301      17.121  10.221  33.949  0.00  0.00     0.083 C 
ATOM     15  S16 H1S d 301      15.124  12.247  38.866  0.00  0.00     0.251 S 
ATOM     16  C8  H1S d 301      16.560  11.390  33.134  0.00  0.00     0.081 C 
ATOM     17  O30 H1S d 301      17.730  13.746  31.328  0.00  0.00    -0.296 OA
ATOM     18  O23 H1S d 301      13.976  11.444  39.760  0.00  0.00    -0.572 OA
ATOM     19  O35 H1S d 301      14.602   7.691  40.290  0.00  0.00    -0.642 OA
ATOM     20  O31 H1S d 301      17.362   3.855  34.232  0.00  0.00    -0.572 OA
ATOM     21  O22 H1S d 301      15.137  13.609  39.244  0.00  0.00    -0.572 OA
ATOM     22  O3  H1S d 301      17.249   9.355  36.331  0.00  0.00    -0.348 OA
ATOM     23  O33 H1S d 301      19.490   5.173  34.489  0.00  0.00    -0.572 OA
ATOM     24  O18 H1S d 301      17.273   5.647  35.824  0.00  0.00    -0.244 OA
ATOM     25  O21 H1S d 301      16.411  11.688  39.134  0.00  0.00    -0.572 OA
ATOM     26  C19 H1S d 301      15.689   7.401  38.061  0.00  0.00     0.147 C 
ATOM     27  C2  H1S d 301      15.199  10.525  35.542  0.00  0.00     0.091 C 
ATOM     28  C24 H1S d 301      16.877   7.025  38.591  0.00  0.00    -0.034 C 
ATOM     29  C1  H1S d 301      16.763  10.402  35.446  0.00  0.00     0.095 C 
ATOM     30  O28 H1S d 301      19.341  11.828  31.637  0.00  0.00    -0.296 OA
ATOM     31  O11 H1S d 301      14.800  12.141  37.364  0.00  0.00    -0.254 OA
ATOM     32  O25 H1S d 301      19.043   7.956  38.074  0.00  0.00    -0.389 OA
ATOM     33  C12 H1S d 301      17.827   6.928  36.211  0.00  0.00     0.135 C 
ATOM     34  S20 H1S d 301      18.084  12.149  31.056  0.00  0.00     0.156 S 
ATOM     35  S26 H1S d 301      17.828   5.177  34.466  0.00  0.00     0.252 S 
ATOM     36  H   H1S d 301      18.587   5.943  37.959  0.00  0.00     0.093 H 
ATOM     37  H   H1S d 301      16.053  11.373  31.190  0.00  0.00     0.140 HD
ATOM     38  H   H1S d 301      16.533   8.067  34.897  0.00  0.00     0.134 H 
ATOM     39  H   H1S d 301      14.639  12.232  32.741  0.00  0.00     0.131 H 
ATOM     40  H   H1S d 301      14.822   9.431  33.310  0.00  0.00     0.212 HD
ATOM     41  H   H1S d 301      15.444  10.217  37.652  0.00  0.00     0.080 H 
ATOM     42  H   H1S d 301      13.770  10.395  37.126  0.00  0.00     0.080 H 
ATOM     43  H   H1S d 301      17.283  12.122  29.257  0.00  0.00     0.231 HD
ATOM     44  H   H1S d 301      18.879   9.404  34.347  0.00  0.00     0.210 HD
ATOM     45  H   H1S d 301      16.688   9.318  33.572  0.00  0.00     0.089 H 
ATOM     46  H   H1S d 301      16.975  12.315  33.476  0.00  0.00     0.076 H 
ATOM     47  H   H1S d 301      16.871  13.959  30.930  0.00  0.00     0.231 HD
ATOM     48  H   H1S d 301      14.791   9.603  35.185  0.00  0.00     0.090 H 
ATOM     49  H   H1S d 301      16.930   6.820  39.601  0.00  0.00     0.085 H 
ATOM     50  H   H1S d 301      17.262  11.283  35.790  0.00  0.00     0.091 H 
ATOM     51  H   H1S d 301      19.543  10.893  31.476  0.00  0.00     0.231 HD
ATOM     52  H   H1S d 301      18.626   8.808  37.873  0.00  0.00     0.210 HD
ATOM     53  H   H1S d 301      18.718   7.135  35.656  0.00  0.00     0.097 H 
ENDROOT
TORSDOF 16
ENDMDL
MODEL 7
REMARK VINA RESULT:      -6.4      2.721      6.394
REMARK  0 active torsions:
REMARK  status: ('A' for Active; 'I' for Inactive)
REMARK       I    between atoms: C17_1  and  O25_32 
REMARK       I    between atoms: N14_2  and  C8_16 
REMARK       I    between atoms: N14_2  and  S20_34 
REMARK       I    between atoms: C7_3  and  O3_22 
REMARK       I    between atoms: C10_4  and  O15_5 
REMARK       I    between atoms: C6_8  and  C2_27 
REMARK       I    between atoms: C6_8  and  O11_31 
REMARK       I    between atoms: C27_9  and  C19_26 
REMARK       I    between atoms: O29_10  and  S20_34 
REMARK       I    between atoms: O9_11  and  C4_14 
REMARK       I    between atoms: S16_15  and  O11_31 
REMARK       I    between atoms: O30_17  and  S20_34 
REMARK       I    between atoms: O3_22  and  C1_29 
REMARK       I    between atoms: O18_24  and  C12_33 
REMARK       I    between atoms: O18_24  and  S26_35 
REMARK       I    between atoms: O28_30  and  S20_34 
ROOT
ATOM      1  C17 H1S d 301      14.119  10.428  33.719  0.00  0.00     0.086 C 
ATOM      2  N14 H1S d 301      19.182   5.975  37.020  0.00  0.00    -0.210 NA
ATOM      3  C7  H1S d 301      15.985   9.826  35.335  0.00  0.00     0.167 C 
ATOM      4  C10 H1S d 301      18.271   7.563  38.656  0.00  0.00     0.147 C 
ATOM      5  O15 H1S d 301      19.165   8.586  38.176  0.00  0.00    -0.369 OA
ATOM      6  O5  H1S d 301      17.058   8.175  39.168  0.00  0.00    -0.350 OA
ATOM      7  O13 H1S d 301      15.702  11.085  36.036  0.00  0.00    -0.311 OA
ATOM      8  C6  H1S d 301      15.050   9.534  38.729  0.00  0.00     0.067 C 
ATOM      9  C27 H1S d 301      14.058  12.672  36.883  0.00  0.00     0.233 C 
ATOM     10  O29 H1S d 301      20.571   3.975  36.413  0.00  0.00    -0.296 OA
ATOM     11  O9  H1S d 301      16.947   6.471  35.298  0.00  0.00    -0.391 OA
ATOM     12  O34 H1S d 301      14.892  13.230  37.564  0.00  0.00    -0.642 OA
ATOM     13  O32 H1S d 301      18.553   9.936  33.299  0.00  0.00    -0.572 OA
ATOM     14  C4  H1S d 301      17.262   7.343  36.389  0.00  0.00     0.083 C 
ATOM     15  S16 H1S d 301      12.910   8.948  39.668  0.00  0.00     0.251 S 
ATOM     16  C8  H1S d 301      17.950   6.574  37.520  0.00  0.00     0.081 C 
ATOM     17  O30 H1S d 301      18.767   3.548  38.121  0.00  0.00    -0.296 OA
ATOM     18  O23 H1S d 301      12.609  10.541  40.031  0.00  0.00    -0.572 OA
ATOM     19  O35 H1S d 301      12.702  12.974  37.060  0.00  0.00    -0.642 OA
ATOM     20  O31 H1S d 301      18.249  11.750  31.886  0.00  0.00    -0.572 OA
ATOM     21  O22 H1S d 301      12.273   8.125  40.625  0.00  0.00    -0.572 OA
ATOM     22  O3  H1S d 301      15.195   8.739  35.921  0.00  0.00    -0.348 OA
ATOM     23  O33 H1S d 301      17.071   9.614  31.271  0.00  0.00    -0.572 OA
ATOM     24  O18 H1S d 301      16.429  11.132  33.321  0.00  0.00    -0.244 OA
ATOM     25  O21 H1S d 301      12.375   8.645  38.378  0.00  0.00    -0.572 OA
ATOM     26  C19 H1S d 301      14.487  11.695  35.872  0.00  0.00     0.147 C 
ATOM     27  C2  H1S d 301      16.325   8.893  38.133  0.00  0.00     0.091 C 
ATOM     28  C24 H1S d 301      13.702  11.422  34.802  0.00  0.00    -0.034 C 
ATOM     29  C1  H1S d 301      15.950   7.983  36.908  0.00  0.00     0.095 C 
ATOM     30  O28 H1S d 301      18.375   4.012  35.670  0.00  0.00    -0.296 OA
ATOM     31  O11 H1S d 301      14.425   8.674  39.693  0.00  0.00    -0.254 OA
ATOM     32  O25 H1S d 301      13.309   9.250  33.824  0.00  0.00    -0.389 OA
ATOM     33  C12 H1S d 301      15.631  10.037  33.832  0.00  0.00     0.135 C 
ATOM     34  S20 H1S d 301      19.241   4.348  36.747  0.00  0.00     0.156 S 
ATOM     35  S26 H1S d 301      17.611  10.624  32.475  0.00  0.00     0.252 S 
ATOM     36  H   H1S d 301      13.978  10.897  32.768  0.00  0.00     0.093 H 
ATOM     37  H   H1S d 301      19.914   6.188  37.698  0.00  0.00     0.140 HD
ATOM     38  H   H1S d 301      17.016   9.556  35.428  0.00  0.00     0.134 H 
ATOM     39  H   H1S d 301      18.741   7.022  39.451  0.00  0.00     0.131 H 
ATOM     40  H   H1S d 301      18.739   9.076  37.455  0.00  0.00     0.212 HD
ATOM     41  H   H1S d 301      14.357   9.728  37.938  0.00  0.00     0.080 H 
ATOM     42  H   H1S d 301      15.331  10.440  39.223  0.00  0.00     0.080 H 
ATOM     43  H   H1S d 301      21.164   4.203  37.145  0.00  0.00     0.231 HD
ATOM     44  H   H1S d 301      16.513   6.978  34.594  0.00  0.00     0.210 HD
ATOM     45  H   H1S d 301      17.935   8.104  36.050  0.00  0.00     0.089 H 
ATOM     46  H   H1S d 301      17.311   5.796  37.884  0.00  0.00     0.076 H 
ATOM     47  H   H1S d 301      19.361   3.781  38.851  0.00  0.00     0.231 HD
ATOM     48  H   H1S d 301      16.976   9.658  37.765  0.00  0.00     0.090 H 
ATOM     49  H   H1S d 301      12.793  11.900  34.717  0.00  0.00     0.085 H 
ATOM     50  H   H1S d 301      15.292   7.185  37.181  0.00  0.00     0.091 H 
ATOM     51  H   H1S d 301      18.656   4.482  34.870  0.00  0.00     0.231 HD
ATOM     52  H   H1S d 301      13.449   8.837  34.691  0.00  0.00     0.210 HD
ATOM     53  H   H1S d 301      15.822   9.142  33.278  0.00  0.00     0.097 H 
ENDROOT
TORSDOF 16
ENDMDL
MODEL 8
REMARK VINA RESULT:      -6.4      3.132      6.152
REMARK  0 active torsions:
REMARK  status: ('A' for Active; 'I' for Inactive)
REMARK       I    between atoms: C17_1  and  O25_32 
REMARK       I    between atoms: N14_2  and  C8_16 
REMARK       I    between atoms: N14_2  and  S20_34 
REMARK       I    between atoms: C7_3  and  O3_22 
REMARK       I    between atoms: C10_4  and  O15_5 
REMARK       I    between atoms: C6_8  and  C2_27 
REMARK       I    between atoms: C6_8  and  O11_31 
REMARK       I    between atoms: C27_9  and  C19_26 
REMARK       I    between atoms: O29_10  and  S20_34 
REMARK       I    between atoms: O9_11  and  C4_14 
REMARK       I    between atoms: S16_15  and  O11_31 
REMARK       I    between atoms: O30_17  and  S20_34 
REMARK       I    between atoms: O3_22  and  C1_29 
REMARK       I    between atoms: O18_24  and  C12_33 
REMARK       I    between atoms: O18_24  and  S26_35 
REMARK       I    between atoms: O28_30  and  S20_34 
ROOT
ATOM      1  C17 H1S d 301      14.267   8.734  37.361  0.00  0.00     0.086 C 
ATOM      2  N14 H1S d 301      18.641   5.129  32.438  0.00  0.00    -0.210 NA
ATOM      3  C7  H1S d 301      16.375   8.285  36.016  0.00  0.00     0.167 C 
ATOM      4  C10 H1S d 301      20.002   5.994  34.290  0.00  0.00     0.147 C 
ATOM      5  O15 H1S d 301      20.021   7.299  33.680  0.00  0.00    -0.369 OA
ATOM      6  O5  H1S d 301      20.094   6.127  35.734  0.00  0.00    -0.350 OA
ATOM      7  O13 H1S d 301      17.070   9.225  36.906  0.00  0.00    -0.311 OA
ATOM      8  C6  H1S d 301      19.109   6.972  37.828  0.00  0.00     0.067 C 
ATOM      9  C27 H1S d 301      17.431  10.078  39.159  0.00  0.00     0.233 C 
ATOM     10  O29 H1S d 301      18.354   3.765  30.352  0.00  0.00    -0.296 OA
ATOM     11  O9  H1S d 301      16.285   5.407  34.043  0.00  0.00    -0.391 OA
ATOM     12  O34 H1S d 301      18.438  10.662  38.817  0.00  0.00    -0.642 OA
ATOM     13  O32 H1S d 301      15.477   9.539  33.123  0.00  0.00    -0.572 OA
ATOM     14  C4  H1S d 301      17.514   6.051  34.397  0.00  0.00     0.083 C 
ATOM     15  S16 H1S d 301      19.100   5.640  39.835  0.00  0.00     0.251 S 
ATOM     16  C8  H1S d 301      18.715   5.248  33.890  0.00  0.00     0.081 C 
ATOM     17  O30 H1S d 301      19.197   2.492  32.356  0.00  0.00    -0.296 OA
ATOM     18  O23 H1S d 301      19.519   6.967  40.744  0.00  0.00    -0.572 OA
ATOM     19  O35 H1S d 301      17.124   9.963  40.520  0.00  0.00    -0.642 OA
ATOM     20  O31 H1S d 301      14.290  11.487  33.543  0.00  0.00    -0.572 OA
ATOM     21  O22 H1S d 301      19.640   4.479  40.434  0.00  0.00    -0.572 OA
ATOM     22  O3  H1S d 301      16.484   6.922  36.546  0.00  0.00    -0.348 OA
ATOM     23  O33 H1S d 301      13.019   9.321  33.692  0.00  0.00    -0.572 OA
ATOM     24  O18 H1S d 301      14.852  10.094  35.414  0.00  0.00    -0.244 OA
ATOM     25  O21 H1S d 301      17.677   5.517  39.802  0.00  0.00    -0.572 OA
ATOM     26  C19 H1S d 301      16.541   9.514  38.135  0.00  0.00     0.147 C 
ATOM     27  C2  H1S d 301      18.958   6.848  36.294  0.00  0.00     0.091 C 
ATOM     28  C24 H1S d 301      15.231   9.300  38.403  0.00  0.00    -0.034 C 
ATOM     29  C1  H1S d 301      17.580   6.183  35.939  0.00  0.00     0.095 C 
ATOM     30  O28 H1S d 301      16.855   3.394  32.081  0.00  0.00    -0.296 OA
ATOM     31  O11 H1S d 301      19.655   5.777  38.406  0.00  0.00    -0.254 OA
ATOM     32  O25 H1S d 301      13.915   7.392  37.727  0.00  0.00    -0.389 OA
ATOM     33  C12 H1S d 301      14.887   8.740  35.925  0.00  0.00     0.135 C 
ATOM     34  S20 H1S d 301      18.211   3.686  31.764  0.00  0.00     0.156 S 
ATOM     35  S26 H1S d 301      14.453  10.128  33.927  0.00  0.00     0.252 S 
ATOM     36  H   H1S d 301      13.398   9.357  37.340  0.00  0.00     0.093 H 
ATOM     37  H   H1S d 301      19.565   5.364  32.073  0.00  0.00     0.140 HD
ATOM     38  H   H1S d 301      16.813   8.282  35.040  0.00  0.00     0.134 H 
ATOM     39  H   H1S d 301      20.841   5.425  33.947  0.00  0.00     0.131 H 
ATOM     40  H   H1S d 301      19.260   7.813  33.993  0.00  0.00     0.212 HD
ATOM     41  H   H1S d 301      18.147   7.156  38.257  0.00  0.00     0.080 H 
ATOM     42  H   H1S d 301      19.781   7.779  38.033  0.00  0.00     0.080 H 
ATOM     43  H   H1S d 301      19.277   3.964  30.131  0.00  0.00     0.231 HD
ATOM     44  H   H1S d 301      15.538   5.931  34.373  0.00  0.00     0.210 HD
ATOM     45  H   H1S d 301      17.548   7.019  33.941  0.00  0.00     0.089 H 
ATOM     46  H   H1S d 301      18.714   4.267  34.318  0.00  0.00     0.076 H 
ATOM     47  H   H1S d 301      20.119   2.696  32.137  0.00  0.00     0.231 HD
ATOM     48  H   H1S d 301      18.959   7.821  35.851  0.00  0.00     0.090 H 
ATOM     49  H   H1S d 301      14.871   9.529  39.343  0.00  0.00     0.085 H 
ATOM     50  H   H1S d 301      17.485   5.199  36.348  0.00  0.00     0.091 H 
ATOM     51  H   H1S d 301      16.283   4.096  31.732  0.00  0.00     0.231 HD
ATOM     52  H   H1S d 301      14.713   6.841  37.742  0.00  0.00     0.210 HD
ATOM     53  H   H1S d 301      14.339   8.082  35.283  0.00  0.00     0.097 H 
ENDROOT
TORSDOF 16
ENDMDL
MODEL 9
REMARK VINA RESULT:      -6.3      2.212      6.242
REMARK  0 active torsions:
REMARK  status: ('A' for Active; 'I' for Inactive)
REMARK       I    between atoms: C17_1  and  O25_32 
REMARK       I    between atoms: N14_2  and  C8_16 
REMARK       I    between atoms: N14_2  and  S20_34 
REMARK       I    between atoms: C7_3  and  O3_22 
REMARK       I    between atoms: C10_4  and  O15_5 
REMARK       I    between atoms: C6_8  and  C2_27 
REMARK       I    between atoms: C6_8  and  O11_31 
REMARK       I    between atoms: C27_9  and  C19_26 
REMARK       I    between atoms: O29_10  and  S20_34 
REMARK       I    between atoms: O9_11  and  C4_14 
REMARK       I    between atoms: S16_15  and  O11_31 
REMARK       I    between atoms: O30_17  and  S20_34 
REMARK       I    between atoms: O3_22  and  C1_29 
REMARK       I    between atoms: O18_24  and  C12_33 
REMARK       I    between atoms: O18_24  and  S26_35 
REMARK       I    between atoms: O28_30  and  S20_34 
ROOT
ATOM      1  C17 H1S d 301      14.319  12.556  34.995  0.00  0.00     0.086 C 
ATOM      2  N14 H1S d 301      18.098   6.100  34.366  0.00  0.00    -0.210 NA
ATOM      3  C7  H1S d 301      16.026  10.788  35.639  0.00  0.00     0.167 C 
ATOM      4  C10 H1S d 301      17.761   6.645  36.736  0.00  0.00     0.147 C 
ATOM      5  O15 H1S d 301      18.879   7.554  36.697  0.00  0.00    -0.369 OA
ATOM      6  O5  H1S d 301      16.799   7.097  37.725  0.00  0.00    -0.350 OA
ATOM      7  O13 H1S d 301      16.146  11.464  36.938  0.00  0.00    -0.311 OA
ATOM      8  C6  H1S d 301      15.233   8.843  38.480  0.00  0.00     0.067 C 
ATOM      9  C27 H1S d 301      15.064  12.599  38.802  0.00  0.00     0.233 C 
ATOM     10  O29 H1S d 301      18.833   4.550  32.534  0.00  0.00    -0.296 OA
ATOM     11  O9  H1S d 301      16.002   7.918  33.653  0.00  0.00    -0.391 OA
ATOM     12  O34 H1S d 301      16.057  12.496  39.491  0.00  0.00    -0.642 OA
ATOM     13  O32 H1S d 301      18.405  11.492  33.497  0.00  0.00    -0.572 OA
ATOM     14  C4  H1S d 301      16.609   7.943  34.950  0.00  0.00     0.083 C 
ATOM     15  S16 H1S d 301      13.069   8.283  39.380  0.00  0.00     0.251 S 
ATOM     16  C8  H1S d 301      17.113   6.551  35.342  0.00  0.00     0.081 C 
ATOM     17  O30 H1S d 301      17.078   3.619  34.085  0.00  0.00    -0.296 OA
ATOM     18  O23 H1S d 301      13.248   9.420  40.578  0.00  0.00    -0.572 OA
ATOM     19  O35 H1S d 301      13.859  13.019  39.380  0.00  0.00    -0.642 OA
ATOM     20  O31 H1S d 301      18.547  13.802  33.343  0.00  0.00    -0.572 OA
ATOM     21  O22 H1S d 301      12.280   7.216  39.867  0.00  0.00    -0.572 OA
ATOM     22  O3  H1S d 301      14.995   9.747  35.712  0.00  0.00    -0.348 OA
ATOM     23  O33 H1S d 301      16.784  12.672  31.950  0.00  0.00    -0.572 OA
ATOM     24  O18 H1S d 301      16.708  12.873  34.572  0.00  0.00    -0.244 OA
ATOM     25  O21 H1S d 301      12.401   8.870  38.262  0.00  0.00    -0.572 OA
ATOM     26  C19 H1S d 301      15.145  12.293  37.367  0.00  0.00     0.147 C 
ATOM     27  C2  H1S d 301      16.241   8.403  37.394  0.00  0.00     0.091 C 
ATOM     28  C24 H1S d 301      14.258  12.832  36.497  0.00  0.00    -0.034 C 
ATOM     29  C1  H1S d 301      15.560   8.434  35.979  0.00  0.00     0.095 C 
ATOM     30  O28 H1S d 301      16.699   5.443  32.381  0.00  0.00    -0.296 OA
ATOM     31  O11 H1S d 301      14.445   7.740  38.951  0.00  0.00    -0.254 OA
ATOM     32  O25 H1S d 301      13.217  11.716  34.627  0.00  0.00    -0.389 OA
ATOM     33  C12 H1S d 301      15.663  11.871  34.579  0.00  0.00     0.135 C 
ATOM     34  S20 H1S d 301      17.682   4.934  33.274  0.00  0.00     0.156 S 
ATOM     35  S26 H1S d 301      17.651  12.698  33.367  0.00  0.00     0.252 S 
ATOM     36  H   H1S d 301      14.263  13.494  34.484  0.00  0.00     0.093 H 
ATOM     37  H   H1S d 301      18.896   5.742  34.892  0.00  0.00     0.140 HD
ATOM     38  H   H1S d 301      16.943  10.309  35.367  0.00  0.00     0.134 H 
ATOM     39  H   H1S d 301      18.102   5.669  37.015  0.00  0.00     0.131 H 
ATOM     40  H   H1S d 301      18.569   8.437  36.444  0.00  0.00     0.212 HD
ATOM     41  H   H1S d 301      14.580   9.583  38.068  0.00  0.00     0.080 H 
ATOM     42  H   H1S d 301      15.784   9.237  39.308  0.00  0.00     0.080 H 
ATOM     43  H   H1S d 301      19.505   4.203  33.139  0.00  0.00     0.231 HD
ATOM     44  H   H1S d 301      15.690   8.808  33.425  0.00  0.00     0.210 HD
ATOM     45  H   H1S d 301      17.449   8.606  34.934  0.00  0.00     0.089 H 
ATOM     46  H   H1S d 301      16.302   5.854  35.363  0.00  0.00     0.076 H 
ATOM     47  H   H1S d 301      17.753   3.277  34.692  0.00  0.00     0.231 HD
ATOM     48  H   H1S d 301      17.060   9.090  37.361  0.00  0.00     0.090 H 
ATOM     49  H   H1S d 301      13.516  13.450  36.861  0.00  0.00     0.085 H 
ATOM     50  H   H1S d 301      14.720   7.774  35.918  0.00  0.00     0.091 H 
ATOM     51  H   H1S d 301      17.057   6.212  31.910  0.00  0.00     0.231 HD
ATOM     52  H   H1S d 301      13.282  10.870  35.099  0.00  0.00     0.210 HD
ATOM     53  H   H1S d 301      15.565  11.423  33.612  0.00  0.00     0.097 H 
ENDROOT
TORSDOF 16
ENDMDL
MODEL 10
REMARK VINA RESULT:      -6.2      3.117      6.778
REMARK  0 active torsions:
REMARK  status: ('A' for Active; 'I' for Inactive)
REMARK       I    between atoms: C17_1  and  O25_32 
REMARK       I    between atoms: N14_2  and  C8_16 
REMARK       I    between atoms: N14_2  and  S20_34 
REMARK       I    between atoms: C7_3  and  O3_22 
REMARK       I    between atoms: C10_4  and  O15_5 
REMARK       I    between atoms: C6_8  and  C2_27 
REMARK       I    between atoms: C6_8  and  O11_31 
REMARK       I    between atoms: C27_9  and  C19_26 
REMARK       I    between atoms: O29_10  and  S20_34 
REMARK       I    between atoms: O9_11  and  C4_14 
REMARK       I    between atoms: S16_15  and  O11_31 
REMARK       I    between atoms: O30_17  and  S20_34 
REMARK       I    between atoms: O3_22  and  C1_29 
REMARK       I    between atoms: O18_24  and  C12_33 
REMARK       I    between atoms: O18_24  and  S26_35 
REMARK       I    between atoms: O28_30  and  S20_34 
ROOT
ATOM      1  C17 H1S d 301      18.673  11.616  30.857  0.00  0.00     0.086 C 
ATOM      2  N14 H1S d 301      18.056   4.462  33.050  0.00  0.00    -0.210 NA
ATOM      3  C7  H1S d 301      18.601   9.688  32.510  0.00  0.00     0.167 C 
ATOM      4  C10 H1S d 301      17.038   5.942  34.724  0.00  0.00     0.147 C 
ATOM      5  O15 H1S d 301      18.337   6.226  35.279  0.00  0.00    -0.369 OA
ATOM      6  O5  H1S d 301      16.161   7.083  34.924  0.00  0.00    -0.350 OA
ATOM      7  O13 H1S d 301      18.464  10.688  33.578  0.00  0.00    -0.311 OA
ATOM      8  C6  H1S d 301      15.680   9.459  34.485  0.00  0.00     0.067 C 
ATOM      9  C27 H1S d 301      17.479  12.773  34.362  0.00  0.00     0.233 C 
ATOM     10  O29 H1S d 301      18.555   2.186  32.119  0.00  0.00    -0.296 OA
ATOM     11  O9  H1S d 301      17.914   6.565  31.110  0.00  0.00    -0.391 OA
ATOM     12  O34 H1S d 301      17.803  12.539  35.508  0.00  0.00    -0.642 OA
ATOM     13  O32 H1S d 301      21.631   8.498  32.123  0.00  0.00    -0.572 OA
ATOM     14  C4  H1S d 301      17.760   6.824  32.510  0.00  0.00     0.083 C 
ATOM     15  S16 H1S d 301      13.448  10.214  33.985  0.00  0.00     0.251 S 
ATOM     16  C8  H1S d 301      17.169   5.607  33.227  0.00  0.00     0.081 C 
ATOM     17  O30 H1S d 301      16.108   2.710  32.413  0.00  0.00    -0.296 OA
ATOM     18  O23 H1S d 301      13.651  11.536  34.971  0.00  0.00    -0.572 OA
ATOM     19  O35 H1S d 301      16.603  13.832  34.092  0.00  0.00    -0.642 OA
ATOM     20  O31 H1S d 301      23.070  10.304  31.908  0.00  0.00    -0.572 OA
ATOM     21  O22 H1S d 301      12.086   9.832  33.996  0.00  0.00    -0.572 OA
ATOM     22  O3  H1S d 301      17.275   9.270  32.044  0.00  0.00    -0.348 OA
ATOM     23  O33 H1S d 301      21.852   9.563  29.836  0.00  0.00    -0.572 OA
ATOM     24  O18 H1S d 301      20.712  10.744  31.891  0.00  0.00    -0.244 OA
ATOM     25  O21 H1S d 301      13.814  10.558  32.647  0.00  0.00    -0.572 OA
ATOM     26  C19 H1S d 301      18.023  11.948  33.275  0.00  0.00     0.147 C 
ATOM     27  C2  H1S d 301      16.640   8.273  34.233  0.00  0.00     0.091 C 
ATOM     28  C24 H1S d 301      18.096  12.433  32.012  0.00  0.00    -0.034 C 
ATOM     29  C1  H1S d 301      16.826   8.047  32.689  0.00  0.00     0.095 C 
ATOM     30  O28 H1S d 301      17.622   3.745  30.678  0.00  0.00    -0.296 OA
ATOM     31  O11 H1S d 301      14.308   9.039  34.486  0.00  0.00    -0.254 OA
ATOM     32  O25 H1S d 301      17.608  11.230  29.978  0.00  0.00    -0.389 OA
ATOM     33  C12 H1S d 301      19.426  10.340  31.361  0.00  0.00     0.135 C 
ATOM     34  S20 H1S d 301      17.623   3.254  32.013  0.00  0.00     0.156 S 
ATOM     35  S26 H1S d 301      21.826   9.761  31.485  0.00  0.00     0.252 S 
ATOM     36  H   H1S d 301      19.383  12.228  30.341  0.00  0.00     0.093 H 
ATOM     37  H   H1S d 301      18.177   4.036  33.969  0.00  0.00     0.140 HD
ATOM     38  H   H1S d 301      19.103   8.812  32.864  0.00  0.00     0.134 H 
ATOM     39  H   H1S d 301      16.613   5.095  35.223  0.00  0.00     0.131 H 
ATOM     40  H   H1S d 301      18.721   6.993  34.826  0.00  0.00     0.212 HD
ATOM     41  H   H1S d 301      15.819  10.187  33.714  0.00  0.00     0.080 H 
ATOM     42  H   H1S d 301      15.904   9.871  35.446  0.00  0.00     0.080 H 
ATOM     43  H   H1S d 301      18.558   1.849  33.028  0.00  0.00     0.231 HD
ATOM     44  H   H1S d 301      18.289   7.348  30.676  0.00  0.00     0.210 HD
ATOM     45  H   H1S d 301      18.720   7.026  32.939  0.00  0.00     0.089 H 
ATOM     46  H   H1S d 301      16.208   5.366  32.821  0.00  0.00     0.076 H 
ATOM     47  H   H1S d 301      16.114   2.377  33.323  0.00  0.00     0.231 HD
ATOM     48  H   H1S d 301      17.605   8.498  34.634  0.00  0.00     0.090 H 
ATOM     49  H   H1S d 301      17.750  13.387  31.825  0.00  0.00     0.085 H 
ATOM     50  H   H1S d 301      15.904   7.819  32.197  0.00  0.00     0.091 H 
ATOM     51  H   H1S d 301      18.510   4.062  30.450  0.00  0.00     0.231 HD
ATOM     52  H   H1S d 301      16.974  10.676  30.460  0.00  0.00     0.210 HD
ATOM     53  H   H1S d 301      19.553   9.646  30.557  0.00  0.00     0.097 H 
ENDROOT
TORSDOF 16
ENDMDL
MODEL 11
REMARK VINA RESULT:      -6.2      2.407      6.557
REMARK  0 active torsions:
REMARK  status: ('A' for Active; 'I' for Inactive)
REMARK       I    between atoms: C17_1  and  O25_32 
REMARK       I    between atoms: N14_2  and  C8_16 
REMARK       I    between atoms: N14_2  and  S20_34 
REMARK       I    between atoms: C7_3  and  O3_22 
REMARK       I    between atoms: C10_4  and  O15_5 
REMARK       I    between atoms: C6_8  and  C2_27 
REMARK       I    between atoms: C6_8  and  O11_31 
REMARK       I    between atoms: C27_9  and  C19_26 
REMARK       I    between atoms: O29_10  and  S20_34 
REMARK       I    between atoms: O9_11  and  C4_14 
REMARK       I    between atoms: S16_15  and  O11_31 
REMARK       I    between atoms: O30_17  and  S20_34 
REMARK       I    between atoms: O3_22  and  C1_29 
REMARK       I    between atoms: O18_24  and  C12_33 
REMARK       I    between atoms: O18_24  and  S26_35 
REMARK       I    between atoms: O28_30  and  S20_34 
ROOT
ATOM      1  C17 H1S d 301      20.559  10.113  32.156  0.00  0.00     0.086 C 
ATOM      2  N14 H1S d 301      14.074  11.392  35.716  0.00  0.00    -0.210 NA
ATOM      3  C7  H1S d 301      18.080   9.842  32.643  0.00  0.00     0.167 C 
ATOM      4  C10 H1S d 301      14.201   9.039  35.027  0.00  0.00     0.147 C 
ATOM      5  O15 H1S d 301      13.789   9.396  33.693  0.00  0.00    -0.369 OA
ATOM      6  O5  H1S d 301      15.049   7.861  34.977  0.00  0.00    -0.350 OA
ATOM      7  O13 H1S d 301      18.105   8.646  31.791  0.00  0.00    -0.311 OA
ATOM      8  C6  H1S d 301      17.137   6.813  34.196  0.00  0.00     0.067 C 
ATOM      9  C27 H1S d 301      19.258   6.620  31.082  0.00  0.00     0.233 C 
ATOM     10  O29 H1S d 301      12.974  13.282  36.947  0.00  0.00    -0.296 OA
ATOM     11  O9  H1S d 301      16.911  11.635  35.400  0.00  0.00    -0.391 OA
ATOM     12  O34 H1S d 301      18.260   6.198  30.535  0.00  0.00    -0.642 OA
ATOM     13  O32 H1S d 301      16.919  12.540  31.186  0.00  0.00    -0.572 OA
ATOM     14  C4  H1S d 301      16.185  10.533  34.843  0.00  0.00     0.083 C 
ATOM     15  S16 H1S d 301      18.433   5.377  35.633  0.00  0.00     0.251 S 
ATOM     16  C8  H1S d 301      14.942  10.221  35.680  0.00  0.00     0.081 C 
ATOM     17  O30 H1S d 301      13.611  11.303  38.371  0.00  0.00    -0.296 OA
ATOM     18  O23 H1S d 301      18.680   4.312  34.382  0.00  0.00    -0.572 OA
ATOM     19  O35 H1S d 301      20.363   5.777  31.254  0.00  0.00    -0.642 OA
ATOM     20  O31 H1S d 301      18.089  12.824  29.204  0.00  0.00    -0.572 OA
ATOM     21  O22 H1S d 301      18.406   4.662  36.853  0.00  0.00    -0.572 OA
ATOM     22  O3  H1S d 301      18.343   9.469  34.037  0.00  0.00    -0.348 OA
ATOM     23  O33 H1S d 301      19.177  13.681  31.303  0.00  0.00    -0.572 OA
ATOM     24  O18 H1S d 301      18.857  11.135  30.724  0.00  0.00    -0.244 OA
ATOM     25  O21 H1S d 301      19.509   6.315  35.678  0.00  0.00    -0.572 OA
ATOM     26  C19 H1S d 301      19.295   8.015  31.541  0.00  0.00     0.147 C 
ATOM     27  C2  H1S d 301      16.276   8.097  34.229  0.00  0.00     0.091 C 
ATOM     28  C24 H1S d 301      20.477   8.657  31.699  0.00  0.00    -0.034 C 
ATOM     29  C1  H1S d 301      17.116   9.296  34.799  0.00  0.00     0.095 C 
ATOM     30  O28 H1S d 301      15.234  12.933  37.331  0.00  0.00    -0.296 OA
ATOM     31  O11 H1S d 301      17.093   6.112  35.448  0.00  0.00    -0.254 OA
ATOM     32  O25 H1S d 301      21.072  10.158  33.494  0.00  0.00    -0.389 OA
ATOM     33  C12 H1S d 301      19.165  10.823  32.105  0.00  0.00     0.135 C 
ATOM     34  S20 H1S d 301      13.985  12.294  37.095  0.00  0.00     0.156 S 
ATOM     35  S26 H1S d 301      18.217  12.529  30.589  0.00  0.00     0.252 S 
ATOM     36  H   H1S d 301      21.211  10.634  31.487  0.00  0.00     0.093 H 
ATOM     37  H   H1S d 301      13.128  11.068  35.512  0.00  0.00     0.140 HD
ATOM     38  H   H1S d 301      17.121  10.315  32.616  0.00  0.00     0.134 H 
ATOM     39  H   H1S d 301      13.339   8.813  35.620  0.00  0.00     0.131 H 
ATOM     40  H   H1S d 301      14.571   9.601  33.157  0.00  0.00     0.212 HD
ATOM     41  H   H1S d 301      18.151   7.080  33.985  0.00  0.00     0.080 H 
ATOM     42  H   H1S d 301      16.745   6.167  33.439  0.00  0.00     0.080 H 
ATOM     43  H   H1S d 301      12.121  12.850  36.786  0.00  0.00     0.231 HD
ATOM     44  H   H1S d 301      17.693  11.815  34.855  0.00  0.00     0.210 HD
ATOM     45  H   H1S d 301      15.862  10.788  33.854  0.00  0.00     0.089 H 
ATOM     46  H   H1S d 301      15.222   9.967  36.682  0.00  0.00     0.076 H 
ATOM     47  H   H1S d 301      12.760  10.870  38.205  0.00  0.00     0.231 HD
ATOM     48  H   H1S d 301      15.987   8.363  33.234  0.00  0.00     0.090 H 
ATOM     49  H   H1S d 301      21.351   8.146  31.503  0.00  0.00     0.085 H 
ATOM     50  H   H1S d 301      17.456   9.116  35.797  0.00  0.00     0.091 H 
ATOM     51  H   H1S d 301      15.448  13.511  36.582  0.00  0.00     0.231 HD
ATOM     52  H   H1S d 301      20.470   9.681  34.087  0.00  0.00     0.210 HD
ATOM     53  H   H1S d 301      19.183  11.714  32.697  0.00  0.00     0.097 H 
ENDROOT
TORSDOF 16
ENDMDL
MODEL 12
REMARK VINA RESULT:      -6.2      2.453      3.311
REMARK  0 active torsions:
REMARK  status: ('A' for Active; 'I' for Inactive)
REMARK       I    between atoms: C17_1  and  O25_32 
REMARK       I    between atoms: N14_2  and  C8_16 
REMARK       I    between atoms: N14_2  and  S20_34 
REMARK       I    between atoms: C7_3  and  O3_22 
REMARK       I    between atoms: C10_4  and  O15_5 
REMARK       I    between atoms: C6_8  and  C2_27 
REMARK       I    between atoms: C6_8  and  O11_31 
REMARK       I    between atoms: C27_9  and  C19_26 
REMARK       I    between atoms: O29_10  and  S20_34 
REMARK       I    between atoms: O9_11  and  C4_14 
REMARK       I    between atoms: S16_15  and  O11_31 
REMARK       I    between atoms: O30_17  and  S20_34 
REMARK       I    between atoms: O3_22  and  C1_29 
REMARK       I    between atoms: O18_24  and  C12_33 
REMARK       I    between atoms: O18_24  and  S26_35 
REMARK       I    between atoms: O28_30  and  S20_34 
ROOT
ATOM      1  C17 H1S d 301      17.023   8.889  39.764  0.00  0.00     0.086 C 
ATOM      2  N14 H1S d 301      16.697  10.366  32.411  0.00  0.00    -0.210 NA
ATOM      3  C7  H1S d 301      16.052   8.814  37.417  0.00  0.00     0.167 C 
ATOM      4  C10 H1S d 301      14.431  10.314  33.355  0.00  0.00     0.147 C 
ATOM      5  O15 H1S d 301      14.424   8.875  33.286  0.00  0.00    -0.369 OA
ATOM      6  O5  H1S d 301      13.594  10.754  34.457  0.00  0.00    -0.350 OA
ATOM      7  O13 H1S d 301      14.809   8.307  38.013  0.00  0.00    -0.311 OA
ATOM      8  C6  H1S d 301      13.162  10.775  36.883  0.00  0.00     0.067 C 
ATOM      9  C27 H1S d 301      13.175   8.403  39.817  0.00  0.00     0.233 C 
ATOM     10  O29 H1S d 301      18.303  10.806  30.533  0.00  0.00    -0.296 OA
ATOM     11  O9  H1S d 301      17.783  10.696  35.041  0.00  0.00    -0.391 OA
ATOM     12  O34 H1S d 301      12.376   7.750  39.180  0.00  0.00    -0.642 OA
ATOM     13  O32 H1S d 301      17.974   6.518  36.083  0.00  0.00    -0.572 OA
ATOM     14  C4  H1S d 301      16.434  10.260  34.835  0.00  0.00     0.083 C 
ATOM     15  S16 H1S d 301      12.460  12.782  38.014  0.00  0.00     0.251 S 
ATOM     16  C8  H1S d 301      15.875  10.823  33.525  0.00  0.00     0.081 C 
ATOM     17  O30 H1S d 301      16.880  12.773  31.208  0.00  0.00    -0.296 OA
ATOM     18  O23 H1S d 301      11.348  11.921  38.899  0.00  0.00    -0.572 OA
ATOM     19  O35 H1S d 301      12.768   9.034  41.000  0.00  0.00    -0.642 OA
ATOM     20  O31 H1S d 301      18.304   4.867  37.679  0.00  0.00    -0.572 OA
ATOM     21  O22 H1S d 301      11.974  14.094  37.810  0.00  0.00    -0.572 OA
ATOM     22  O3  H1S d 301      16.005  10.278  37.335  0.00  0.00    -0.348 OA
ATOM     23  O33 H1S d 301      19.781   6.899  37.816  0.00  0.00    -0.572 OA
ATOM     24  O18 H1S d 301      17.209   6.888  38.368  0.00  0.00    -0.244 OA
ATOM     25  O21 H1S d 301      13.688  12.859  38.739  0.00  0.00    -0.572 OA
ATOM     26  C19 H1S d 301      14.562   8.510  39.345  0.00  0.00     0.147 C 
ATOM     27  C2  H1S d 301      14.091  10.290  35.746  0.00  0.00     0.091 C 
ATOM     28  C24 H1S d 301      15.565   8.788  40.211  0.00  0.00    -0.034 C 
ATOM     29  C1  H1S d 301      15.570  10.740  36.027  0.00  0.00     0.095 C 
ATOM     30  O28 H1S d 301      18.760  11.795  32.579  0.00  0.00    -0.296 OA
ATOM     31  O11 H1S d 301      12.689  12.109  36.648  0.00  0.00    -0.254 OA
ATOM     32  O25 H1S d 301      17.438  10.260  39.818  0.00  0.00    -0.389 OA
ATOM     33  C12 H1S d 301      17.232   8.335  38.315  0.00  0.00     0.135 C 
ATOM     34  S20 H1S d 301      17.726  11.426  31.675  0.00  0.00     0.156 S 
ATOM     35  S26 H1S d 301      18.285   6.271  37.455  0.00  0.00     0.252 S 
ATOM     36  H   H1S d 301      17.614   8.292  40.426  0.00  0.00     0.093 H 
ATOM     37  H   H1S d 301      16.059  10.024  31.691  0.00  0.00     0.140 HD
ATOM     38  H   H1S d 301      16.182   8.444  36.422  0.00  0.00     0.134 H 
ATOM     39  H   H1S d 301      14.036  10.718  32.446  0.00  0.00     0.131 H 
ATOM     40  H   H1S d 301      14.782   8.510  34.110  0.00  0.00     0.212 HD
ATOM     41  H   H1S d 301      13.703  10.756  37.805  0.00  0.00     0.080 H 
ATOM     42  H   H1S d 301      12.315  10.122  36.923  0.00  0.00     0.080 H 
ATOM     43  H   H1S d 301      17.601  10.553  29.914  0.00  0.00     0.231 HD
ATOM     44  H   H1S d 301      18.117  10.328  35.874  0.00  0.00     0.210 HD
ATOM     45  H   H1S d 301      16.414   9.192  34.770  0.00  0.00     0.089 H 
ATOM     46  H   H1S d 301      15.884  11.893  33.546  0.00  0.00     0.076 H 
ATOM     47  H   H1S d 301      16.176  12.515  30.592  0.00  0.00     0.231 HD
ATOM     48  H   H1S d 301      14.092   9.220  35.711  0.00  0.00     0.090 H 
ATOM     49  H   H1S d 301      15.337   8.938  41.206  0.00  0.00     0.085 H 
ATOM     50  H   H1S d 301      15.666  11.804  36.085  0.00  0.00     0.091 H 
ATOM     51  H   H1S d 301      19.252  11.004  32.849  0.00  0.00     0.231 HD
ATOM     52  H   H1S d 301      16.893  10.788  39.213  0.00  0.00     0.210 HD
ATOM     53  H   H1S d 301      18.163   8.682  37.918  0.00  0.00     0.097 H 
ENDROOT
TORSDOF 16
ENDMDL
MODEL 13
REMARK VINA RESULT:      -6.2      1.986      5.648
REMARK  0 active torsions:
REMARK  status: ('A' for Active; 'I' for Inactive)
REMARK       I    between atoms: C17_1  and  O25_32 
REMARK       I    between atoms: N14_2  and  C8_16 
REMARK       I    between atoms: N14_2  and  S20_34 
REMARK       I    between atoms: C7_3  and  O3_22 
REMARK       I    between atoms: C10_4  and  O15_5 
REMARK       I    between atoms: C6_8  and  C2_27 
REMARK       I    between atoms: C6_8  and  O11_31 
REMARK       I    between atoms: C27_9  and  C19_26 
REMARK       I    between atoms: O29_10  and  S20_34 
REMARK       I    between atoms: O9_11  and  C4_14 
REMARK       I    between atoms: S16_15  and  O11_31 
REMARK       I    between atoms: O30_17  and  S20_34 
REMARK       I    between atoms: O3_22  and  C1_29 
REMARK       I    between atoms: O18_24  and  C12_33 
REMARK       I    between atoms: O18_24  and  S26_35 
REMARK       I    between atoms: O28_30  and  S20_34 
ROOT
ATOM      1  C17 H1S d 301      13.635  10.135  35.687  0.00  0.00     0.086 C 
ATOM      2  N14 H1S d 301      19.406  12.423  31.466  0.00  0.00    -0.210 NA
ATOM      3  C7  H1S d 301      16.056  10.706  35.170  0.00  0.00     0.167 C 
ATOM      4  C10 H1S d 301      20.146  10.667  33.014  0.00  0.00     0.147 C 
ATOM      5  O15 H1S d 301      20.258  11.636  34.075  0.00  0.00    -0.369 OA
ATOM      6  O5  H1S d 301      19.827   9.365  33.572  0.00  0.00    -0.350 OA
ATOM      7  O13 H1S d 301      16.421  10.019  36.416  0.00  0.00    -0.311 OA
ATOM      8  C6  H1S d 301      18.252   7.957  34.840  0.00  0.00     0.067 C 
ATOM      9  C27 H1S d 301      16.092   8.138  37.929  0.00  0.00     0.233 C 
ATOM     10  O29 H1S d 301      19.789  13.972  29.528  0.00  0.00    -0.296 OA
ATOM     11  O9  H1S d 301      16.685  11.621  31.861  0.00  0.00    -0.391 OA
ATOM     12  O34 H1S d 301      17.119   8.388  38.524  0.00  0.00    -0.642 OA
ATOM     13  O32 H1S d 301      15.925  13.974  35.391  0.00  0.00    -0.572 OA
ATOM     14  C4  H1S d 301      17.728  11.200  32.747  0.00  0.00     0.083 C 
ATOM     15  S16 H1S d 301      17.763   5.699  34.161  0.00  0.00     0.251 S 
ATOM     16  C8  H1S d 301      19.067  11.113  32.010  0.00  0.00     0.081 C 
ATOM     17  O30 H1S d 301      20.115  11.524  29.024  0.00  0.00    -0.296 OA
ATOM     18  O23 H1S d 301      17.836   5.185  35.739  0.00  0.00    -0.572 OA
ATOM     19  O35 H1S d 301      15.427   6.930  38.171  0.00  0.00    -0.642 OA
ATOM     20  O31 H1S d 301      14.557  14.500  37.188  0.00  0.00    -0.572 OA
ATOM     21  O22 H1S d 301      18.182   4.648  33.312  0.00  0.00    -0.572 OA
ATOM     22  O3  H1S d 301      16.093   9.761  34.049  0.00  0.00    -0.348 OA
ATOM     23  O33 H1S d 301      13.423  13.988  35.002  0.00  0.00    -0.572 OA
ATOM     24  O18 H1S d 301      14.658  12.207  36.492  0.00  0.00    -0.244 OA
ATOM     25  O21 H1S d 301      16.415   6.039  33.833  0.00  0.00    -0.572 OA
ATOM     26  C19 H1S d 301      15.556   9.115  36.972  0.00  0.00     0.147 C 
ATOM     27  C2  H1S d 301      18.540   9.360  34.256  0.00  0.00     0.091 C 
ATOM     28  C24 H1S d 301      14.237   9.124  36.662  0.00  0.00    -0.034 C 
ATOM     29  C1  H1S d 301      17.355   9.813  33.329  0.00  0.00     0.095 C 
ATOM     30  O28 H1S d 301      17.894  12.638  29.467  0.00  0.00    -0.296 OA
ATOM     31  O11 H1S d 301      18.685   6.915  33.954  0.00  0.00    -0.254 OA
ATOM     32  O25 H1S d 301      13.274   9.460  34.474  0.00  0.00    -0.389 OA
ATOM     33  C12 H1S d 301      14.629  11.300  35.363  0.00  0.00     0.135 C 
ATOM     34  S20 H1S d 301      19.265  12.689  29.843  0.00  0.00     0.156 S 
ATOM     35  S26 H1S d 301      14.686  13.677  36.036  0.00  0.00     0.252 S 
ATOM     36  H   H1S d 301      12.771  10.565  36.148  0.00  0.00     0.093 H 
ATOM     37  H   H1S d 301      20.380  12.605  31.712  0.00  0.00     0.140 HD
ATOM     38  H   H1S d 301      16.747  11.492  34.946  0.00  0.00     0.134 H 
ATOM     39  H   H1S d 301      21.080  10.595  32.495  0.00  0.00     0.131 H 
ATOM     40  H   H1S d 301      19.412  11.700  34.544  0.00  0.00     0.212 HD
ATOM     41  H   H1S d 301      17.199   7.860  35.003  0.00  0.00     0.080 H 
ATOM     42  H   H1S d 301      18.792   7.861  35.759  0.00  0.00     0.080 H 
ATOM     43  H   H1S d 301      20.724  14.010  29.783  0.00  0.00     0.231 HD
ATOM     44  H   H1S d 301      15.847  11.669  32.347  0.00  0.00     0.210 HD
ATOM     45  H   H1S d 301      17.831  11.916  33.536  0.00  0.00     0.089 H 
ATOM     46  H   H1S d 301      19.004  10.410  31.205  0.00  0.00     0.076 H 
ATOM     47  H   H1S d 301      21.049  11.563  29.284  0.00  0.00     0.231 HD
ATOM     48  H   H1S d 301      18.607  10.075  35.049  0.00  0.00     0.090 H 
ATOM     49  H   H1S d 301      13.618   8.424  37.100  0.00  0.00     0.085 H 
ATOM     50  H   H1S d 301      17.208   9.149  32.503  0.00  0.00     0.091 H 
ATOM     51  H   H1S d 301      17.401  13.321  29.949  0.00  0.00     0.231 HD
ATOM     52  H   H1S d 301      14.068   9.076  34.069  0.00  0.00     0.210 HD
ATOM     53  H   H1S d 301      14.319  11.813  34.477  0.00  0.00     0.097 H 
ENDROOT
TORSDOF 16
ENDMDL
MODEL 14
REMARK VINA RESULT:      -6.1      2.542      6.620
REMARK  0 active torsions:
REMARK  status: ('A' for Active; 'I' for Inactive)
REMARK       I    between atoms: C17_1  and  O25_32 
REMARK       I    between atoms: N14_2  and  C8_16 
REMARK       I    between atoms: N14_2  and  S20_34 
REMARK       I    between atoms: C7_3  and  O3_22 
REMARK       I    between atoms: C10_4  and  O15_5 
REMARK       I    between atoms: C6_8  and  C2_27 
REMARK       I    between atoms: C6_8  and  O11_31 
REMARK       I    between atoms: C27_9  and  C19_26 
REMARK       I    between atoms: O29_10  and  S20_34 
REMARK       I    between atoms: O9_11  and  C4_14 
REMARK       I    between atoms: S16_15  and  O11_31 
REMARK       I    between atoms: O30_17  and  S20_34 
REMARK       I    between atoms: O3_22  and  C1_29 
REMARK       I    between atoms: O18_24  and  C12_33 
REMARK       I    between atoms: O18_24  and  S26_35 
REMARK       I    between atoms: O28_30  and  S20_34 
ROOT
ATOM      1  C17 H1S d 301      15.115  11.294  38.415  0.00  0.00     0.086 C 
ATOM      2  N14 H1S d 301      18.445   5.061  35.881  0.00  0.00    -0.210 NA
ATOM      3  C7  H1S d 301      15.463   9.305  36.872  0.00  0.00     0.167 C 
ATOM      4  C10 H1S d 301      17.596   6.382  33.994  0.00  0.00     0.147 C 
ATOM      5  O15 H1S d 301      16.273   5.850  34.203  0.00  0.00    -0.369 OA
ATOM      6  O5  H1S d 301      17.502   7.716  33.426  0.00  0.00    -0.350 OA
ATOM      7  O13 H1S d 301      14.530   9.946  35.936  0.00  0.00    -0.311 OA
ATOM      8  C6  H1S d 301      16.748  10.049  33.667  0.00  0.00     0.067 C 
ATOM      9  C27 H1S d 301      13.732  11.979  34.856  0.00  0.00     0.233 C 
ATOM     10  O29 H1S d 301      19.755   3.141  36.827  0.00  0.00    -0.296 OA
ATOM     11  O9  H1S d 301      18.283   7.371  37.568  0.00  0.00    -0.391 OA
ATOM     12  O34 H1S d 301      13.110  11.342  34.032  0.00  0.00    -0.642 OA
ATOM     13  O32 H1S d 301      14.150   6.928  38.709  0.00  0.00    -0.572 OA
ATOM     14  C4  H1S d 301      17.614   7.316  36.303  0.00  0.00     0.083 C 
ATOM     15  S16 H1S d 301      18.138  11.893  32.979  0.00  0.00     0.251 S 
ATOM     16  C8  H1S d 301      18.367   6.408  35.328  0.00  0.00     0.081 C 
ATOM     17  O30 H1S d 301      21.062   4.699  35.339  0.00  0.00    -0.296 OA
ATOM     18  O23 H1S d 301      16.827  12.657  32.303  0.00  0.00    -0.572 OA
ATOM     19  O35 H1S d 301      13.896  13.359  34.687  0.00  0.00    -0.642 OA
ATOM     20  O31 H1S d 301      12.251   7.793  39.721  0.00  0.00    -0.572 OA
ATOM     21  O22 H1S d 301      19.300  12.233  32.250  0.00  0.00    -0.572 OA
ATOM     22  O3  H1S d 301      16.837   9.717  36.568  0.00  0.00    -0.348 OA
ATOM     23  O33 H1S d 301      14.456   8.278  40.831  0.00  0.00    -0.572 OA
ATOM     24  O18 H1S d 301      13.681   9.315  38.540  0.00  0.00    -0.244 OA
ATOM     25  O21 H1S d 301      18.301  12.333  34.329  0.00  0.00    -0.572 OA
ATOM     26  C19 H1S d 301      14.292  11.291  36.028  0.00  0.00     0.147 C 
ATOM     27  C2  H1S d 301      16.832   8.650  34.321  0.00  0.00     0.091 C 
ATOM     28  C24 H1S d 301      14.551  11.974  37.168  0.00  0.00    -0.034 C 
ATOM     29  C1  H1S d 301      17.525   8.751  35.727  0.00  0.00     0.095 C 
ATOM     30  O28 H1S d 301      20.220   5.257  37.653  0.00  0.00    -0.296 OA
ATOM     31  O11 H1S d 301      17.943  10.366  32.938  0.00  0.00    -0.254 OA
ATOM     32  O25 H1S d 301      16.476  11.706  38.601  0.00  0.00    -0.389 OA
ATOM     33  C12 H1S d 301      15.049   9.734  38.312  0.00  0.00     0.135 C 
ATOM     34  S20 H1S d 301      19.880   4.515  36.488  0.00  0.00     0.156 S 
ATOM     35  S26 H1S d 301      13.616   8.049  39.416  0.00  0.00     0.252 S 
ATOM     36  H   H1S d 301      14.517  11.588  39.252  0.00  0.00     0.093 H 
ATOM     37  H   H1S d 301      18.173   4.417  35.138  0.00  0.00     0.140 HD
ATOM     38  H   H1S d 301      15.424   8.240  36.787  0.00  0.00     0.134 H 
ATOM     39  H   H1S d 301      18.129   5.757  33.309  0.00  0.00     0.131 H 
ATOM     40  H   H1S d 301      15.791   6.418  34.825  0.00  0.00     0.212 HD
ATOM     41  H   H1S d 301      16.605  10.781  34.432  0.00  0.00     0.080 H 
ATOM     42  H   H1S d 301      15.928  10.047  32.979  0.00  0.00     0.080 H 
ATOM     43  H   H1S d 301      19.523   2.632  36.035  0.00  0.00     0.231 HD
ATOM     44  H   H1S d 301      17.790   7.950  38.170  0.00  0.00     0.210 HD
ATOM     45  H   H1S d 301      16.632   6.912  36.441  0.00  0.00     0.089 H 
ATOM     46  H   H1S d 301      19.359   6.774  35.168  0.00  0.00     0.076 H 
ATOM     47  H   H1S d 301      20.825   4.192  34.547  0.00  0.00     0.231 HD
ATOM     48  H   H1S d 301      15.846   8.269  34.486  0.00  0.00     0.090 H 
ATOM     49  H   H1S d 301      14.361  12.988  37.196  0.00  0.00     0.085 H 
ATOM     50  H   H1S d 301      18.523   9.132  35.661  0.00  0.00     0.091 H 
ATOM     51  H   H1S d 301      19.526   5.146  38.321  0.00  0.00     0.231 HD
ATOM     52  H   H1S d 301      17.004  11.432  37.834  0.00  0.00     0.210 HD
ATOM     53  H   H1S d 301      15.703   9.289  39.033  0.00  0.00     0.097 H 
ENDROOT
TORSDOF 16
ENDMDL
MODEL 15
REMARK VINA RESULT:      -6.1      1.558      1.811
REMARK  0 active torsions:
REMARK  status: ('A' for Active; 'I' for Inactive)
REMARK       I    between atoms: C17_1  and  O25_32 
REMARK       I    between atoms: N14_2  and  C8_16 
REMARK       I    between atoms: N14_2  and  S20_34 
REMARK       I    between atoms: C7_3  and  O3_22 
REMARK       I    between atoms: C10_4  and  O15_5 
REMARK       I    between atoms: C6_8  and  C2_27 
REMARK       I    between atoms: C6_8  and  O11_31 
REMARK       I    between atoms: C27_9  and  C19_26 
REMARK       I    between atoms: O29_10  and  S20_34 
REMARK       I    between atoms: O9_11  and  C4_14 
REMARK       I    between atoms: S16_15  and  O11_31 
REMARK       I    between atoms: O30_17  and  S20_34 
REMARK       I    between atoms: O3_22  and  C1_29 
REMARK       I    between atoms: O18_24  and  C12_33 
REMARK       I    between atoms: O18_24  and  S26_35 
REMARK       I    between atoms: O28_30  and  S20_34 
ROOT
ATOM      1  C17 H1S d 301      19.356   5.023  36.066  0.00  0.00     0.086 C 
ATOM      2  N14 H1S d 301      17.083  11.086  32.266  0.00  0.00    -0.210 NA
ATOM      3  C7  H1S d 301      17.768   6.892  35.402  0.00  0.00     0.167 C 
ATOM      4  C10 H1S d 301      16.230  11.171  34.566  0.00  0.00     0.147 C 
ATOM      5  O15 H1S d 301      15.155  10.279  34.212  0.00  0.00    -0.369 OA
ATOM      6  O5  H1S d 301      16.571  10.993  35.967  0.00  0.00    -0.350 OA
ATOM      7  O13 H1S d 301      16.987   6.573  36.605  0.00  0.00    -0.311 OA
ATOM      8  C6  H1S d 301      17.398   9.506  37.750  0.00  0.00     0.067 C 
ATOM      9  C27 H1S d 301      16.952   5.961  38.963  0.00  0.00     0.233 C 
ATOM     10  O29 H1S d 301      17.459  12.107  30.005  0.00  0.00    -0.296 OA
ATOM     11  O9  H1S d 301      19.040   9.152  33.067  0.00  0.00    -0.391 OA
ATOM     12  O34 H1S d 301      15.774   6.235  39.055  0.00  0.00    -0.642 OA
ATOM     13  O32 H1S d 301      16.568   5.650  32.615  0.00  0.00    -0.572 OA
ATOM     14  C4  H1S d 301      17.909   9.461  33.889  0.00  0.00     0.083 C 
ATOM     15  S16 H1S d 301      18.959  10.287  39.410  0.00  0.00     0.251 S 
ATOM     16  C8  H1S d 301      17.451  10.904  33.665  0.00  0.00     0.081 C 
ATOM     17  O30 H1S d 301      18.406  13.413  31.941  0.00  0.00    -0.296 OA
ATOM     18  O23 H1S d 301      18.117   9.497  40.605  0.00  0.00    -0.572 OA
ATOM     19  O35 H1S d 301      17.698   5.709  40.120  0.00  0.00    -0.642 OA
ATOM     20  O31 H1S d 301      16.239   3.378  32.946  0.00  0.00    -0.572 OA
ATOM     21  O22 H1S d 301      19.558  11.447  39.954  0.00  0.00    -0.572 OA
ATOM     22  O3  H1S d 301      18.767   7.920  35.713  0.00  0.00    -0.348 OA
ATOM     23  O33 H1S d 301      18.565   4.118  32.336  0.00  0.00    -0.572 OA
ATOM     24  O18 H1S d 301      17.408   4.599  34.649  0.00  0.00    -0.244 OA
ATOM     25  O21 H1S d 301      19.989   9.434  38.909  0.00  0.00    -0.572 OA
ATOM     26  C19 H1S d 301      17.574   5.886  37.634  0.00  0.00     0.147 C 
ATOM     27  C2  H1S d 301      17.058   9.648  36.248  0.00  0.00     0.091 C 
ATOM     28  C24 H1S d 301      18.690   5.144  37.436  0.00  0.00    -0.034 C 
ATOM     29  C1  H1S d 301      18.303   9.256  35.373  0.00  0.00     0.095 C 
ATOM     30  O28 H1S d 301      19.303  11.213  31.089  0.00  0.00    -0.296 OA
ATOM     31  O11 H1S d 301      18.007  10.697  38.270  0.00  0.00    -0.254 OA
ATOM     32  O25 H1S d 301      20.596   5.744  36.082  0.00  0.00    -0.389 OA
ATOM     33  C12 H1S d 301      18.444   5.573  34.920  0.00  0.00     0.135 C 
ATOM     34  S20 H1S d 301      18.089  11.932  31.267  0.00  0.00     0.156 S 
ATOM     35  S26 H1S d 301      17.149   4.454  33.137  0.00  0.00     0.252 S 
ATOM     36  H   H1S d 301      19.528   3.986  35.872  0.00  0.00     0.093 H 
ATOM     37  H   H1S d 301      16.182  11.564  32.254  0.00  0.00     0.140 HD
ATOM     38  H   H1S d 301      17.142   7.281  34.627  0.00  0.00     0.134 H 
ATOM     39  H   H1S d 301      15.918  12.185  34.419  0.00  0.00     0.131 H 
ATOM     40  H   H1S d 301      15.439   9.362  34.346  0.00  0.00     0.212 HD
ATOM     41  H   H1S d 301      18.073   8.687  37.876  0.00  0.00     0.080 H 
ATOM     42  H   H1S d 301      16.486   9.337  38.283  0.00  0.00     0.080 H 
ATOM     43  H   H1S d 301      16.631  12.597  30.122  0.00  0.00     0.231 HD
ATOM     44  H   H1S d 301      19.313   8.235  33.224  0.00  0.00     0.210 HD
ATOM     45  H   H1S d 301      17.097   8.812  33.630  0.00  0.00     0.089 H 
ATOM     46  H   H1S d 301      18.239  11.587  33.908  0.00  0.00     0.076 H 
ATOM     47  H   H1S d 301      17.575  13.898  32.060  0.00  0.00     0.231 HD
ATOM     48  H   H1S d 301      16.270   8.973  35.990  0.00  0.00     0.090 H 
ATOM     49  H   H1S d 301      19.103   4.644  38.238  0.00  0.00     0.085 H 
ATOM     50  H   H1S d 301      19.150   9.880  35.568  0.00  0.00     0.091 H 
ATOM     51  H   H1S d 301      19.112  10.347  30.695  0.00  0.00     0.231 HD
ATOM     52  H   H1S d 301      20.423   6.682  36.259  0.00  0.00     0.210 HD
ATOM     53  H   H1S d 301      19.027   5.757  34.041  0.00  0.00     0.097 H 
ENDROOT
TORSDOF 16
ENDMDL
MODEL 16
REMARK VINA RESULT:      -6.1      3.037      4.222
REMARK  0 active torsions:
REMARK  status: ('A' for Active; 'I' for Inactive)
REMARK       I    between atoms: C17_1  and  O25_32 
REMARK       I    between atoms: N14_2  and  C8_16 
REMARK       I    between atoms: N14_2  and  S20_34 
REMARK       I    between atoms: C7_3  and  O3_22 
REMARK       I    between atoms: C10_4  and  O15_5 
REMARK       I    between atoms: C6_8  and  C2_27 
REMARK       I    between atoms: C6_8  and  O11_31 
REMARK       I    between atoms: C27_9  and  C19_26 
REMARK       I    between atoms: O29_10  and  S20_34 
REMARK       I    between atoms: O9_11  and  C4_14 
REMARK       I    between atoms: S16_15  and  O11_31 
REMARK       I    between atoms: O30_17  and  S20_34 
REMARK       I    between atoms: O3_22  and  C1_29 
REMARK       I    between atoms: O18_24  and  C12_33 
REMARK       I    between atoms: O18_24  and  S26_35 
REMARK       I    between atoms: O28_30  and  S20_34 
ROOT
ATOM      1  C17 H1S d 301      20.389   5.571  34.911  0.00  0.00     0.086 C 
ATOM      2  N14 H1S d 301      13.713   9.007  34.894  0.00  0.00    -0.210 NA
ATOM      3  C7  H1S d 301      18.090   6.193  35.798  0.00  0.00     0.167 C 
ATOM      4  C10 H1S d 301      14.558   8.830  37.193  0.00  0.00     0.147 C 
ATOM      5  O15 H1S d 301      14.098   7.466  37.268  0.00  0.00    -0.369 OA
ATOM      6  O5  H1S d 301      15.720   9.002  38.047  0.00  0.00    -0.350 OA
ATOM      7  O13 H1S d 301      18.497   5.615  37.086  0.00  0.00    -0.311 OA
ATOM      8  C6  H1S d 301      18.048   8.388  38.566  0.00  0.00     0.067 C 
ATOM      9  C27 H1S d 301      20.223   5.311  38.778  0.00  0.00     0.233 C 
ATOM     10  O29 H1S d 301      12.063   9.847  33.200  0.00  0.00    -0.296 OA
ATOM     11  O9  H1S d 301      16.357   8.546  33.890  0.00  0.00    -0.391 OA
ATOM     12  O34 H1S d 301      19.414   4.903  39.585  0.00  0.00    -0.642 OA
ATOM     13  O32 H1S d 301      16.221   4.238  33.944  0.00  0.00    -0.572 OA
ATOM     14  C4  H1S d 301      16.010   8.262  35.250  0.00  0.00     0.083 C 
ATOM     15  S16 H1S d 301      19.670  10.049  39.210  0.00  0.00     0.251 S 
ATOM     16  C8  H1S d 301      14.892   9.190  35.733  0.00  0.00     0.081 C 
ATOM     17  O30 H1S d 301      13.218  11.635  34.548  0.00  0.00    -0.296 OA
ATOM     18  O23 H1S d 301      20.261   9.045  40.394  0.00  0.00    -0.572 OA
ATOM     19  O35 H1S d 301      21.523   5.620  39.196  0.00  0.00    -0.642 OA
ATOM     20  O31 H1S d 301      17.312   2.201  33.755  0.00  0.00    -0.572 OA
ATOM     21  O22 H1S d 301      19.821  11.393  39.622  0.00  0.00    -0.572 OA
ATOM     22  O3  H1S d 301      18.410   7.624  35.770  0.00  0.00    -0.348 OA
ATOM     23  O33 H1S d 301      18.031   4.030  32.185  0.00  0.00    -0.572 OA
ATOM     24  O18 H1S d 301      18.504   4.017  34.773  0.00  0.00    -0.244 OA
ATOM     25  O21 H1S d 301      20.414   9.856  38.006  0.00  0.00    -0.572 OA
ATOM     26  C19 H1S d 301      19.828   5.462  37.371  0.00  0.00     0.147 C 
ATOM     27  C2  H1S d 301      16.843   8.177  37.621  0.00  0.00     0.091 C 
ATOM     28  C24 H1S d 301      20.759   5.437  36.388  0.00  0.00    -0.034 C 
ATOM     29  C1  H1S d 301      17.269   8.448  36.133  0.00  0.00     0.095 C 
ATOM     30  O28 H1S d 301      14.311  10.215  32.770  0.00  0.00    -0.296 OA
ATOM     31  O11 H1S d 301      18.177   9.761  38.964  0.00  0.00    -0.254 OA
ATOM     32  O25 H1S d 301      20.824   6.850  34.431  0.00  0.00    -0.389 OA
ATOM     33  C12 H1S d 301      18.848   5.420  34.677  0.00  0.00     0.135 C 
ATOM     34  S20 H1S d 301      13.318  10.165  33.787  0.00  0.00     0.156 S 
ATOM     35  S26 H1S d 301      17.480   3.611  33.696  0.00  0.00     0.252 S 
ATOM     36  H   H1S d 301      20.875   4.784  34.375  0.00  0.00     0.093 H 
ATOM     37  H   H1S d 301      12.914   8.910  35.521  0.00  0.00     0.140 HD
ATOM     38  H   H1S d 301      17.035   6.100  35.650  0.00  0.00     0.134 H 
ATOM     39  H   H1S d 301      13.785   9.488  37.533  0.00  0.00     0.131 H 
ATOM     40  H   H1S d 301      14.799   6.872  36.959  0.00  0.00     0.212 HD
ATOM     41  H   H1S d 301      18.942   8.088  38.061  0.00  0.00     0.080 H 
ATOM     42  H   H1S d 301      17.890   7.799  39.445  0.00  0.00     0.080 H 
ATOM     43  H   H1S d 301      11.383   9.812  33.891  0.00  0.00     0.231 HD
ATOM     44  H   H1S d 301      17.065   7.948  33.606  0.00  0.00     0.210 HD
ATOM     45  H   H1S d 301      15.656   7.254  35.321  0.00  0.00     0.089 H 
ATOM     46  H   H1S d 301      15.205  10.212  35.672  0.00  0.00     0.076 H 
ATOM     47  H   H1S d 301      12.540  11.595  35.241  0.00  0.00     0.231 HD
ATOM     48  H   H1S d 301      16.517   7.159  37.672  0.00  0.00     0.090 H 
ATOM     49  H   H1S d 301      21.752   5.324  36.645  0.00  0.00     0.085 H 
ATOM     50  H   H1S d 301      17.617   9.449  35.986  0.00  0.00     0.091 H 
ATOM     51  H   H1S d 301      14.365   9.353  32.328  0.00  0.00     0.231 HD
ATOM     52  H   H1S d 301      20.374   7.552  34.927  0.00  0.00     0.210 HD
ATOM     53  H   H1S d 301      18.582   5.808  33.716  0.00  0.00     0.097 H 
ENDROOT
TORSDOF 16
ENDMDL
MODEL 17
REMARK VINA RESULT:      -6.1      2.486      7.041
REMARK  0 active torsions:
REMARK  status: ('A' for Active; 'I' for Inactive)
REMARK       I    between atoms: C17_1  and  O25_32 
REMARK       I    between atoms: N14_2  and  C8_16 
REMARK       I    between atoms: N14_2  and  S20_34 
REMARK       I    between atoms: C7_3  and  O3_22 
REMARK       I    between atoms: C10_4  and  O15_5 
REMARK       I    between atoms: C6_8  and  C2_27 
REMARK       I    between atoms: C6_8  and  O11_31 
REMARK       I    between atoms: C27_9  and  C19_26 
REMARK       I    between atoms: O29_10  and  S20_34 
REMARK       I    between atoms: O9_11  and  C4_14 
REMARK       I    between atoms: S16_15  and  O11_31 
REMARK       I    between atoms: O30_17  and  S20_34 
REMARK       I    between atoms: O3_22  and  C1_29 
REMARK       I    between atoms: O18_24  and  C12_33 
REMARK       I    between atoms: O18_24  and  S26_35 
REMARK       I    between atoms: O28_30  and  S20_34 
ROOT
ATOM      1  C17 H1S d 301      20.384   9.179  30.922  0.00  0.00     0.086 C 
ATOM      2  N14 H1S d 301      15.560  10.768  36.451  0.00  0.00    -0.210 NA
ATOM      3  C7  H1S d 301      18.129   9.259  32.090  0.00  0.00     0.167 C 
ATOM      4  C10 H1S d 301      14.934   8.651  35.376  0.00  0.00     0.147 C 
ATOM      5  O15 H1S d 301      14.285   9.372  34.311  0.00  0.00    -0.369 OA
ATOM      6  O5  H1S d 301      15.430   7.381  34.876  0.00  0.00    -0.350 OA
ATOM      7  O13 H1S d 301      17.642   8.304  31.085  0.00  0.00    -0.311 OA
ATOM      8  C6  H1S d 301      16.927   6.178  33.332  0.00  0.00     0.067 C 
ATOM      9  C27 H1S d 301      18.048   6.319  29.732  0.00  0.00     0.233 C 
ATOM     10  O29 H1S d 301      15.308  12.494  38.255  0.00  0.00    -0.296 OA
ATOM     11  O9  H1S d 301      18.188  10.556  35.330  0.00  0.00    -0.391 OA
ATOM     12  O34 H1S d 301      16.871   6.222  29.454  0.00  0.00    -0.642 OA
ATOM     13  O32 H1S d 301      17.310  12.383  31.526  0.00  0.00    -0.572 OA
ATOM     14  C4  H1S d 301      17.099   9.762  34.846  0.00  0.00     0.083 C 
ATOM     15  S16 H1S d 301      18.169   4.241  34.045  0.00  0.00     0.251 S 
ATOM     16  C8  H1S d 301      16.081   9.498  35.959  0.00  0.00     0.081 C 
ATOM     17  O30 H1S d 301      15.801  10.160  39.067  0.00  0.00    -0.296 OA
ATOM     18  O23 H1S d 301      17.818   3.463  32.620  0.00  0.00    -0.572 OA
ATOM     19  O35 H1S d 301      18.924   5.273  29.417  0.00  0.00    -0.642 OA
ATOM     20  O31 H1S d 301      17.953  12.894  29.357  0.00  0.00    -0.572 OA
ATOM     21  O22 H1S d 301      18.292   3.284  35.079  0.00  0.00    -0.572 OA
ATOM     22  O3  H1S d 301      18.650   8.536  33.255  0.00  0.00    -0.348 OA
ATOM     23  O33 H1S d 301      19.725  13.037  31.136  0.00  0.00    -0.572 OA
ATOM     24  O18 H1S d 301      18.664  10.792  30.268  0.00  0.00    -0.244 OA
ATOM     25  O21 H1S d 301      19.412   4.933  33.915  0.00  0.00    -0.572 OA
ATOM     26  C19 H1S d 301      18.538   7.542  30.383  0.00  0.00     0.147 C 
ATOM     27  C2  H1S d 301      16.439   7.555  33.838  0.00  0.00     0.091 C 
ATOM     28  C24 H1S d 301      19.838   7.906  30.277  0.00  0.00    -0.034 C 
ATOM     29  C1  H1S d 301      17.661   8.420  34.315  0.00  0.00     0.095 C 
ATOM     30  O28 H1S d 301      17.437  11.662  37.867  0.00  0.00    -0.296 OA
ATOM     31  O11 H1S d 301      17.045   5.230  34.404  0.00  0.00    -0.254 OA
ATOM     32  O25 H1S d 301      21.224   8.823  32.027  0.00  0.00    -0.389 OA
ATOM     33  C12 H1S d 301      19.237  10.123  31.417  0.00  0.00     0.135 C 
ATOM     34  S20 H1S d 301      16.054  11.332  37.921  0.00  0.00     0.156 S 
ATOM     35  S26 H1S d 301      18.364  12.273  30.568  0.00  0.00     0.252 S 
ATOM     36  H   H1S d 301      20.943   9.712  30.182  0.00  0.00     0.093 H 
ATOM     37  H   H1S d 301      14.545  10.676  36.494  0.00  0.00     0.140 HD
ATOM     38  H   H1S d 301      17.338   9.892  32.436  0.00  0.00     0.134 H 
ATOM     39  H   H1S d 301      14.229   8.456  36.158  0.00  0.00     0.131 H 
ATOM     40  H   H1S d 301      14.925   9.548  33.603  0.00  0.00     0.212 HD
ATOM     41  H   H1S d 301      17.883   6.298  32.869  0.00  0.00     0.080 H 
ATOM     42  H   H1S d 301      16.207   5.805  32.634  0.00  0.00     0.080 H 
ATOM     43  H   H1S d 301      14.365  12.272  38.292  0.00  0.00     0.231 HD
ATOM     44  H   H1S d 301      18.819  10.711  34.610  0.00  0.00     0.210 HD
ATOM     45  H   H1S d 301      16.600  10.290  34.060  0.00  0.00     0.089 H 
ATOM     46  H   H1S d 301      16.544   8.976  36.770  0.00  0.00     0.076 H 
ATOM     47  H   H1S d 301      14.857   9.939  39.099  0.00  0.00     0.231 HD
ATOM     48  H   H1S d 301      15.972   8.089  33.038  0.00  0.00     0.090 H 
ATOM     49  H   H1S d 301      20.482   7.303  29.742  0.00  0.00     0.085 H 
ATOM     50  H   H1S d 301      18.197   7.958  35.118  0.00  0.00     0.091 H 
ATOM     51  H   H1S d 301      17.580  12.347  37.196  0.00  0.00     0.231 HD
ATOM     52  H   H1S d 301      20.702   8.341  32.689  0.00  0.00     0.210 HD
ATOM     53  H   H1S d 301      19.624  10.837  32.114  0.00  0.00     0.097 H 
ENDROOT
TORSDOF 16
ENDMDL
MODEL 18
REMARK VINA RESULT:      -6.0      2.953      4.289
REMARK  0 active torsions:
REMARK  status: ('A' for Active; 'I' for Inactive)
REMARK       I    between atoms: C17_1  and  O25_32 
REMARK       I    between atoms: N14_2  and  C8_16 
REMARK       I    between atoms: N14_2  and  S20_34 
REMARK       I    between atoms: C7_3  and  O3_22 
REMARK       I    between atoms: C10_4  and  O15_5 
REMARK       I    between atoms: C6_8  and  C2_27 
REMARK       I    between atoms: C6_8  and  O11_31 
REMARK       I    between atoms: C27_9  and  C19_26 
REMARK       I    between atoms: O29_10  and  S20_34 
REMARK       I    between atoms: O9_11  and  C4_14 
REMARK       I    between atoms: S16_15  and  O11_31 
REMARK       I    between atoms: O30_17  and  S20_34 
REMARK       I    between atoms: O3_22  and  C1_29 
REMARK       I    between atoms: O18_24  and  C12_33 
REMARK       I    between atoms: O18_24  and  S26_35 
REMARK       I    between atoms: O28_30  and  S20_34 
ROOT
ATOM      1  C17 H1S d 301      16.773   7.235  35.754  0.00  0.00     0.086 C 
ATOM      2  N14 H1S d 301      21.268   8.522  29.880  0.00  0.00    -0.210 NA
ATOM      3  C7  H1S d 301      17.354   7.893  33.370  0.00  0.00     0.167 C 
ATOM      4  C10 H1S d 301      19.400  10.116  29.871  0.00  0.00     0.147 C 
ATOM      5  O15 H1S d 301      18.543   9.124  29.273  0.00  0.00    -0.369 OA
ATOM      6  O5  H1S d 301      18.608  11.021  30.685  0.00  0.00    -0.350 OA
ATOM      7  O13 H1S d 301      15.994   8.436  33.253  0.00  0.00    -0.311 OA
ATOM      8  C6  H1S d 301      17.117  11.337  32.621  0.00  0.00     0.067 C 
ATOM      9  C27 H1S d 301      14.153   9.674  34.260  0.00  0.00     0.233 C 
ATOM     10  O29 H1S d 301      23.460   7.675  29.000  0.00  0.00    -0.296 OA
ATOM     11  O9  H1S d 301      20.767   7.956  32.644  0.00  0.00    -0.391 OA
ATOM     12  O34 H1S d 301      13.602   9.801  33.187  0.00  0.00    -0.642 OA
ATOM     13  O32 H1S d 301      17.766   4.921  32.048  0.00  0.00    -0.572 OA
ATOM     14  C4  H1S d 301      19.801   8.629  31.828  0.00  0.00     0.083 C 
ATOM     15  S16 H1S d 301      17.358  13.230  34.092  0.00  0.00     0.251 S 
ATOM     16  C8  H1S d 301      20.488   9.427  30.716  0.00  0.00     0.081 C 
ATOM     17  O30 H1S d 301      23.481  10.062  29.810  0.00  0.00    -0.296 OA
ATOM     18  O23 H1S d 301      15.710  13.432  34.138  0.00  0.00    -0.572 OA
ATOM     19  O35 H1S d 301      13.694  10.400  35.366  0.00  0.00    -0.642 OA
ATOM     20  O31 H1S d 301      16.123   3.534  32.919  0.00  0.00    -0.572 OA
ATOM     21  O22 H1S d 301      17.984  14.490  34.234  0.00  0.00    -0.572 OA
ATOM     22  O3  H1S d 301      18.272   8.941  33.828  0.00  0.00    -0.348 OA
ATOM     23  O33 H1S d 301      18.188   3.874  34.315  0.00  0.00    -0.572 OA
ATOM     24  O18 H1S d 301      16.365   5.720  33.877  0.00  0.00    -0.244 OA
ATOM     25  O21 H1S d 301      17.765  12.394  35.177  0.00  0.00    -0.572 OA
ATOM     26  C19 H1S d 301      15.288   8.749  34.384  0.00  0.00     0.147 C 
ATOM     27  C2  H1S d 301      17.955  10.336  31.793  0.00  0.00     0.091 C 
ATOM     28  C24 H1S d 301      15.614   8.215  35.585  0.00  0.00    -0.034 C 
ATOM     29  C1  H1S d 301      18.970   9.580  32.725  0.00  0.00     0.095 C 
ATOM     30  O28 H1S d 301      23.293   8.022  31.286  0.00  0.00    -0.296 OA
ATOM     31  O11 H1S d 301      17.780  12.604  32.750  0.00  0.00    -0.254 OA
ATOM     32  O25 H1S d 301      17.840   7.885  36.459  0.00  0.00    -0.389 OA
ATOM     33  C12 H1S d 301      17.299   6.706  34.378  0.00  0.00     0.135 C 
ATOM     34  S20 H1S d 301      22.913   8.516  30.007  0.00  0.00     0.156 S 
ATOM     35  S26 H1S d 301      17.094   4.520  33.243  0.00  0.00     0.252 S 
ATOM     36  H   H1S d 301      16.417   6.392  36.309  0.00  0.00     0.093 H 
ATOM     37  H   H1S d 301      21.046   8.748  28.910  0.00  0.00     0.140 HD
ATOM     38  H   H1S d 301      17.714   7.547  32.424  0.00  0.00     0.134 H 
ATOM     39  H   H1S d 301      19.882  10.684  29.102  0.00  0.00     0.131 H 
ATOM     40  H   H1S d 301      18.108   8.611  29.970  0.00  0.00     0.212 HD
ATOM     41  H   H1S d 301      16.955  10.930  33.596  0.00  0.00     0.080 H 
ATOM     42  H   H1S d 301      16.190  11.496  32.113  0.00  0.00     0.080 H 
ATOM     43  H   H1S d 301      23.203   8.009  28.127  0.00  0.00     0.231 HD
ATOM     44  H   H1S d 301      20.311   7.458  33.340  0.00  0.00     0.210 HD
ATOM     45  H   H1S d 301      19.162   7.903  31.367  0.00  0.00     0.089 H 
ATOM     46  H   H1S d 301      21.143  10.162  31.136  0.00  0.00     0.076 H 
ATOM     47  H   H1S d 301      23.219  10.393  28.937  0.00  0.00     0.231 HD
ATOM     48  H   H1S d 301      17.313   9.595  31.365  0.00  0.00     0.090 H 
ATOM     49  H   H1S d 301      15.059   8.479  36.414  0.00  0.00     0.085 H 
ATOM     50  H   H1S d 301      19.655  10.247  33.205  0.00  0.00     0.091 H 
ATOM     51  H   H1S d 301      22.959   7.119  31.397  0.00  0.00     0.231 HD
ATOM     52  H   H1S d 301      18.152   8.646  35.943  0.00  0.00     0.210 HD
ATOM     53  H   H1S d 301      18.272   6.276  34.496  0.00  0.00     0.097 H 
ENDROOT
TORSDOF 16
ENDMDL
MODEL 19
REMARK VINA RESULT:      -6.0      3.072      4.872
REMARK  0 active torsions:
REMARK  status: ('A' for Active; 'I' for Inactive)
REMARK       I    between atoms: C17_1  and  O25_32 
REMARK       I    between atoms: N14_2  and  C8_16 
REMARK       I    between atoms: N14_2  and  S20_34 
REMARK       I    between atoms: C7_3  and  O3_22 
REMARK       I    between atoms: C10_4  and  O15_5 
REMARK       I    between atoms: C6_8  and  C2_27 
REMARK       I    between atoms: C6_8  and  O11_31 
REMARK       I    between atoms: C27_9  and  C19_26 
REMARK       I    between atoms: O29_10  and  S20_34 
REMARK       I    between atoms: O9_11  and  C4_14 
REMARK       I    between atoms: S16_15  and  O11_31 
REMARK       I    between atoms: O30_17  and  S20_34 
REMARK       I    between atoms: O3_22  and  C1_29 
REMARK       I    between atoms: O18_24  and  C12_33 
REMARK       I    between atoms: O18_24  and  S26_35 
REMARK       I    between atoms: O28_30  and  S20_34 
ROOT
ATOM      1  C17 H1S d 301      17.050   8.299  40.698  0.00  0.00     0.086 C 
ATOM      2  N14 H1S d 301      19.031   6.323  33.731  0.00  0.00    -0.210 NA
ATOM      3  C7  H1S d 301      16.723   7.320  38.376  0.00  0.00     0.167 C 
ATOM      4  C10 H1S d 301      16.686   7.048  33.761  0.00  0.00     0.147 C 
ATOM      5  O15 H1S d 301      16.281   5.752  34.245  0.00  0.00    -0.369 OA
ATOM      6  O5  H1S d 301      15.762   8.060  34.241  0.00  0.00    -0.350 OA
ATOM      7  O13 H1S d 301      15.278   7.331  38.640  0.00  0.00    -0.311 OA
ATOM      8  C6  H1S d 301      14.756   9.240  36.156  0.00  0.00     0.067 C 
ATOM      9  C27 H1S d 301      13.342   8.480  39.571  0.00  0.00     0.233 C 
ATOM     10  O29 H1S d 301      21.116   5.617  32.524  0.00  0.00    -0.296 OA
ATOM     11  O9  H1S d 301      19.466   7.637  36.240  0.00  0.00    -0.391 OA
ATOM     12  O34 H1S d 301      12.576   7.739  38.991  0.00  0.00    -0.642 OA
ATOM     13  O32 H1S d 301      18.171   4.406  38.782  0.00  0.00    -0.572 OA
ATOM     14  C4  H1S d 301      18.146   7.365  35.753  0.00  0.00     0.083 C 
ATOM     15  S16 H1S d 301      14.403  11.622  36.116  0.00  0.00     0.251 S 
ATOM     16  C8  H1S d 301      18.123   7.353  34.222  0.00  0.00     0.081 C 
ATOM     17  O30 H1S d 301      20.200   7.868  31.854  0.00  0.00    -0.296 OA
ATOM     18  O23 H1S d 301      12.904  11.434  36.808  0.00  0.00    -0.572 OA
ATOM     19  O35 H1S d 301      12.850   9.630  40.200  0.00  0.00    -0.642 OA
ATOM     20  O31 H1S d 301      17.595   3.627  40.890  0.00  0.00    -0.572 OA
ATOM     21  O22 H1S d 301      14.385  12.757  35.272  0.00  0.00    -0.572 OA
ATOM     22  O3  H1S d 301      17.124   8.576  37.734  0.00  0.00    -0.348 OA
ATOM     23  O33 H1S d 301      19.513   5.250  40.758  0.00  0.00    -0.572 OA
ATOM     24  O18 H1S d 301      16.995   5.880  40.328  0.00  0.00    -0.244 OA
ATOM     25  O21 H1S d 301      15.377  11.831  37.140  0.00  0.00    -0.572 OA
ATOM     26  C19 H1S d 301      14.773   8.149  39.615  0.00  0.00     0.147 C 
ATOM     27  C2  H1S d 301      15.761   8.159  35.695  0.00  0.00     0.091 C 
ATOM     28  C24 H1S d 301      15.561   8.634  40.604  0.00  0.00    -0.034 C 
ATOM     29  C1  H1S d 301      17.186   8.458  36.287  0.00  0.00     0.095 C 
ATOM     30  O28 H1S d 301      21.308   7.342  34.061  0.00  0.00    -0.296 OA
ATOM     31  O11 H1S d 301      14.765  10.379  35.283  0.00  0.00    -0.254 OA
ATOM     32  O25 H1S d 301      17.815   9.466  40.371  0.00  0.00    -0.389 OA
ATOM     33  C12 H1S d 301      17.447   7.125  39.742  0.00  0.00     0.135 C 
ATOM     34  S20 H1S d 301      20.474   6.766  33.063  0.00  0.00     0.156 S 
ATOM     35  S26 H1S d 301      18.041   4.763  40.160  0.00  0.00     0.252 S 
ATOM     36  H   H1S d 301      17.256   7.984  41.699  0.00  0.00     0.093 H 
ATOM     37  H   H1S d 301      18.525   5.794  33.021  0.00  0.00     0.140 HD
ATOM     38  H   H1S d 301      16.988   6.525  37.711  0.00  0.00     0.134 H 
ATOM     39  H   H1S d 301      16.668   7.052  32.690  0.00  0.00     0.131 H 
ATOM     40  H   H1S d 301      16.298   5.750  35.215  0.00  0.00     0.212 HD
ATOM     41  H   H1S d 301      15.018   9.558  37.143  0.00  0.00     0.080 H 
ATOM     42  H   H1S d 301      13.776   8.813  36.139  0.00  0.00     0.080 H 
ATOM     43  H   H1S d 301      20.550   5.221  31.844  0.00  0.00     0.231 HD
ATOM     44  H   H1S d 301      19.457   7.640  37.210  0.00  0.00     0.210 HD
ATOM     45  H   H1S d 301      17.835   6.400  36.096  0.00  0.00     0.089 H 
ATOM     46  H   H1S d 301      18.436   8.302  33.837  0.00  0.00     0.076 H 
ATOM     47  H   H1S d 301      19.631   7.469  31.177  0.00  0.00     0.231 HD
ATOM     48  H   H1S d 301      15.462   7.203  36.071  0.00  0.00     0.090 H 
ATOM     49  H   H1S d 301      15.143   9.249  41.318  0.00  0.00     0.085 H 
ATOM     50  H   H1S d 301      17.569   9.404  35.966  0.00  0.00     0.091 H 
ATOM     51  H   H1S d 301      21.465   6.694  34.766  0.00  0.00     0.231 HD
ATOM     52  H   H1S d 301      17.617   9.738  39.461  0.00  0.00     0.210 HD
ATOM     53  H   H1S d 301      18.508   7.110  39.599  0.00  0.00     0.097 H 
ENDROOT
TORSDOF 16
ENDMDL
MODEL 20
REMARK VINA RESULT:      -6.0      3.181      6.588
REMARK  0 active torsions:
REMARK  status: ('A' for Active; 'I' for Inactive)
REMARK       I    between atoms: C17_1  and  O25_32 
REMARK       I    between atoms: N14_2  and  C8_16 
REMARK       I    between atoms: N14_2  and  S20_34 
REMARK       I    between atoms: C7_3  and  O3_22 
REMARK       I    between atoms: C10_4  and  O15_5 
REMARK       I    between atoms: C6_8  and  C2_27 
REMARK       I    between atoms: C6_8  and  O11_31 
REMARK       I    between atoms: C27_9  and  C19_26 
REMARK       I    between atoms: O29_10  and  S20_34 
REMARK       I    between atoms: O9_11  and  C4_14 
REMARK       I    between atoms: S16_15  and  O11_31 
REMARK       I    between atoms: O30_17  and  S20_34 
REMARK       I    between atoms: O3_22  and  C1_29 
REMARK       I    between atoms: O18_24  and  C12_33 
REMARK       I    between atoms: O18_24  and  S26_35 
REMARK       I    between atoms: O28_30  and  S20_34 
ROOT
ATOM      1  C17 H1S d 301      15.174   8.717  37.249  0.00  0.00     0.086 C 
ATOM      2  N14 H1S d 301      18.458   4.189  32.241  0.00  0.00    -0.210 NA
ATOM      3  C7  H1S d 301      17.058   7.850  35.780  0.00  0.00     0.167 C 
ATOM      4  C10 H1S d 301      20.094   4.893  33.932  0.00  0.00     0.147 C 
ATOM      5  O15 H1S d 301      20.280   6.145  33.244  0.00  0.00    -0.369 OA
ATOM      6  O5  H1S d 301      20.327   5.076  35.353  0.00  0.00    -0.350 OA
ATOM      7  O13 H1S d 301      17.972   8.698  36.557  0.00  0.00    -0.311 OA
ATOM      8  C6  H1S d 301      19.675   6.174  37.460  0.00  0.00     0.067 C 
ATOM      9  C27 H1S d 301      18.657   9.581  38.722  0.00  0.00     0.233 C 
ATOM     10  O29 H1S d 301      17.774   2.798  30.268  0.00  0.00    -0.296 OA
ATOM     11  O9  H1S d 301      16.323   4.941  33.997  0.00  0.00    -0.391 OA
ATOM     12  O34 H1S d 301      19.716   9.967  38.272  0.00  0.00    -0.642 OA
ATOM     13  O32 H1S d 301      16.145   9.103  32.891  0.00  0.00    -0.572 OA
ATOM     14  C4  H1S d 301      17.668   5.381  34.218  0.00  0.00     0.083 C 
ATOM     15  S16 H1S d 301      19.611   4.960  39.540  0.00  0.00     0.251 S 
ATOM     16  C8  H1S d 301      18.671   4.361  33.674  0.00  0.00     0.081 C 
ATOM     17  O30 H1S d 301      18.556   1.494  32.277  0.00  0.00    -0.296 OA
ATOM     18  O23 H1S d 301      20.320   6.235  40.333  0.00  0.00    -0.572 OA
ATOM     19  O35 H1S d 301      18.450   9.584  40.107  0.00  0.00    -0.642 OA
ATOM     20  O31 H1S d 301      15.340  11.243  33.280  0.00  0.00    -0.572 OA
ATOM     21  O22 H1S d 301      19.996   3.752  40.166  0.00  0.00    -0.572 OA
ATOM     22  O3  H1S d 301      16.981   6.515  36.382  0.00  0.00    -0.348 OA
ATOM     23  O33 H1S d 301      13.741   9.337  33.653  0.00  0.00    -0.572 OA
ATOM     24  O18 H1S d 301      15.815   9.864  35.184  0.00  0.00    -0.244 OA
ATOM     25  O21 H1S d 301      18.189   5.081  39.620  0.00  0.00    -0.572 OA
ATOM     26  C19 H1S d 301      17.603   9.131  37.803  0.00  0.00     0.147 C 
ATOM     27  C2  H1S d 301      19.379   6.006  35.952  0.00  0.00     0.091 C 
ATOM     28  C24 H1S d 301      16.303   9.158  38.180  0.00  0.00    -0.034 C 
ATOM     29  C1  H1S d 301      17.883   5.572  35.741  0.00  0.00     0.095 C 
ATOM     30  O28 H1S d 301      16.384   2.771  32.123  0.00  0.00    -0.296 OA
ATOM     31  O11 H1S d 301      20.060   4.932  38.067  0.00  0.00    -0.254 OA
ATOM     32  O25 H1S d 301      14.635   7.475  37.720  0.00  0.00    -0.389 OA
ATOM     33  C12 H1S d 301      15.665   8.549  35.772  0.00  0.00     0.135 C 
ATOM     34  S20 H1S d 301      17.737   2.811  31.688  0.00  0.00     0.156 S 
ATOM     35  S26 H1S d 301      15.304   9.896  33.732  0.00  0.00     0.252 S 
ATOM     36  H   H1S d 301      14.423   9.478  37.254  0.00  0.00     0.093 H 
ATOM     37  H   H1S d 301      19.374   4.244  31.795  0.00  0.00     0.140 HD
ATOM     38  H   H1S d 301      17.406   7.727  34.776  0.00  0.00     0.134 H 
ATOM     39  H   H1S d 301      20.794   4.173  33.562  0.00  0.00     0.131 H 
ATOM     40  H   H1S d 301      19.645   6.796  33.580  0.00  0.00     0.212 HD
ATOM     41  H   H1S d 301      18.797   6.541  37.948  0.00  0.00     0.080 H 
ATOM     42  H   H1S d 301      20.487   6.863  37.566  0.00  0.00     0.080 H 
ATOM     43  H   H1S d 301      18.696   2.825  29.968  0.00  0.00     0.231 HD
ATOM     44  H   H1S d 301      15.706   5.601  34.349  0.00  0.00     0.210 HD
ATOM     45  H   H1S d 301      17.826   6.307  33.704  0.00  0.00     0.089 H 
ATOM     46  H   H1S d 301      18.542   3.416  34.159  0.00  0.00     0.076 H 
ATOM     47  H   H1S d 301      19.478   1.526  31.979  0.00  0.00     0.231 HD
ATOM     48  H   H1S d 301      19.505   6.943  35.452  0.00  0.00     0.090 H 
ATOM     49  H   H1S d 301      16.066   9.488  39.128  0.00  0.00     0.085 H 
ATOM     50  H   H1S d 301      17.660   4.639  36.214  0.00  0.00     0.091 H 
ATOM     51  H   H1S d 301      15.910   3.543  31.776  0.00  0.00     0.231 HD
ATOM     52  H   H1S d 301      15.328   6.795  37.708  0.00  0.00     0.210 HD
ATOM     53  H   H1S d 301      14.962   7.965  35.214  0.00  0.00     0.097 H 
ENDROOT
TORSDOF 16
ENDMDL
MODEL 21
REMARK VINA RESULT:      -5.9      2.698      3.714
REMARK  0 active torsions:
REMARK  status: ('A' for Active; 'I' for Inactive)
REMARK       I    between atoms: C17_1  and  O25_32 
REMARK       I    between atoms: N14_2  and  C8_16 
REMARK       I    between atoms: N14_2  and  S20_34 
REMARK       I    between atoms: C7_3  and  O3_22 
REMARK       I    between atoms: C10_4  and  O15_5 
REMARK       I    between atoms: C6_8  and  C2_27 
REMARK       I    between atoms: C6_8  and  O11_31 
REMARK       I    between atoms: C27_9  and  C19_26 
REMARK       I    between atoms: O29_10  and  S20_34 
REMARK       I    between atoms: O9_11  and  C4_14 
REMARK       I    between atoms: S16_15  and  O11_31 
REMARK       I    between atoms: O30_17  and  S20_34 
REMARK       I    between atoms: O3_22  and  C1_29 
REMARK       I    between atoms: O18_24  and  C12_33 
REMARK       I    between atoms: O18_24  and  S26_35 
REMARK       I    between atoms: O28_30  and  S20_34 
ROOT
ATOM      1  C17 H1S d 301      17.229   7.438  34.192  0.00  0.00     0.086 C 
ATOM      2  N14 H1S d 301      20.835  12.570  30.066  0.00  0.00    -0.210 NA
ATOM      3  C7  H1S d 301      17.456   9.335  32.517  0.00  0.00     0.167 C 
ATOM      4  C10 H1S d 301      18.652  13.445  30.770  0.00  0.00     0.147 C 
ATOM      5  O15 H1S d 301      18.007  12.725  29.702  0.00  0.00    -0.369 OA
ATOM      6  O5  H1S d 301      17.735  13.589  31.886  0.00  0.00    -0.350 OA
ATOM      7  O13 H1S d 301      16.002   9.518  32.619  0.00  0.00    -0.311 OA
ATOM      8  C6  H1S d 301      16.364  12.508  33.625  0.00  0.00     0.067 C 
ATOM      9  C27 H1S d 301      14.005   9.589  34.014  0.00  0.00     0.233 C 
ATOM     10  O29 H1S d 301      23.091  12.843  29.000  0.00  0.00    -0.296 OA
ATOM     11  O9  H1S d 301      20.694  10.575  32.117  0.00  0.00    -0.391 OA
ATOM     12  O34 H1S d 301      13.359  10.107  33.128  0.00  0.00    -0.642 OA
ATOM     13  O32 H1S d 301      18.448   7.651  29.886  0.00  0.00    -0.572 OA
ATOM     14  C4  H1S d 301      19.538  11.315  31.708  0.00  0.00     0.083 C 
ATOM     15  S16 H1S d 301      16.268  13.381  35.868  0.00  0.00     0.251 S 
ATOM     16  C8  H1S d 301      19.932  12.705  31.202  0.00  0.00     0.081 C 
ATOM     17  O30 H1S d 301      22.615  14.408  30.917  0.00  0.00    -0.296 OA
ATOM     18  O23 H1S d 301      14.626  13.130  35.919  0.00  0.00    -0.572 OA
ATOM     19  O35 H1S d 301      13.475   9.516  35.308  0.00  0.00    -0.642 OA
ATOM     20  O31 H1S d 301      17.247   5.667  29.831  0.00  0.00    -0.572 OA
ATOM     21  O22 H1S d 301      16.591  14.500  36.670  0.00  0.00    -0.572 OA
ATOM     22  O3  H1S d 301      18.136  10.188  33.498  0.00  0.00    -0.348 OA
ATOM     23  O33 H1S d 301      19.275   5.732  31.317  0.00  0.00    -0.572 OA
ATOM     24  O18 H1S d 301      17.044   7.044  31.784  0.00  0.00    -0.244 OA
ATOM     25  O21 H1S d 301      16.941  12.235  36.393  0.00  0.00    -0.572 OA
ATOM     26  C19 H1S d 301      15.331   9.033  33.710  0.00  0.00     0.147 C 
ATOM     27  C2  H1S d 301      17.347  12.302  32.449  0.00  0.00     0.091 C 
ATOM     28  C24 H1S d 301      15.863   8.057  34.485  0.00  0.00    -0.034 C 
ATOM     29  C1  H1S d 301      18.579  11.446  32.918  0.00  0.00     0.095 C 
ATOM     30  O28 H1S d 301      23.023  11.926  31.128  0.00  0.00    -0.296 OA
ATOM     31  O11 H1S d 301      16.721  13.648  34.421  0.00  0.00    -0.254 OA
ATOM     32  O25 H1S d 301      18.165   7.873  35.188  0.00  0.00    -0.389 OA
ATOM     33  C12 H1S d 301      17.757   7.828  32.772  0.00  0.00     0.135 C 
ATOM     34  S20 H1S d 301      22.442  12.894  30.263  0.00  0.00     0.156 S 
ATOM     35  S26 H1S d 301      17.983   6.550  30.668  0.00  0.00     0.252 S 
ATOM     36  H   H1S d 301      17.123   6.374  34.217  0.00  0.00     0.093 H 
ATOM     37  H   H1S d 301      20.494  13.197  29.337  0.00  0.00     0.140 HD
ATOM     38  H   H1S d 301      17.813   9.617  31.549  0.00  0.00     0.134 H 
ATOM     39  H   H1S d 301      18.927  14.422  30.428  0.00  0.00     0.131 H 
ATOM     40  H   H1S d 301      17.759  11.840  30.013  0.00  0.00     0.212 HD
ATOM     41  H   H1S d 301      16.377  11.635  34.244  0.00  0.00     0.080 H 
ATOM     42  H   H1S d 301      15.389  12.676  33.219  0.00  0.00     0.080 H 
ATOM     43  H   H1S d 301      22.697  13.501  28.408  0.00  0.00     0.231 HD
ATOM     44  H   H1S d 301      20.422   9.699  32.434  0.00  0.00     0.210 HD
ATOM     45  H   H1S d 301      19.053  10.797  30.907  0.00  0.00     0.089 H 
ATOM     46  H   H1S d 301      20.428  13.256  31.975  0.00  0.00     0.076 H 
ATOM     47  H   H1S d 301      22.217  15.064  30.323  0.00  0.00     0.231 HD
ATOM     48  H   H1S d 301      16.865  11.753  31.667  0.00  0.00     0.090 H 
ATOM     49  H   H1S d 301      15.327   7.721  35.299  0.00  0.00     0.085 H 
ATOM     50  H   H1S d 301      19.124  11.917  33.709  0.00  0.00     0.091 H 
ATOM     51  H   H1S d 301      22.918  11.042  30.742  0.00  0.00     0.231 HD
ATOM     52  H   H1S d 301      18.250   8.839  35.153  0.00  0.00     0.210 HD
ATOM     53  H   H1S d 301      18.810   7.646  32.707  0.00  0.00     0.097 H 
ENDROOT
TORSDOF 16
ENDMDL
MODEL 22
REMARK VINA RESULT:      -5.9      2.890      7.571
REMARK  0 active torsions:
REMARK  status: ('A' for Active; 'I' for Inactive)
REMARK       I    between atoms: C17_1  and  O25_32 
REMARK       I    between atoms: N14_2  and  C8_16 
REMARK       I    between atoms: N14_2  and  S20_34 
REMARK       I    between atoms: C7_3  and  O3_22 
REMARK       I    between atoms: C10_4  and  O15_5 
REMARK       I    between atoms: C6_8  and  C2_27 
REMARK       I    between atoms: C6_8  and  O11_31 
REMARK       I    between atoms: C27_9  and  C19_26 
REMARK       I    between atoms: O29_10  and  S20_34 
REMARK       I    between atoms: O9_11  and  C4_14 
REMARK       I    between atoms: S16_15  and  O11_31 
REMARK       I    between atoms: O30_17  and  S20_34 
REMARK       I    between atoms: O3_22  and  C1_29 
REMARK       I    between atoms: O18_24  and  C12_33 
REMARK       I    between atoms: O18_24  and  S26_35 
REMARK       I    between atoms: O28_30  and  S20_34 
ROOT
ATOM      1  C17 H1S d 301      20.463  10.026  36.676  0.00  0.00     0.086 C 
ATOM      2  N14 H1S d 301      13.276   9.574  38.798  0.00  0.00    -0.210 NA
ATOM      3  C7  H1S d 301      17.945  10.241  36.420  0.00  0.00     0.167 C 
ATOM      4  C10 H1S d 301      13.478   9.045  36.408  0.00  0.00     0.147 C 
ATOM      5  O15 H1S d 301      13.521  10.449  36.090  0.00  0.00    -0.369 OA
ATOM      6  O5  H1S d 301      14.232   8.296  35.418  0.00  0.00    -0.350 OA
ATOM      7  O13 H1S d 301      18.166  10.404  34.977  0.00  0.00    -0.311 OA
ATOM      8  C6  H1S d 301      16.398   7.846  34.333  0.00  0.00     0.067 C 
ATOM      9  C27 H1S d 301      19.367   9.732  32.967  0.00  0.00     0.233 C 
ATOM     10  O29 H1S d 301      11.956   9.730  40.926  0.00  0.00    -0.296 OA
ATOM     11  O9  H1S d 301      16.080   9.094  39.139  0.00  0.00    -0.391 OA
ATOM     12  O34 H1S d 301      18.566  10.299  32.253  0.00  0.00    -0.642 OA
ATOM     13  O32 H1S d 301      17.446  13.037  38.058  0.00  0.00    -0.572 OA
ATOM     14  C4  H1S d 301      15.502   9.280  37.841  0.00  0.00     0.083 C 
ATOM     15  S16 H1S d 301      17.101   5.600  33.821  0.00  0.00     0.251 S 
ATOM     16  C8  H1S d 301      14.045   8.810  37.822  0.00  0.00     0.081 C 
ATOM     17  O30 H1S d 301      12.007   7.446  39.863  0.00  0.00    -0.296 OA
ATOM     18  O23 H1S d 301      17.665   6.091  32.337  0.00  0.00    -0.572 OA
ATOM     19  O35 H1S d 301      20.314   8.872  32.398  0.00  0.00    -0.642 OA
ATOM     20  O31 H1S d 301      19.188  14.476  37.533  0.00  0.00    -0.572 OA
ATOM     21  O22 H1S d 301      16.658   4.260  33.729  0.00  0.00    -0.572 OA
ATOM     22  O3  H1S d 301      17.740   8.823  36.737  0.00  0.00    -0.348 OA
ATOM     23  O33 H1S d 301      19.617  12.777  39.337  0.00  0.00    -0.572 OA
ATOM     24  O18 H1S d 301      19.350  12.202  36.784  0.00  0.00    -0.244 OA
ATOM     25  O21 H1S d 301      18.161   5.664  34.777  0.00  0.00    -0.572 OA
ATOM     26  C19 H1S d 301      19.337   9.969  34.416  0.00  0.00     0.147 C 
ATOM     27  C2  H1S d 301      15.643   8.661  35.408  0.00  0.00     0.091 C 
ATOM     28  C24 H1S d 301      20.446   9.773  35.169  0.00  0.00    -0.034 C 
ATOM     29  C1  H1S d 301      16.330   8.475  36.809  0.00  0.00     0.095 C 
ATOM     30  O28 H1S d 301      13.961   8.570  41.000  0.00  0.00    -0.296 OA
ATOM     31  O11 H1S d 301      15.928   6.492  34.267  0.00  0.00    -0.254 OA
ATOM     32  O25 H1S d 301      20.537   8.770  37.363  0.00  0.00    -0.389 OA
ATOM     33  C12 H1S d 301      19.196  10.811  37.153  0.00  0.00     0.135 C 
ATOM     34  S20 H1S d 301      12.814   8.853  40.209  0.00  0.00     0.156 S 
ATOM     35  S26 H1S d 301      18.862  13.142  37.903  0.00  0.00     0.252 S 
ATOM     36  H   H1S d 301      21.319  10.627  36.901  0.00  0.00     0.093 H 
ATOM     37  H   H1S d 301      12.424   9.882  38.329  0.00  0.00     0.140 HD
ATOM     38  H   H1S d 301      17.069  10.767  36.738  0.00  0.00     0.134 H 
ATOM     39  H   H1S d 301      12.464   8.704  36.392  0.00  0.00     0.131 H 
ATOM     40  H   H1S d 301      14.441  10.756  36.106  0.00  0.00     0.212 HD
ATOM     41  H   H1S d 301      17.441   7.840  34.571  0.00  0.00     0.080 H 
ATOM     42  H   H1S d 301      16.225   8.307  33.383  0.00  0.00     0.080 H 
ATOM     43  H   H1S d 301      11.172   9.926  40.389  0.00  0.00     0.231 HD
ATOM     44  H   H1S d 301      17.001   9.398  39.129  0.00  0.00     0.210 HD
ATOM     45  H   H1S d 301      15.517  10.322  37.595  0.00  0.00     0.089 H 
ATOM     46  H   H1S d 301      13.986   7.771  38.071  0.00  0.00     0.076 H 
ATOM     47  H   H1S d 301      11.227   7.645  39.324  0.00  0.00     0.231 HD
ATOM     48  H   H1S d 301      15.692   9.703  35.173  0.00  0.00     0.090 H 
ATOM     49  H   H1S d 301      21.308   9.442  34.709  0.00  0.00     0.085 H 
ATOM     50  H   H1S d 301      16.333   7.454  37.128  0.00  0.00     0.091 H 
ATOM     51  H   H1S d 301      14.429   9.396  41.199  0.00  0.00     0.231 HD
ATOM     52  H   H1S d 301      19.755   8.237  37.149  0.00  0.00     0.210 HD
ATOM     53  H   H1S d 301      19.080  10.714  38.213  0.00  0.00     0.097 H 
ENDROOT
TORSDOF 16
ENDMDL
MODEL 23
REMARK VINA RESULT:      -5.8      2.014      6.085
REMARK  0 active torsions:
REMARK  status: ('A' for Active; 'I' for Inactive)
REMARK       I    between atoms: C17_1  and  O25_32 
REMARK       I    between atoms: N14_2  and  C8_16 
REMARK       I    between atoms: N14_2  and  S20_34 
REMARK       I    between atoms: C7_3  and  O3_22 
REMARK       I    between atoms: C10_4  and  O15_5 
REMARK       I    between atoms: C6_8  and  C2_27 
REMARK       I    between atoms: C6_8  and  O11_31 
REMARK       I    between atoms: C27_9  and  C19_26 
REMARK       I    between atoms: O29_10  and  S20_34 
REMARK       I    between atoms: O9_11  and  C4_14 
REMARK       I    between atoms: S16_15  and  O11_31 
REMARK       I    between atoms: O30_17  and  S20_34 
REMARK       I    between atoms: O3_22  and  C1_29 
REMARK       I    between atoms: O18_24  and  C12_33 
REMARK       I    between atoms: O18_24  and  S26_35 
REMARK       I    between atoms: O28_30  and  S20_34 
ROOT
ATOM      1  C17 H1S d 301      14.947  12.217  34.028  0.00  0.00     0.086 C 
ATOM      2  N14 H1S d 301      18.722   5.775  33.244  0.00  0.00    -0.210 NA
ATOM      3  C7  H1S d 301      16.694  10.461  34.594  0.00  0.00     0.167 C 
ATOM      4  C10 H1S d 301      18.504   6.334  35.625  0.00  0.00     0.147 C 
ATOM      5  O15 H1S d 301      19.614   7.247  35.523  0.00  0.00    -0.369 OA
ATOM      6  O5  H1S d 301      17.591   6.787  36.659  0.00  0.00    -0.350 OA
ATOM      7  O13 H1S d 301      16.877  11.146  35.881  0.00  0.00    -0.311 OA
ATOM      8  C6  H1S d 301      16.057   8.530  37.483  0.00  0.00     0.067 C 
ATOM      9  C27 H1S d 301      15.886  12.287  37.791  0.00  0.00     0.233 C 
ATOM     10  O29 H1S d 301      19.370   4.218  31.386  0.00  0.00    -0.296 OA
ATOM     11  O9  H1S d 301      16.583   7.579  32.628  0.00  0.00    -0.391 OA
ATOM     12  O34 H1S d 301      16.914  12.193  38.429  0.00  0.00    -0.642 OA
ATOM     13  O32 H1S d 301      18.957  11.164  32.329  0.00  0.00    -0.572 OA
ATOM     14  C4  H1S d 301      17.255   7.615  33.893  0.00  0.00     0.083 C 
ATOM     15  S16 H1S d 301      13.945   7.965  38.496  0.00  0.00     0.251 S 
ATOM     16  C8  H1S d 301      17.786   6.228  34.267  0.00  0.00     0.081 C 
ATOM     17  O30 H1S d 301      17.702   3.288  33.030  0.00  0.00    -0.296 OA
ATOM     18  O23 H1S d 301      14.179   9.111  39.676  0.00  0.00    -0.572 OA
ATOM     19  O35 H1S d 301      14.711  12.705  38.428  0.00  0.00    -0.642 OA
ATOM     20  O31 H1S d 301      19.079  13.473  32.154  0.00  0.00    -0.572 OA
ATOM     21  O22 H1S d 301      13.187   6.897  39.029  0.00  0.00    -0.572 OA
ATOM     22  O3  H1S d 301      15.674   9.416  34.726  0.00  0.00    -0.348 OA
ATOM     23  O33 H1S d 301      17.253  12.326  30.860  0.00  0.00    -0.572 OA
ATOM     24  O18 H1S d 301      17.310  12.543  33.481  0.00  0.00    -0.244 OA
ATOM     25  O21 H1S d 301      13.218   8.543  37.410  0.00  0.00    -0.572 OA
ATOM     26  C19 H1S d 301      15.895  11.973  36.356  0.00  0.00     0.147 C 
ATOM     27  C2  H1S d 301      17.011   8.088  36.350  0.00  0.00     0.091 C 
ATOM     28  C24 H1S d 301      14.962  12.502  35.529  0.00  0.00    -0.034 C 
ATOM     29  C1  H1S d 301      16.258   8.107  34.971  0.00  0.00     0.095 C 
ATOM     30  O28 H1S d 301      17.226   5.100  31.337  0.00  0.00    -0.296 OA
ATOM     31  O11 H1S d 301      15.300   7.426  38.001  0.00  0.00    -0.254 OA
ATOM     32  O25 H1S d 301      13.832  11.370  33.721  0.00  0.00    -0.389 OA
ATOM     33  C12 H1S d 301      16.272  11.536  33.548  0.00  0.00     0.135 C 
ATOM     34  S20 H1S d 301      18.256   4.601  32.182  0.00  0.00     0.156 S 
ATOM     35  S26 H1S d 301      18.191  12.365  32.230  0.00  0.00     0.252 S 
ATOM     36  H   H1S d 301      14.860  13.152  33.514  0.00  0.00     0.093 H 
ATOM     37  H   H1S d 301      19.547   5.425  33.731  0.00  0.00     0.140 HD
ATOM     38  H   H1S d 301      17.598   9.985  34.278  0.00  0.00     0.134 H 
ATOM     39  H   H1S d 301      18.864   5.361  35.892  0.00  0.00     0.131 H 
ATOM     40  H   H1S d 301      19.286   8.127  35.281  0.00  0.00     0.212 HD
ATOM     41  H   H1S d 301      15.381   9.265  37.100  0.00  0.00     0.080 H 
ATOM     42  H   H1S d 301      16.648   8.932  38.280  0.00  0.00     0.080 H 
ATOM     43  H   H1S d 301      20.074   3.878  31.958  0.00  0.00     0.231 HD
ATOM     44  H   H1S d 301      16.255   8.466  32.411  0.00  0.00     0.210 HD
ATOM     45  H   H1S d 301      18.090   8.282  33.829  0.00  0.00     0.089 H 
ATOM     46  H   H1S d 301      16.980   5.527  34.334  0.00  0.00     0.076 H 
ATOM     47  H   H1S d 301      18.408   2.952  33.604  0.00  0.00     0.231 HD
ATOM     48  H   H1S d 301      17.824   8.779  36.271  0.00  0.00     0.090 H 
ATOM     49  H   H1S d 301      14.236  13.119  35.927  0.00  0.00     0.085 H 
ATOM     50  H   H1S d 301      15.419   7.443  34.957  0.00  0.00     0.091 H 
ATOM     51  H   H1S d 301      17.555   5.867  30.844  0.00  0.00     0.231 HD
ATOM     52  H   H1S d 301      13.926  10.528  34.194  0.00  0.00     0.210 HD
ATOM     53  H   H1S d 301      16.126  11.082  32.590  0.00  0.00     0.097 H 
ENDROOT
TORSDOF 16
ENDMDL
MODEL 24
REMARK VINA RESULT:      -5.7      3.022      4.586
REMARK  0 active torsions:
REMARK  status: ('A' for Active; 'I' for Inactive)
REMARK       I    between atoms: C17_1  and  O25_32 
REMARK       I    between atoms: N14_2  and  C8_16 
REMARK       I    between atoms: N14_2  and  S20_34 
REMARK       I    between atoms: C7_3  and  O3_22 
REMARK       I    between atoms: C10_4  and  O15_5 
REMARK       I    between atoms: C6_8  and  C2_27 
REMARK       I    between atoms: C6_8  and  O11_31 
REMARK       I    between atoms: C27_9  and  C19_26 
REMARK       I    between atoms: O29_10  and  S20_34 
REMARK       I    between atoms: O9_11  and  C4_14 
REMARK       I    between atoms: S16_15  and  O11_31 
REMARK       I    between atoms: O30_17  and  S20_34 
REMARK       I    between atoms: O3_22  and  C1_29 
REMARK       I    between atoms: O18_24  and  C12_33 
REMARK       I    between atoms: O18_24  and  S26_35 
REMARK       I    between atoms: O28_30  and  S20_34 
ROOT
ATOM      1  C17 H1S d 301      18.095   7.543  39.417  0.00  0.00     0.086 C 
ATOM      2  N14 H1S d 301      19.404   5.777  32.238  0.00  0.00    -0.210 NA
ATOM      3  C7  H1S d 301      17.534   6.676  37.095  0.00  0.00     0.167 C 
ATOM      4  C10 H1S d 301      17.104   6.597  32.493  0.00  0.00     0.147 C 
ATOM      5  O15 H1S d 301      16.682   5.301  32.960  0.00  0.00    -0.369 OA
ATOM      6  O5  H1S d 301      16.269   7.626  33.088  0.00  0.00    -0.350 OA
ATOM      7  O13 H1S d 301      16.118   6.736  37.481  0.00  0.00    -0.311 OA
ATOM      8  C6  H1S d 301      15.479   8.767  35.124  0.00  0.00     0.067 C 
ATOM      9  C27 H1S d 301      14.319   7.925  38.614  0.00  0.00     0.233 C 
ATOM     10  O29 H1S d 301      21.347   5.036  30.834  0.00  0.00    -0.296 OA
ATOM     11  O9  H1S d 301      20.102   6.966  34.750  0.00  0.00    -0.391 OA
ATOM     12  O34 H1S d 301      13.475   7.241  38.073  0.00  0.00    -0.642 OA
ATOM     13  O32 H1S d 301      18.878   3.690  37.268  0.00  0.00    -0.572 OA
ATOM     14  C4  H1S d 301      18.737   6.771  34.365  0.00  0.00     0.083 C 
ATOM     15  S16 H1S d 301      15.232  11.161  35.204  0.00  0.00     0.251 S 
ATOM     16  C8  H1S d 301      18.587   6.823  32.843  0.00  0.00     0.081 C 
ATOM     17  O30 H1S d 301      20.482   7.348  30.330  0.00  0.00    -0.296 OA
ATOM     18  O23 H1S d 301      13.788  11.007  36.012  0.00  0.00    -0.572 OA
ATOM     19  O35 H1S d 301      13.933   9.068  39.325  0.00  0.00    -0.642 OA
ATOM     20  O31 H1S d 301      18.443   2.848  39.385  0.00  0.00    -0.572 OA
ATOM     21  O22 H1S d 301      15.196  12.330  34.408  0.00  0.00    -0.572 OA
ATOM     22  O3  H1S d 301      17.937   7.940  36.471  0.00  0.00    -0.348 OA
ATOM     23  O33 H1S d 301      20.414   4.394  39.154  0.00  0.00    -0.572 OA
ATOM     24  O18 H1S d 301      17.901   5.146  38.962  0.00  0.00    -0.244 OA
ATOM     25  O21 H1S d 301      16.295  11.287  36.149  0.00  0.00    -0.572 OA
ATOM     26  C19 H1S d 301      15.732   7.533  38.525  0.00  0.00     0.147 C 
ATOM     27  C2  H1S d 301      16.393   7.664  34.539  0.00  0.00     0.091 C 
ATOM     28  C24 H1S d 301      16.621   7.943  39.462  0.00  0.00    -0.034 C 
ATOM     29  C1  H1S d 301      17.874   7.879  35.019  0.00  0.00     0.095 C 
ATOM     30  O28 H1S d 301      21.743   6.686  32.414  0.00  0.00    -0.296 OA
ATOM     31  O11 H1S d 301      15.467   9.939  34.297  0.00  0.00    -0.254 OA
ATOM     32  O25 H1S d 301      18.883   8.689  39.071  0.00  0.00    -0.389 OA
ATOM     33  C12 H1S d 301      18.359   6.394  38.387  0.00  0.00     0.135 C 
ATOM     34  S20 H1S d 301      20.805   6.187  31.468  0.00  0.00     0.156 S 
ATOM     35  S26 H1S d 301      18.878   3.994  38.664  0.00  0.00     0.252 S 
ATOM     36  H   H1S d 301      18.368   7.178  40.385  0.00  0.00     0.093 H 
ATOM     37  H   H1S d 301      18.818   5.300  31.554  0.00  0.00     0.140 HD
ATOM     38  H   H1S d 301      17.707   5.899  36.380  0.00  0.00     0.134 H 
ATOM     39  H   H1S d 301      16.998   6.647  31.429  0.00  0.00     0.131 H 
ATOM     40  H   H1S d 301      16.779   5.258  33.924  0.00  0.00     0.212 HD
ATOM     41  H   H1S d 301      15.836   9.032  36.097  0.00  0.00     0.080 H 
ATOM     42  H   H1S d 301      14.482   8.382  35.173  0.00  0.00     0.080 H 
ATOM     43  H   H1S d 301      20.710   4.692  30.189  0.00  0.00     0.231 HD
ATOM     44  H   H1S d 301      20.174   6.929  35.716  0.00  0.00     0.210 HD
ATOM     45  H   H1S d 301      18.412   5.806  34.696  0.00  0.00     0.089 H 
ATOM     46  H   H1S d 301      18.909   7.773  32.469  0.00  0.00     0.076 H 
ATOM     47  H   H1S d 301      19.842   7.002  29.688  0.00  0.00     0.231 HD
ATOM     48  H   H1S d 301      16.083   6.707  34.902  0.00  0.00     0.090 H 
ATOM     49  H   H1S d 301      16.291   8.545  40.231  0.00  0.00     0.085 H 
ATOM     50  H   H1S d 301      18.271   8.821  34.704  0.00  0.00     0.091 H 
ATOM     51  H   H1S d 301      21.929   6.003  33.077  0.00  0.00     0.231 HD
ATOM     52  H   H1S d 301      18.623   9.008  38.192  0.00  0.00     0.210 HD
ATOM     53  H   H1S d 301      19.403   6.340  38.155  0.00  0.00     0.097 H 
ENDROOT
TORSDOF 16
ENDMDL
MODEL 25
REMARK VINA RESULT:      -5.7      3.103      4.598
REMARK  0 active torsions:
REMARK  status: ('A' for Active; 'I' for Inactive)
REMARK       I    between atoms: C17_1  and  O25_32 
REMARK       I    between atoms: N14_2  and  C8_16 
REMARK       I    between atoms: N14_2  and  S20_34 
REMARK       I    between atoms: C7_3  and  O3_22 
REMARK       I    between atoms: C10_4  and  O15_5 
REMARK       I    between atoms: C6_8  and  C2_27 
REMARK       I    between atoms: C6_8  and  O11_31 
REMARK       I    between atoms: C27_9  and  C19_26 
REMARK       I    between atoms: O29_10  and  S20_34 
REMARK       I    between atoms: O9_11  and  C4_14 
REMARK       I    between atoms: S16_15  and  O11_31 
REMARK       I    between atoms: O30_17  and  S20_34 
REMARK       I    between atoms: O3_22  and  C1_29 
REMARK       I    between atoms: O18_24  and  C12_33 
REMARK       I    between atoms: O18_24  and  S26_35 
REMARK       I    between atoms: O28_30  and  S20_34 
ROOT
ATOM      1  C17 H1S d 301      20.528   5.430  33.638  0.00  0.00     0.086 C 
ATOM      2  N14 H1S d 301      14.021   8.969  34.864  0.00  0.00    -0.210 NA
ATOM      3  C7  H1S d 301      18.470   6.125  34.957  0.00  0.00     0.167 C 
ATOM      4  C10 H1S d 301      15.326   8.874  36.941  0.00  0.00     0.147 C 
ATOM      5  O15 H1S d 301      14.883   7.523  37.170  0.00  0.00    -0.369 OA
ATOM      6  O5  H1S d 301      16.642   9.062  37.526  0.00  0.00    -0.350 OA
ATOM      7  O13 H1S d 301      19.133   5.594  36.155  0.00  0.00    -0.311 OA
ATOM      8  C6  H1S d 301      19.024   8.433  37.575  0.00  0.00     0.067 C 
ATOM      9  C27 H1S d 301      21.173   5.333  37.462  0.00  0.00     0.233 C 
ATOM     10  O29 H1S d 301      12.059   9.766  33.517  0.00  0.00    -0.296 OA
ATOM     11  O9  H1S d 301      16.393   8.425  33.352  0.00  0.00    -0.391 OA
ATOM     12  O34 H1S d 301      20.547   4.971  38.437  0.00  0.00    -0.642 OA
ATOM     13  O32 H1S d 301      16.241   4.126  33.621  0.00  0.00    -0.572 OA
ATOM     14  C4  H1S d 301      16.336   8.203  34.766  0.00  0.00     0.083 C 
ATOM     15  S16 H1S d 301      20.756  10.093  37.792  0.00  0.00     0.251 S 
ATOM     16  C8  H1S d 301      15.351   9.168  35.430  0.00  0.00     0.081 C 
ATOM     17  O30 H1S d 301      13.484  11.589  34.515  0.00  0.00    -0.296 OA
ATOM     18  O23 H1S d 301      21.575   9.129  38.869  0.00  0.00    -0.572 OA
ATOM     19  O35 H1S d 301      22.534   5.637  37.586  0.00  0.00    -0.642 OA
ATOM     20  O31 H1S d 301      17.254   2.065  33.298  0.00  0.00    -0.572 OA
ATOM     21  O22 H1S d 301      21.000  11.450  38.105  0.00  0.00    -0.572 OA
ATOM     22  O3  H1S d 301      18.787   7.548  34.800  0.00  0.00    -0.348 OA
ATOM     23  O33 H1S d 301      17.641   3.816  31.534  0.00  0.00    -0.572 OA
ATOM     24  O18 H1S d 301      18.644   3.902  33.964  0.00  0.00    -0.244 OA
ATOM     25  O21 H1S d 301      21.231   9.838  36.469  0.00  0.00    -0.572 OA
ATOM     26  C19 H1S d 301      20.493   5.432  36.163  0.00  0.00     0.147 C 
ATOM     27  C2  H1S d 301      17.646   8.203  36.912  0.00  0.00     0.091 C 
ATOM     28  C24 H1S d 301      21.197   5.352  35.009  0.00  0.00    -0.034 C 
ATOM     29  C1  H1S d 301      17.753   8.405  35.357  0.00  0.00     0.095 C 
ATOM     30  O28 H1S d 301      14.170  10.079  32.611  0.00  0.00    -0.296 OA
ATOM     31  O11 H1S d 301      19.243   9.818  37.876  0.00  0.00    -0.254 OA
ATOM     32  O25 H1S d 301      20.863   6.681  33.023  0.00  0.00    -0.389 OA
ATOM     33  C12 H1S d 301      18.972   5.295  33.738  0.00  0.00     0.135 C 
ATOM     34  S20 H1S d 301      13.411  10.088  33.814  0.00  0.00     0.156 S 
ATOM     35  S26 H1S d 301      17.416   3.469  33.143  0.00  0.00     0.252 S 
ATOM     36  H   H1S d 301      20.886   4.614  33.047  0.00  0.00     0.093 H 
ATOM     37  H   H1S d 301      13.370   8.912  35.647  0.00  0.00     0.140 HD
ATOM     38  H   H1S d 301      17.406   6.043  35.037  0.00  0.00     0.134 H 
ATOM     39  H   H1S d 301      14.647   9.558  37.407  0.00  0.00     0.131 H 
ATOM     40  H   H1S d 301      15.499   6.904  36.748  0.00  0.00     0.212 HD
ATOM     41  H   H1S d 301      19.790   8.098  36.907  0.00  0.00     0.080 H 
ATOM     42  H   H1S d 301      19.049   7.883  38.492  0.00  0.00     0.080 H 
ATOM     43  H   H1S d 301      11.539   9.770  34.335  0.00  0.00     0.231 HD
ATOM     44  H   H1S d 301      17.022   7.804  32.952  0.00  0.00     0.210 HD
ATOM     45  H   H1S d 301      15.997   7.205  34.952  0.00  0.00     0.089 H 
ATOM     46  H   H1S d 301      15.651  10.182  35.260  0.00  0.00     0.076 H 
ATOM     47  H   H1S d 301      12.965  11.589  35.334  0.00  0.00     0.231 HD
ATOM     48  H   H1S d 301      17.331   7.193  37.074  0.00  0.00     0.090 H 
ATOM     49  H   H1S d 301      22.221   5.233  35.058  0.00  0.00     0.085 H 
ATOM     50  H   H1S d 301      18.070   9.394  35.097  0.00  0.00     0.091 H 
ATOM     51  H   H1S d 301      14.124   9.199  32.206  0.00  0.00     0.231 HD
ATOM     52  H   H1S d 301      20.531   7.411  33.570  0.00  0.00     0.210 HD
ATOM     53  H   H1S d 301      18.513   5.647  32.837  0.00  0.00     0.097 H 
ENDROOT
TORSDOF 16
ENDMDL
MODEL 26
REMARK VINA RESULT:      -5.7      3.003      7.519
REMARK  0 active torsions:
REMARK  status: ('A' for Active; 'I' for Inactive)
REMARK       I    between atoms: C17_1  and  O25_32 
REMARK       I    between atoms: N14_2  and  C8_16 
REMARK       I    between atoms: N14_2  and  S20_34 
REMARK       I    between atoms: C7_3  and  O3_22 
REMARK       I    between atoms: C10_4  and  O15_5 
REMARK       I    between atoms: C6_8  and  C2_27 
REMARK       I    between atoms: C6_8  and  O11_31 
REMARK       I    between atoms: C27_9  and  C19_26 
REMARK       I    between atoms: O29_10  and  S20_34 
REMARK       I    between atoms: O9_11  and  C4_14 
REMARK       I    between atoms: S16_15  and  O11_31 
REMARK       I    between atoms: O30_17  and  S20_34 
REMARK       I    between atoms: O3_22  and  C1_29 
REMARK       I    between atoms: O18_24  and  C12_33 
REMARK       I    between atoms: O18_24  and  S26_35 
REMARK       I    between atoms: O28_30  and  S20_34 
ROOT
ATOM      1  C17 H1S d 301      16.351  12.446  33.588  0.00  0.00     0.086 C 
ATOM      2  N14 H1S d 301      17.052   6.070  37.490  0.00  0.00    -0.210 NA
ATOM      3  C7  H1S d 301      16.663   9.947  33.924  0.00  0.00     0.167 C 
ATOM      4  C10 H1S d 301      18.459   5.981  35.480  0.00  0.00     0.147 C 
ATOM      5  O15 H1S d 301      17.314   5.620  34.682  0.00  0.00    -0.369 OA
ATOM      6  O5  H1S d 301      19.412   6.713  34.664  0.00  0.00    -0.350 OA
ATOM      7  O13 H1S d 301      17.062   9.869  32.513  0.00  0.00    -0.311 OA
ATOM      8  C6  H1S d 301      19.909   8.701  33.297  0.00  0.00     0.067 C 
ATOM      9  C27 H1S d 301      18.286  10.831  30.639  0.00  0.00     0.233 C 
ATOM     10  O29 H1S d 301      16.264   5.141  39.684  0.00  0.00    -0.296 OA
ATOM     11  O9  H1S d 301      16.899   8.921  37.252  0.00  0.00    -0.391 OA
ATOM     12  O34 H1S d 301      18.190   9.805  30.000  0.00  0.00    -0.642 OA
ATOM     13  O32 H1S d 301      13.563   9.067  34.527  0.00  0.00    -0.572 OA
ATOM     14  C4  H1S d 301      17.346   8.100  36.167  0.00  0.00     0.083 C 
ATOM     15  S16 H1S d 301      22.027   9.837  33.458  0.00  0.00     0.251 S 
ATOM     16  C8  H1S d 301      18.010   6.823  36.689  0.00  0.00     0.081 C 
ATOM     17  O30 H1S d 301      18.743   5.569  39.530  0.00  0.00    -0.296 OA
ATOM     18  O23 H1S d 301      22.093   9.996  31.806  0.00  0.00    -0.572 OA
ATOM     19  O35 H1S d 301      19.139  11.849  30.193  0.00  0.00    -0.642 OA
ATOM     20  O31 H1S d 301      12.200  10.282  33.097  0.00  0.00    -0.572 OA
ATOM     21  O22 H1S d 301      23.343   9.728  33.967  0.00  0.00    -0.572 OA
ATOM     22  O3  H1S d 301      17.845  10.156  34.767  0.00  0.00    -0.348 OA
ATOM     23  O33 H1S d 301      12.935  11.422  35.215  0.00  0.00    -0.572 OA
ATOM     24  O18 H1S d 301      14.524  10.867  33.193  0.00  0.00    -0.244 OA
ATOM     25  O21 H1S d 301      21.415  10.997  34.025  0.00  0.00    -0.572 OA
ATOM     26  C19 H1S d 301      17.493  10.996  31.865  0.00  0.00     0.147 C 
ATOM     27  C2  H1S d 301      18.862   7.966  34.165  0.00  0.00     0.091 C 
ATOM     28  C24 H1S d 301      17.189  12.231  32.329  0.00  0.00    -0.034 C 
ATOM     29  C1  H1S d 301      18.355   8.910  35.315  0.00  0.00     0.095 C 
ATOM     30  O28 H1S d 301      16.960   7.352  39.652  0.00  0.00    -0.296 OA
ATOM     31  O11 H1S d 301      21.231   8.575  33.840  0.00  0.00    -0.254 OA
ATOM     32  O25 H1S d 301      17.195  12.945  34.635  0.00  0.00    -0.389 OA
ATOM     33  C12 H1S d 301      15.654  11.127  34.061  0.00  0.00     0.135 C 
ATOM     34  S20 H1S d 301      17.206   6.052  39.133  0.00  0.00     0.156 S 
ATOM     35  S26 H1S d 301      13.305  10.364  33.988  0.00  0.00     0.252 S 
ATOM     36  H   H1S d 301      15.582  13.153  33.358  0.00  0.00     0.093 H 
ATOM     37  H   H1S d 301      17.098   5.101  37.176  0.00  0.00     0.140 HD
ATOM     38  H   H1S d 301      16.201   9.038  34.246  0.00  0.00     0.134 H 
ATOM     39  H   H1S d 301      18.934   5.094  35.845  0.00  0.00     0.131 H 
ATOM     40  H   H1S d 301      16.885   6.425  34.352  0.00  0.00     0.212 HD
ATOM     41  H   H1S d 301      19.652   9.738  33.247  0.00  0.00     0.080 H 
ATOM     42  H   H1S d 301      19.904   8.258  32.323  0.00  0.00     0.080 H 
ATOM     43  H   H1S d 301      16.429   4.253  39.331  0.00  0.00     0.231 HD
ATOM     44  H   H1S d 301      16.482   9.723  36.900  0.00  0.00     0.210 HD
ATOM     45  H   H1S d 301      16.504   7.815  35.570  0.00  0.00     0.089 H 
ATOM     46  H   H1S d 301      18.856   7.066  37.298  0.00  0.00     0.076 H 
ATOM     47  H   H1S d 301      18.905   4.682  39.173  0.00  0.00     0.231 HD
ATOM     48  H   H1S d 301      18.009   7.716  33.569  0.00  0.00     0.090 H 
ATOM     49  H   H1S d 301      17.536  13.056  31.813  0.00  0.00     0.085 H 
ATOM     50  H   H1S d 301      19.147   9.219  35.965  0.00  0.00     0.091 H 
ATOM     51  H   H1S d 301      16.060   7.630  39.417  0.00  0.00     0.231 HD
ATOM     52  H   H1S d 301      17.886  12.294  34.832  0.00  0.00     0.210 HD
ATOM     53  H   H1S d 301      15.333  11.223  35.077  0.00  0.00     0.097 H 
ENDROOT
TORSDOF 16
ENDMDL
MODEL 27
REMARK VINA RESULT:      -5.7      2.975      6.471
REMARK  0 active torsions:
REMARK  status: ('A' for Active; 'I' for Inactive)
REMARK       I    between atoms: C17_1  and  O25_32 
REMARK       I    between atoms: N14_2  and  C8_16 
REMARK       I    between atoms: N14_2  and  S20_34 
REMARK       I    between atoms: C7_3  and  O3_22 
REMARK       I    between atoms: C10_4  and  O15_5 
REMARK       I    between atoms: C6_8  and  C2_27 
REMARK       I    between atoms: C6_8  and  O11_31 
REMARK       I    between atoms: C27_9  and  C19_26 
REMARK       I    between atoms: O29_10  and  S20_34 
REMARK       I    between atoms: O9_11  and  C4_14 
REMARK       I    between atoms: S16_15  and  O11_31 
REMARK       I    between atoms: O30_17  and  S20_34 
REMARK       I    between atoms: O3_22  and  C1_29 
REMARK       I    between atoms: O18_24  and  C12_33 
REMARK       I    between atoms: O18_24  and  S26_35 
REMARK       I    between atoms: O28_30  and  S20_34 
ROOT
ATOM      1  C17 H1S d 301      13.762  10.352  33.535  0.00  0.00     0.086 C 
ATOM      2  N14 H1S d 301      18.770   7.218  38.167  0.00  0.00    -0.210 NA
ATOM      3  C7  H1S d 301      15.587  10.309  35.302  0.00  0.00     0.167 C 
ATOM      4  C10 H1S d 301      17.800   9.217  39.212  0.00  0.00     0.147 C 
ATOM      5  O15 H1S d 301      18.698  10.057  38.461  0.00  0.00    -0.369 OA
ATOM      6  O5  H1S d 301      16.567   9.936  39.481  0.00  0.00    -0.350 OA
ATOM      7  O13 H1S d 301      15.273  11.717  35.574  0.00  0.00    -0.311 OA
ATOM      8  C6  H1S d 301      14.560  11.059  38.598  0.00  0.00     0.067 C 
ATOM      9  C27 H1S d 301      13.593  13.459  35.852  0.00  0.00     0.233 C 
ATOM     10  O29 H1S d 301      20.193   5.151  38.238  0.00  0.00    -0.296 OA
ATOM     11  O9  H1S d 301      16.579   7.122  36.323  0.00  0.00    -0.391 OA
ATOM     12  O34 H1S d 301      14.402  14.214  36.348  0.00  0.00    -0.642 OA
ATOM     13  O32 H1S d 301      18.210   9.830  33.393  0.00  0.00    -0.572 OA
ATOM     14  C4  H1S d 301      16.856   8.293  37.100  0.00  0.00     0.083 C 
ATOM     15  S16 H1S d 301      12.401  10.754  39.620  0.00  0.00     0.251 S 
ATOM     16  C8  H1S d 301      17.519   7.920  38.429  0.00  0.00     0.081 C 
ATOM     17  O30 H1S d 301      18.346   5.240  39.951  0.00  0.00    -0.296 OA
ATOM     18  O23 H1S d 301      12.075  12.376  39.468  0.00  0.00    -0.572 OA
ATOM     19  O35 H1S d 301      12.230  13.778  35.895  0.00  0.00    -0.642 OA
ATOM     20  O31 H1S d 301      17.929  11.116  31.483  0.00  0.00    -0.572 OA
ATOM     21  O22 H1S d 301      11.744  10.255  40.769  0.00  0.00    -0.572 OA
ATOM     22  O3  H1S d 301      14.791   9.441  36.176  0.00  0.00    -0.348 OA
ATOM     23  O33 H1S d 301      16.787   8.875  31.528  0.00  0.00    -0.572 OA
ATOM     24  O18 H1S d 301      16.075  10.939  32.995  0.00  0.00    -0.244 OA
ATOM     25  O21 H1S d 301      11.904  10.060  38.474  0.00  0.00    -0.572 OA
ATOM     26  C19 H1S d 301      14.058  12.227  35.201  0.00  0.00     0.147 C 
ATOM     27  C2  H1S d 301      15.857  10.288  38.258  0.00  0.00     0.091 C 
ATOM     28  C24 H1S d 301      13.306  11.624  34.250  0.00  0.00    -0.034 C 
ATOM     29  C1  H1S d 301      15.525   9.039  37.365  0.00  0.00     0.095 C 
ATOM     30  O28 H1S d 301      18.018   4.921  37.469  0.00  0.00    -0.296 OA
ATOM     31  O11 H1S d 301      13.917  10.527  39.765  0.00  0.00    -0.254 OA
ATOM     32  O25 H1S d 301      12.959   9.250  33.979  0.00  0.00    -0.389 OA
ATOM     33  C12 H1S d 301      15.273  10.041  33.799  0.00  0.00     0.135 C 
ATOM     34  S20 H1S d 301      18.851   5.587  38.410  0.00  0.00     0.156 S 
ATOM     35  S26 H1S d 301      17.285  10.215  32.375  0.00  0.00     0.252 S 
ATOM     36  H   H1S d 301      13.642  10.503  32.483  0.00  0.00     0.093 H 
ATOM     37  H   H1S d 301      19.480   7.642  38.764  0.00  0.00     0.140 HD
ATOM     38  H   H1S d 301      16.618  10.098  35.498  0.00  0.00     0.134 H 
ATOM     39  H   H1S d 301      18.252   8.954  40.146  0.00  0.00     0.131 H 
ATOM     40  H   H1S d 301      18.287  10.294  37.615  0.00  0.00     0.212 HD
ATOM     41  H   H1S d 301      13.888  10.989  37.769  0.00  0.00     0.080 H 
ATOM     42  H   H1S d 301      14.820  12.078  38.795  0.00  0.00     0.080 H 
ATOM     43  H   H1S d 301      20.763   5.604  38.878  0.00  0.00     0.231 HD
ATOM     44  H   H1S d 301      16.161   7.380  35.487  0.00  0.00     0.210 HD
ATOM     45  H   H1S d 301      17.532   8.923  36.559  0.00  0.00     0.089 H 
ATOM     46  H   H1S d 301      16.877   7.282  38.999  0.00  0.00     0.076 H 
ATOM     47  H   H1S d 301      18.917   5.697  40.588  0.00  0.00     0.231 HD
ATOM     48  H   H1S d 301      16.511  10.914  37.689  0.00  0.00     0.090 H 
ATOM     49  H   H1S d 301      12.395  12.037  33.999  0.00  0.00     0.085 H 
ATOM     50  H   H1S d 301      14.866   8.352  37.855  0.00  0.00     0.091 H 
ATOM     51  H   H1S d 301      18.317   5.127  36.569  0.00  0.00     0.231 HD
ATOM     52  H   H1S d 301      13.079   9.127  34.934  0.00  0.00     0.210 HD
ATOM     53  H   H1S d 301      15.488   9.022  33.552  0.00  0.00     0.097 H 
ENDROOT
TORSDOF 16
ENDMDL
MODEL 28
REMARK VINA RESULT:      -5.6      1.772      5.890
REMARK  0 active torsions:
REMARK  status: ('A' for Active; 'I' for Inactive)
REMARK       I    between atoms: C17_1  and  O25_32 
REMARK       I    between atoms: N14_2  and  C8_16 
REMARK       I    between atoms: N14_2  and  S20_34 
REMARK       I    between atoms: C7_3  and  O3_22 
REMARK       I    between atoms: C10_4  and  O15_5 
REMARK       I    between atoms: C6_8  and  C2_27 
REMARK       I    between atoms: C6_8  and  O11_31 
REMARK       I    between atoms: C27_9  and  C19_26 
REMARK       I    between atoms: O29_10  and  S20_34 
REMARK       I    between atoms: O9_11  and  C4_14 
REMARK       I    between atoms: S16_15  and  O11_31 
REMARK       I    between atoms: O30_17  and  S20_34 
REMARK       I    between atoms: O3_22  and  C1_29 
REMARK       I    between atoms: O18_24  and  C12_33 
REMARK       I    between atoms: O18_24  and  S26_35 
REMARK       I    between atoms: O28_30  and  S20_34 
ROOT
ATOM      1  C17 H1S d 301      16.542   7.498  38.318  0.00  0.00     0.086 C 
ATOM      2  N14 H1S d 301      18.756  11.506  32.368  0.00  0.00    -0.210 NA
ATOM      3  C7  H1S d 301      18.157   8.318  36.536  0.00  0.00     0.167 C 
ATOM      4  C10 H1S d 301      19.840   9.303  32.344  0.00  0.00     0.147 C 
ATOM      5  O15 H1S d 301      20.822   9.764  33.292  0.00  0.00    -0.369 OA
ATOM      6  O5  H1S d 301      19.632   7.875  32.512  0.00  0.00    -0.350 OA
ATOM      7  O13 H1S d 301      19.037   7.201  36.905  0.00  0.00    -0.311 OA
ATOM      8  C6  H1S d 301      18.908   6.019  33.961  0.00  0.00     0.067 C 
ATOM      9  C27 H1S d 301      19.274   4.858  37.532  0.00  0.00     0.233 C 
ATOM     10  O29 H1S d 301      18.212  13.717  31.313  0.00  0.00    -0.296 OA
ATOM     11  O9  H1S d 301      16.785  10.512  34.194  0.00  0.00    -0.391 OA
ATOM     12  O34 H1S d 301      20.469   4.885  37.325  0.00  0.00    -0.642 OA
ATOM     13  O32 H1S d 301      18.999  11.212  37.825  0.00  0.00    -0.572 OA
ATOM     14  C4  H1S d 301      18.009   9.808  33.954  0.00  0.00     0.083 C 
ATOM     15  S16 H1S d 301      17.568   4.209  33.104  0.00  0.00     0.251 S 
ATOM     16  C8  H1S d 301      18.522  10.076  32.537  0.00  0.00     0.081 C 
ATOM     17  O30 H1S d 301      17.540  11.694  29.968  0.00  0.00    -0.296 OA
ATOM     18  O23 H1S d 301      18.480   3.106  33.947  0.00  0.00    -0.572 OA
ATOM     19  O35 H1S d 301      18.635   3.632  37.750  0.00  0.00    -0.642 OA
ATOM     20  O31 H1S d 301      19.232  10.918  40.114  0.00  0.00    -0.572 OA
ATOM     21  O22 H1S d 301      17.092   3.607  31.917  0.00  0.00    -0.572 OA
ATOM     22  O3  H1S d 301      17.254   7.907  35.456  0.00  0.00    -0.348 OA
ATOM     23  O33 H1S d 301      16.902  11.290  39.243  0.00  0.00    -0.572 OA
ATOM     24  O18 H1S d 301      18.311   9.105  38.841  0.00  0.00    -0.244 OA
ATOM     25  O21 H1S d 301      16.446   4.604  33.896  0.00  0.00    -0.572 OA
ATOM     26  C19 H1S d 301      18.519   6.118  37.565  0.00  0.00     0.147 C 
ATOM     27  C2  H1S d 301      19.102   7.547  33.829  0.00  0.00     0.091 C 
ATOM     28  C24 H1S d 301      17.349   6.202  38.242  0.00  0.00    -0.034 C 
ATOM     29  C1  H1S d 301      17.755   8.292  34.146  0.00  0.00     0.095 C 
ATOM     30  O28 H1S d 301      16.440  12.453  32.110  0.00  0.00    -0.296 OA
ATOM     31  O11 H1S d 301      18.421   5.439  32.741  0.00  0.00    -0.254 OA
ATOM     32  O25 H1S d 301      15.352   7.357  37.529  0.00  0.00    -0.389 OA
ATOM     33  C12 H1S d 301      17.364   8.730  37.812  0.00  0.00     0.135 C 
ATOM     34  S20 H1S d 301      17.704  12.398  31.461  0.00  0.00     0.156 S 
ATOM     35  S26 H1S d 301      18.408  10.635  38.991  0.00  0.00     0.252 S 
ATOM     36  H   H1S d 301      16.294   7.674  39.343  0.00  0.00     0.093 H 
ATOM     37  H   H1S d 301      19.677  11.608  31.941  0.00  0.00     0.140 HD
ATOM     38  H   H1S d 301      18.723   9.152  36.177  0.00  0.00     0.134 H 
ATOM     39  H   H1S d 301      20.192   9.480  31.349  0.00  0.00     0.131 H 
ATOM     40  H   H1S d 301      20.502   9.603  34.193  0.00  0.00     0.212 HD
ATOM     41  H   H1S d 301      18.204   5.825  34.742  0.00  0.00     0.080 H 
ATOM     42  H   H1S d 301      19.858   5.580  34.183  0.00  0.00     0.080 H 
ATOM     43  H   H1S d 301      19.075  13.683  30.871  0.00  0.00     0.231 HD
ATOM     44  H   H1S d 301      16.478  10.329  35.096  0.00  0.00     0.210 HD
ATOM     45  H   H1S d 301      18.753  10.148  34.645  0.00  0.00     0.089 H 
ATOM     46  H   H1S d 301      17.802   9.755  31.813  0.00  0.00     0.076 H 
ATOM     47  H   H1S d 301      18.405  11.659  29.531  0.00  0.00     0.231 HD
ATOM     48  H   H1S d 301      19.821   7.884  34.545  0.00  0.00     0.090 H 
ATOM     49  H   H1S d 301      16.991   5.363  38.724  0.00  0.00     0.085 H 
ATOM     50  H   H1S d 301      16.968   8.013  33.477  0.00  0.00     0.091 H 
ATOM     51  H   H1S d 301      16.542  12.864  32.983  0.00  0.00     0.231 HD
ATOM     52  H   H1S d 301      15.595   7.198  36.603  0.00  0.00     0.210 HD
ATOM     53  H   H1S d 301      16.707   9.546  37.591  0.00  0.00     0.097 H 
ENDROOT
TORSDOF 16
ENDMDL
MODEL 29
REMARK VINA RESULT:      -5.6      2.969      6.703
REMARK  0 active torsions:
REMARK  status: ('A' for Active; 'I' for Inactive)
REMARK       I    between atoms: C17_1  and  O25_32 
REMARK       I    between atoms: N14_2  and  C8_16 
REMARK       I    between atoms: N14_2  and  S20_34 
REMARK       I    between atoms: C7_3  and  O3_22 
REMARK       I    between atoms: C10_4  and  O15_5 
REMARK       I    between atoms: C6_8  and  C2_27 
REMARK       I    between atoms: C6_8  and  O11_31 
REMARK       I    between atoms: C27_9  and  C19_26 
REMARK       I    between atoms: O29_10  and  S20_34 
REMARK       I    between atoms: O9_11  and  C4_14 
REMARK       I    between atoms: S16_15  and  O11_31 
REMARK       I    between atoms: O30_17  and  S20_34 
REMARK       I    between atoms: O3_22  and  C1_29 
REMARK       I    between atoms: O18_24  and  C12_33 
REMARK       I    between atoms: O18_24  and  S26_35 
REMARK       I    between atoms: O28_30  and  S20_34 
ROOT
ATOM      1  C17 H1S d 301      19.262   5.638  38.162  0.00  0.00     0.086 C 
ATOM      2  N14 H1S d 301      14.918  10.245  34.128  0.00  0.00    -0.210 NA
ATOM      3  C7  H1S d 301      18.646   7.130  36.200  0.00  0.00     0.167 C 
ATOM      4  C10 H1S d 301      16.234   8.811  32.632  0.00  0.00     0.147 C 
ATOM      5  O15 H1S d 301      17.376   9.676  32.790  0.00  0.00    -0.369 OA
ATOM      6  O5  H1S d 301      16.681   7.452  32.379  0.00  0.00    -0.350 OA
ATOM      7  O13 H1S d 301      19.792   6.556  35.482  0.00  0.00    -0.311 OA
ATOM      8  C6  H1S d 301      17.905   5.467  33.172  0.00  0.00     0.067 C 
ATOM      9  C27 H1S d 301      21.131   4.598  34.926  0.00  0.00     0.233 C 
ATOM     10  O29 H1S d 301      13.122  11.945  34.551  0.00  0.00    -0.296 OA
ATOM     11  O9  H1S d 301      15.409   8.432  36.292  0.00  0.00    -0.391 OA
ATOM     12  O34 H1S d 301      21.680   5.184  34.017  0.00  0.00    -0.642 OA
ATOM     13  O32 H1S d 301      19.196  10.074  37.534  0.00  0.00    -0.572 OA
ATOM     14  C4  H1S d 301      16.180   8.388  35.085  0.00  0.00     0.083 C 
ATOM     15  S16 H1S d 301      17.040   3.244  32.835  0.00  0.00     0.251 S 
ATOM     16  C8  H1S d 301      15.352   8.872  33.892  0.00  0.00     0.081 C 
ATOM     17  O30 H1S d 301      12.359   9.851  33.375  0.00  0.00    -0.296 OA
ATOM     18  O23 H1S d 301      18.552   2.695  32.419  0.00  0.00    -0.572 OA
ATOM     19  O35 H1S d 301      21.296   3.214  35.058  0.00  0.00    -0.642 OA
ATOM     20  O31 H1S d 301      21.122   9.913  38.816  0.00  0.00    -0.572 OA
ATOM     21  O22 H1S d 301      16.066   2.494  32.136  0.00  0.00    -0.572 OA
ATOM     22  O3  H1S d 301      17.438   6.348  35.919  0.00  0.00    -0.348 OA
ATOM     23  O33 H1S d 301      18.975   9.149  39.881  0.00  0.00    -0.572 OA
ATOM     24  O18 H1S d 301      20.199   7.886  37.925  0.00  0.00    -0.244 OA
ATOM     25  O21 H1S d 301      16.836   3.060  34.237  0.00  0.00    -0.572 OA
ATOM     26  C19 H1S d 301      20.312   5.354  35.883  0.00  0.00     0.147 C 
ATOM     27  C2  H1S d 301      17.444   6.907  33.494  0.00  0.00     0.091 C 
ATOM     28  C24 H1S d 301      20.091   4.875  37.130  0.00  0.00    -0.034 C 
ATOM     29  C1  H1S d 301      16.645   6.930  34.847  0.00  0.00     0.095 C 
ATOM     30  O28 H1S d 301      13.054   9.992  35.798  0.00  0.00    -0.296 OA
ATOM     31  O11 H1S d 301      16.894   4.732  32.467  0.00  0.00    -0.254 OA
ATOM     32  O25 H1S d 301      18.015   4.958  38.359  0.00  0.00    -0.389 OA
ATOM     33  C12 H1S d 301      18.990   7.114  37.720  0.00  0.00     0.135 C 
ATOM     34  S20 H1S d 301      13.342  10.542  34.518  0.00  0.00     0.156 S 
ATOM     35  S26 H1S d 301      19.889   9.281  38.499  0.00  0.00     0.252 S 
ATOM     36  H   H1S d 301      19.819   5.672  39.075  0.00  0.00     0.093 H 
ATOM     37  H   H1S d 301      15.117  10.770  33.277  0.00  0.00     0.140 HD
ATOM     38  H   H1S d 301      18.456   8.134  35.883  0.00  0.00     0.134 H 
ATOM     39  H   H1S d 301      15.651   9.138  31.796  0.00  0.00     0.131 H 
ATOM     40  H   H1S d 301      17.903   9.378  33.548  0.00  0.00     0.212 HD
ATOM     41  H   H1S d 301      18.125   4.961  34.089  0.00  0.00     0.080 H 
ATOM     42  H   H1S d 301      18.772   5.525  32.549  0.00  0.00     0.080 H 
ATOM     43  H   H1S d 301      13.318  12.323  33.680  0.00  0.00     0.231 HD
ATOM     44  H   H1S d 301      15.952   8.122  37.033  0.00  0.00     0.210 HD
ATOM     45  H   H1S d 301      17.027   9.035  35.184  0.00  0.00     0.089 H 
ATOM     46  H   H1S d 301      14.488   8.254  33.763  0.00  0.00     0.076 H 
ATOM     47  H   H1S d 301      12.560  10.229  32.505  0.00  0.00     0.231 HD
ATOM     48  H   H1S d 301      18.297   7.539  33.625  0.00  0.00     0.090 H 
ATOM     49  H   H1S d 301      20.498   3.963  37.393  0.00  0.00     0.085 H 
ATOM     50  H   H1S d 301      15.769   6.316  34.813  0.00  0.00     0.091 H 
ATOM     51  H   H1S d 301      13.631  10.399  36.463  0.00  0.00     0.231 HD
ATOM     52  H   H1S d 301      17.523   4.936  37.523  0.00  0.00     0.210 HD
ATOM     53  H   H1S d 301      18.181   7.526  38.286  0.00  0.00     0.097 H 
ENDROOT
TORSDOF 16
ENDMDL
MODEL 30
REMARK VINA RESULT:      -5.6      2.878      6.742
REMARK  0 active torsions:
REMARK  status: ('A' for Active; 'I' for Inactive)
REMARK       I    between atoms: C17_1  and  O25_32 
REMARK       I    between atoms: N14_2  and  C8_16 
REMARK       I    between atoms: N14_2  and  S20_34 
REMARK       I    between atoms: C7_3  and  O3_22 
REMARK       I    between atoms: C10_4  and  O15_5 
REMARK       I    between atoms: C6_8  and  C2_27 
REMARK       I    between atoms: C6_8  and  O11_31 
REMARK       I    between atoms: C27_9  and  C19_26 
REMARK       I    between atoms: O29_10  and  S20_34 
REMARK       I    between atoms: O9_11  and  C4_14 
REMARK       I    between atoms: S16_15  and  O11_31 
REMARK       I    between atoms: O30_17  and  S20_34 
REMARK       I    between atoms: O3_22  and  C1_29 
REMARK       I    between atoms: O18_24  and  C12_33 
REMARK       I    between atoms: O18_24  and  S26_35 
REMARK       I    between atoms: O28_30  and  S20_34 
ROOT
ATOM      1  C17 H1S d 301      17.614   6.120  30.388  0.00  0.00     0.086 C 
ATOM      2  N14 H1S d 301      16.359   7.865  37.581  0.00  0.00    -0.210 NA
ATOM      3  C7  H1S d 301      18.233   6.729  32.776  0.00  0.00     0.167 C 
ATOM      4  C10 H1S d 301      18.327   9.079  36.756  0.00  0.00     0.147 C 
ATOM      5  O15 H1S d 301      19.145   7.910  36.958  0.00  0.00    -0.369 OA
ATOM      6  O5  H1S d 301      18.863   9.867  35.661  0.00  0.00    -0.350 OA
ATOM      7  O13 H1S d 301      19.593   7.000  32.290  0.00  0.00    -0.311 OA
ATOM      8  C6  H1S d 301      19.429  10.017  33.267  0.00  0.00     0.067 C 
ATOM      9  C27 H1S d 301      21.040   7.932  30.567  0.00  0.00     0.233 C 
ATOM     10  O29 H1S d 301      14.622   7.391  39.330  0.00  0.00    -0.296 OA
ATOM     11  O9  H1S d 301      15.528   7.385  34.882  0.00  0.00    -0.391 OA
ATOM     12  O34 H1S d 301      22.006   7.887  31.300  0.00  0.00    -0.642 OA
ATOM     13  O32 H1S d 301      17.846   3.812  34.221  0.00  0.00    -0.572 OA
ATOM     14  C4  H1S d 301      16.858   7.814  35.193  0.00  0.00     0.083 C 
ATOM     15  S16 H1S d 301      18.965  12.006  31.991  0.00  0.00     0.251 S 
ATOM     16  C8  H1S d 301      16.873   8.658  36.470  0.00  0.00     0.081 C 
ATOM     17  O30 H1S d 301      14.728   9.784  38.546  0.00  0.00    -0.296 OA
ATOM     18  O23 H1S d 301      20.446  11.899  31.244  0.00  0.00    -0.572 OA
ATOM     19  O35 H1S d 301      21.123   8.624  29.353  0.00  0.00    -0.642 OA
ATOM     20  O31 H1S d 301      18.663   2.198  32.770  0.00  0.00    -0.572 OA
ATOM     21  O22 H1S d 301      18.597  13.368  32.097  0.00  0.00    -0.572 OA
ATOM     22  O3  H1S d 301      17.431   7.956  32.725  0.00  0.00    -0.348 OA
ATOM     23  O33 H1S d 301      16.313   3.002  32.375  0.00  0.00    -0.572 OA
ATOM     24  O18 H1S d 301      18.472   4.444  31.951  0.00  0.00    -0.244 OA
ATOM     25  O21 H1S d 301      17.985  11.329  31.204  0.00  0.00    -0.572 OA
ATOM     26  C19 H1S d 301      19.802   7.244  30.960  0.00  0.00     0.147 C 
ATOM     27  C2  H1S d 301      18.841   9.141  34.397  0.00  0.00     0.091 C 
ATOM     28  C24 H1S d 301      18.904   6.854  30.024  0.00  0.00    -0.034 C 
ATOM     29  C1  H1S d 301      17.402   8.646  34.004  0.00  0.00     0.095 C 
ATOM     30  O28 H1S d 301      13.875   7.839  37.181  0.00  0.00    -0.296 OA
ATOM     31  O11 H1S d 301      19.034  11.390  33.401  0.00  0.00    -0.254 OA
ATOM     32  O25 H1S d 301      16.500   7.000  30.187  0.00  0.00    -0.389 OA
ATOM     33  C12 H1S d 301      17.625   5.617  31.870  0.00  0.00     0.135 C 
ATOM     34  S20 H1S d 301      14.846   8.175  38.165  0.00  0.00     0.156 S 
ATOM     35  S26 H1S d 301      17.859   3.366  32.864  0.00  0.00     0.252 S 
ATOM     36  H   H1S d 301      17.532   5.261  29.755  0.00  0.00     0.093 H 
ATOM     37  H   H1S d 301      17.007   7.986  38.359  0.00  0.00     0.140 HD
ATOM     38  H   H1S d 301      18.245   6.399  33.794  0.00  0.00     0.134 H 
ATOM     39  H   H1S d 301      18.335   9.679  37.643  0.00  0.00     0.131 H 
ATOM     40  H   H1S d 301      19.137   7.367  36.155  0.00  0.00     0.212 HD
ATOM     41  H   H1S d 301      19.083   9.646  32.326  0.00  0.00     0.080 H 
ATOM     42  H   H1S d 301      20.496   9.968  33.329  0.00  0.00     0.080 H 
ATOM     43  H   H1S d 301      15.283   7.617  40.003  0.00  0.00     0.231 HD
ATOM     44  H   H1S d 301      15.541   6.853  34.070  0.00  0.00     0.210 HD
ATOM     45  H   H1S d 301      17.476   6.956  35.356  0.00  0.00     0.089 H 
ATOM     46  H   H1S d 301      16.259   9.526  36.350  0.00  0.00     0.076 H 
ATOM     47  H   H1S d 301      15.392  10.007  39.217  0.00  0.00     0.231 HD
ATOM     48  H   H1S d 301      19.445   8.268  34.531  0.00  0.00     0.090 H 
ATOM     49  H   H1S d 301      19.098   7.060  29.031  0.00  0.00     0.085 H 
ATOM     50  H   H1S d 301      16.723   9.457  33.845  0.00  0.00     0.091 H 
ATOM     51  H   H1S d 301      13.948   6.897  36.962  0.00  0.00     0.231 HD
ATOM     52  H   H1S d 301      16.589   7.773  30.767  0.00  0.00     0.210 HD
ATOM     53  H   H1S d 301      16.630   5.384  32.187  0.00  0.00     0.097 H 
ENDROOT
TORSDOF 16
ENDMDL
MODEL 31
REMARK VINA RESULT:      -5.6      2.395      7.331
REMARK  0 active torsions:
REMARK  status: ('A' for Active; 'I' for Inactive)
REMARK       I    between atoms: C17_1  and  O25_32 
REMARK       I    between atoms: N14_2  and  C8_16 
REMARK       I    between atoms: N14_2  and  S20_34 
REMARK       I    between atoms: C7_3  and  O3_22 
REMARK       I    between atoms: C10_4  and  O15_5 
REMARK       I    between atoms: C6_8  and  C2_27 
REMARK       I    between atoms: C6_8  and  O11_31 
REMARK       I    between atoms: C27_9  and  C19_26 
REMARK       I    between atoms: O29_10  and  S20_34 
REMARK       I    between atoms: O9_11  and  C4_14 
REMARK       I    between atoms: S16_15  and  O11_31 
REMARK       I    between atoms: O30_17  and  S20_34 
REMARK       I    between atoms: O3_22  and  C1_29 
REMARK       I    between atoms: O18_24  and  C12_33 
REMARK       I    between atoms: O18_24  and  S26_35 
REMARK       I    between atoms: O28_30  and  S20_34 
ROOT
ATOM      1  C17 H1S d 301      20.408  10.262  32.386  0.00  0.00     0.086 C 
ATOM      2  N14 H1S d 301      15.222  10.287  37.815  0.00  0.00    -0.210 NA
ATOM      3  C7  H1S d 301      18.067  10.144  33.367  0.00  0.00     0.167 C 
ATOM      4  C10 H1S d 301      14.556   8.740  36.028  0.00  0.00     0.147 C 
ATOM      5  O15 H1S d 301      14.055   9.843  35.246  0.00  0.00    -0.369 OA
ATOM      6  O5  H1S d 301      15.010   7.681  35.144  0.00  0.00    -0.350 OA
ATOM      7  O13 H1S d 301      17.611   9.645  32.063  0.00  0.00    -0.311 OA
ATOM      8  C6  H1S d 301      16.556   6.950  33.370  0.00  0.00     0.067 C 
ATOM      9  C27 H1S d 301      18.004   8.221  30.126  0.00  0.00     0.233 C 
ATOM     10  O29 H1S d 301      14.923  11.299  40.091  0.00  0.00    -0.296 OA
ATOM     11  O9  H1S d 301      17.920  10.230  36.854  0.00  0.00    -0.391 OA
ATOM     12  O34 H1S d 301      16.853   8.337  29.760  0.00  0.00    -0.642 OA
ATOM     13  O32 H1S d 301      17.512  13.333  33.889  0.00  0.00    -0.572 OA
ATOM     14  C4  H1S d 301      16.829   9.758  36.055  0.00  0.00     0.083 C 
ATOM     15  S16 H1S d 301      17.598   4.779  33.431  0.00  0.00     0.251 S 
ATOM     16  C8  H1S d 301      15.700   9.222  36.940  0.00  0.00     0.081 C 
ATOM     17  O30 H1S d 301      15.185   8.793  40.059  0.00  0.00    -0.296 OA
ATOM     18  O23 H1S d 301      17.325   4.578  31.805  0.00  0.00    -0.572 OA
ATOM     19  O35 H1S d 301      18.833   7.271  29.517  0.00  0.00    -0.642 OA
ATOM     20  O31 H1S d 301      18.380  14.499  32.082  0.00  0.00    -0.572 OA
ATOM     21  O22 H1S d 301      17.563   3.517  34.067  0.00  0.00    -0.572 OA
ATOM     22  O3  H1S d 301      18.432   9.018  34.233  0.00  0.00    -0.348 OA
ATOM     23  O33 H1S d 301      19.991  13.852  33.903  0.00  0.00    -0.572 OA
ATOM     24  O18 H1S d 301      18.865  12.155  32.238  0.00  0.00    -0.244 OA
ATOM     25  O21 H1S d 301      18.891   5.354  33.629  0.00  0.00    -0.572 OA
ATOM     26  C19 H1S d 301      18.513   9.092  31.194  0.00  0.00     0.147 C 
ATOM     27  C2  H1S d 301      16.117   8.107  34.297  0.00  0.00     0.091 C 
ATOM     28  C24 H1S d 301      19.839   9.347  31.302  0.00  0.00    -0.034 C 
ATOM     29  C1  H1S d 301      17.346   8.635  35.122  0.00  0.00     0.095 C 
ATOM     30  O28 H1S d 301      17.019  10.457  39.567  0.00  0.00    -0.296 OA
ATOM     31  O11 H1S d 301      16.514   5.685  34.045  0.00  0.00    -0.254 OA
ATOM     32  O25 H1S d 301      21.120   9.468  33.345  0.00  0.00    -0.389 OA
ATOM     33  C12 H1S d 301      19.287  11.079  33.110  0.00  0.00     0.135 C 
ATOM     34  S20 H1S d 301      15.618  10.259  39.416  0.00  0.00     0.156 S 
ATOM     35  S26 H1S d 301      18.638  13.462  33.020  0.00  0.00     0.252 S 
ATOM     36  H   H1S d 301      21.066  10.962  31.916  0.00  0.00     0.093 H 
ATOM     37  H   H1S d 301      14.203  10.282  37.761  0.00  0.00     0.140 HD
ATOM     38  H   H1S d 301      17.292  10.689  33.865  0.00  0.00     0.134 H 
ATOM     39  H   H1S d 301      13.772   8.354  36.646  0.00  0.00     0.131 H 
ATOM     40  H   H1S d 301      14.766  10.191  34.687  0.00  0.00     0.212 HD
ATOM     41  H   H1S d 301      17.556   7.133  33.038  0.00  0.00     0.080 H 
ATOM     42  H   H1S d 301      15.879   6.911  32.543  0.00  0.00     0.080 H 
ATOM     43  H   H1S d 301      13.968  11.168  39.991  0.00  0.00     0.231 HD
ATOM     44  H   H1S d 301      18.623  10.565  36.274  0.00  0.00     0.210 HD
ATOM     45  H   H1S d 301      16.439  10.569  35.476  0.00  0.00     0.089 H 
ATOM     46  H   H1S d 301      16.052   8.411  37.542  0.00  0.00     0.076 H 
ATOM     47  H   H1S d 301      14.230   8.664  39.954  0.00  0.00     0.231 HD
ATOM     48  H   H1S d 301      15.761   8.927  33.709  0.00  0.00     0.090 H 
ATOM     49  H   H1S d 301      20.487   8.908  30.630  0.00  0.00     0.085 H 
ATOM     50  H   H1S d 301      17.776   7.877  35.742  0.00  0.00     0.091 H 
ATOM     51  H   H1S d 301      17.267  11.315  39.189  0.00  0.00     0.231 HD
ATOM     52  H   H1S d 301      20.510   8.839  33.761  0.00  0.00     0.210 HD
ATOM     53  H   H1S d 301      19.655  11.469  34.037  0.00  0.00     0.097 H 
ENDROOT
TORSDOF 16
ENDMDL
MODEL 32
REMARK VINA RESULT:      -5.5      2.206      2.827
REMARK  0 active torsions:
REMARK  status: ('A' for Active; 'I' for Inactive)
REMARK       I    between atoms: C17_1  and  O25_32 
REMARK       I    between atoms: N14_2  and  C8_16 
REMARK       I    between atoms: N14_2  and  S20_34 
REMARK       I    between atoms: C7_3  and  O3_22 
REMARK       I    between atoms: C10_4  and  O15_5 
REMARK       I    between atoms: C6_8  and  C2_27 
REMARK       I    between atoms: C6_8  and  O11_31 
REMARK       I    between atoms: C27_9  and  C19_26 
REMARK       I    between atoms: O29_10  and  S20_34 
REMARK       I    between atoms: O9_11  and  C4_14 
REMARK       I    between atoms: S16_15  and  O11_31 
REMARK       I    between atoms: O30_17  and  S20_34 
REMARK       I    between atoms: O3_22  and  C1_29 
REMARK       I    between atoms: O18_24  and  C12_33 
REMARK       I    between atoms: O18_24  and  S26_35 
REMARK       I    between atoms: O28_30  and  S20_34 
ROOT
ATOM      1  C17 H1S d 301      17.136   6.992  36.375  0.00  0.00     0.086 C 
ATOM      2  N14 H1S d 301      20.340  10.202  30.392  0.00  0.00    -0.210 NA
ATOM      3  C7  H1S d 301      17.207   8.257  34.172  0.00  0.00     0.167 C 
ATOM      4  C10 H1S d 301      18.360  11.487  31.072  0.00  0.00     0.147 C 
ATOM      5  O15 H1S d 301      17.505  10.553  30.384  0.00  0.00    -0.369 OA
ATOM      6  O5  H1S d 301      17.648  12.062  32.200  0.00  0.00    -0.350 OA
ATOM      7  O13 H1S d 301      15.803   8.622  34.407  0.00  0.00    -0.311 OA
ATOM      8  C6  H1S d 301      16.514  11.716  34.359  0.00  0.00     0.067 C 
ATOM      9  C27 H1S d 301      14.070   9.332  35.964  0.00  0.00     0.233 C 
ATOM     10  O29 H1S d 301      22.404   9.889  29.000  0.00  0.00    -0.296 OA
ATOM     11  O9  H1S d 301      20.408   8.950  32.968  0.00  0.00    -0.391 OA
ATOM     12  O34 H1S d 301      13.321   9.627  35.056  0.00  0.00    -0.642 OA
ATOM     13  O32 H1S d 301      17.648   5.756  32.098  0.00  0.00    -0.572 OA
ATOM     14  C4  H1S d 301      19.250   9.655  32.506  0.00  0.00     0.083 C 
ATOM     15  S16 H1S d 301      16.840  13.231  36.203  0.00  0.00     0.251 S 
ATOM     16  C8  H1S d 301      19.644  10.775  31.539  0.00  0.00     0.081 C 
ATOM     17  O30 H1S d 301      22.348  12.003  30.371  0.00  0.00    -0.296 OA
ATOM     18  O23 H1S d 301      15.216  13.191  36.553  0.00  0.00    -0.572 OA
ATOM     19  O35 H1S d 301      13.754   9.712  37.274  0.00  0.00    -0.642 OA
ATOM     20  O31 H1S d 301      16.330   3.995  32.835  0.00  0.00    -0.572 OA
ATOM     21  O22 H1S d 301      17.360  14.497  36.560  0.00  0.00    -0.572 OA
ATOM     22  O3  H1S d 301      18.090   9.285  34.732  0.00  0.00    -0.348 OA
ATOM     23  O33 H1S d 301      18.574   4.280  33.936  0.00  0.00    -0.572 OA
ATOM     24  O18 H1S d 301      16.536   5.912  34.263  0.00  0.00    -0.244 OA
ATOM     25  O21 H1S d 301      17.516  12.230  36.967  0.00  0.00    -0.572 OA
ATOM     26  C19 H1S d 301      15.290   8.566  35.675  0.00  0.00     0.147 C 
ATOM     27  C2  H1S d 301      17.277  11.057  33.187  0.00  0.00     0.091 C 
ATOM     28  C24 H1S d 301      15.878   7.818  36.639  0.00  0.00    -0.034 C 
ATOM     29  C1  H1S d 301      18.511  10.251  33.731  0.00  0.00     0.095 C 
ATOM     30  O28 H1S d 301      22.626   9.671  31.297  0.00  0.00    -0.296 OA
ATOM     31  O11 H1S d 301      17.067  12.996  34.699  0.00  0.00    -0.254 OA
ATOM     32  O25 H1S d 301      18.247   7.600  37.047  0.00  0.00    -0.389 OA
ATOM     33  C12 H1S d 301      17.449   6.873  34.846  0.00  0.00     0.135 C 
ATOM     34  S20 H1S d 301      21.974  10.391  30.258  0.00  0.00     0.156 S 
ATOM     35  S26 H1S d 301      17.247   5.002  33.244  0.00  0.00     0.252 S 
ATOM     36  H   H1S d 301      16.968   6.004  36.748  0.00  0.00     0.093 H 
ATOM     37  H   H1S d 301      19.924  10.614  29.556  0.00  0.00     0.140 HD
ATOM     38  H   H1S d 301      17.419   8.191  33.126  0.00  0.00     0.134 H 
ATOM     39  H   H1S d 301      18.638  12.277  30.406  0.00  0.00     0.131 H 
ATOM     40  H   H1S d 301      17.256   9.838  30.988  0.00  0.00     0.212 HD
ATOM     41  H   H1S d 301      16.572  11.076  35.214  0.00  0.00     0.080 H 
ATOM     42  H   H1S d 301      15.498  11.861  34.057  0.00  0.00     0.080 H 
ATOM     43  H   H1S d 301      21.961  10.377  28.289  0.00  0.00     0.231 HD
ATOM     44  H   H1S d 301      20.136   8.247  33.578  0.00  0.00     0.210 HD
ATOM     45  H   H1S d 301      18.609   8.976  31.983  0.00  0.00     0.089 H 
ATOM     46  H   H1S d 301      20.293  11.474  32.024  0.00  0.00     0.076 H 
ATOM     47  H   H1S d 301      21.900  12.488  29.660  0.00  0.00     0.231 HD
ATOM     48  H   H1S d 301      16.640  10.355  32.691  0.00  0.00     0.090 H 
ATOM     49  H   H1S d 301      15.462   7.805  37.583  0.00  0.00     0.085 H 
ATOM     50  H   H1S d 301      19.207  10.875  34.251  0.00  0.00     0.091 H 
ATOM     51  H   H1S d 301      22.404   8.729  31.227  0.00  0.00     0.231 HD
ATOM     52  H   H1S d 301      18.387   8.495  36.697  0.00  0.00     0.210 HD
ATOM     53  H   H1S d 301      18.464   6.564  34.701  0.00  0.00     0.097 H 
ENDROOT
TORSDOF 16
ENDMDL
MODEL 33
REMARK VINA RESULT:      -5.5      3.130      7.459
REMARK  0 active torsions:
REMARK  status: ('A' for Active; 'I' for Inactive)
REMARK       I    between atoms: C17_1  and  O25_32 
REMARK       I    between atoms: N14_2  and  C8_16 
REMARK       I    between atoms: N14_2  and  S20_34 
REMARK       I    between atoms: C7_3  and  O3_22 
REMARK       I    between atoms: C10_4  and  O15_5 
REMARK       I    between atoms: C6_8  and  C2_27 
REMARK       I    between atoms: C6_8  and  O11_31 
REMARK       I    between atoms: C27_9  and  C19_26 
REMARK       I    between atoms: O29_10  and  S20_34 
REMARK       I    between atoms: O9_11  and  C4_14 
REMARK       I    between atoms: S16_15  and  O11_31 
REMARK       I    between atoms: O30_17  and  S20_34 
REMARK       I    between atoms: O3_22  and  C1_29 
REMARK       I    between atoms: O18_24  and  C12_33 
REMARK       I    between atoms: O18_24  and  S26_35 
REMARK       I    between atoms: O28_30  and  S20_34 
ROOT
ATOM      1  C17 H1S d 301      21.216   8.295  36.869  0.00  0.00     0.086 C 
ATOM      2  N14 H1S d 301      13.998   9.476  38.566  0.00  0.00    -0.210 NA
ATOM      3  C7  H1S d 301      18.832   9.081  36.475  0.00  0.00     0.167 C 
ATOM      4  C10 H1S d 301      14.221   8.937  36.180  0.00  0.00     0.147 C 
ATOM      5  O15 H1S d 301      14.601  10.298  35.898  0.00  0.00    -0.369 OA
ATOM      6  O5  H1S d 301      14.843   8.046  35.218  0.00  0.00    -0.350 OA
ATOM      7  O13 H1S d 301      19.173   9.204  35.051  0.00  0.00    -0.311 OA
ATOM      8  C6  H1S d 301      16.912   7.124  34.248  0.00  0.00     0.067 C 
ATOM      9  C27 H1S d 301      20.309   8.295  33.098  0.00  0.00     0.233 C 
ATOM     10  O29 H1S d 301      12.621   9.909  40.618  0.00  0.00    -0.296 OA
ATOM     11  O9  H1S d 301      16.594   8.365  39.055  0.00  0.00    -0.391 OA
ATOM     12  O34 H1S d 301      19.704   9.036  32.353  0.00  0.00    -0.642 OA
ATOM     13  O32 H1S d 301      18.884  11.901  38.147  0.00  0.00    -0.572 OA
ATOM     14  C4  H1S d 301      16.154   8.691  37.731  0.00  0.00     0.083 C 
ATOM     15  S16 H1S d 301      17.116   4.781  33.725  0.00  0.00     0.251 S 
ATOM     16  C8  H1S d 301      14.632   8.566  37.618  0.00  0.00     0.081 C 
ATOM     17  O30 H1S d 301      12.217   7.684  39.507  0.00  0.00    -0.296 OA
ATOM     18  O23 H1S d 301      17.865   5.144  32.287  0.00  0.00    -0.572 OA
ATOM     19  O35 H1S d 301      21.069   7.246  32.564  0.00  0.00    -0.642 OA
ATOM     20  O31 H1S d 301      20.936  12.909  37.755  0.00  0.00    -0.572 OA
ATOM     21  O22 H1S d 301      16.385   3.579  33.577  0.00  0.00    -0.572 OA
ATOM     22  O3  H1S d 301      18.292   7.745  36.747  0.00  0.00    -0.348 OA
ATOM     23  O33 H1S d 301      20.857  11.140  39.541  0.00  0.00    -0.572 OA
ATOM     24  O18 H1S d 301      20.622  10.667  36.964  0.00  0.00    -0.244 OA
ATOM     25  O21 H1S d 301      18.102   4.592  34.741  0.00  0.00    -0.572 OA
ATOM     26  C19 H1S d 301      20.246   8.518  34.548  0.00  0.00     0.147 C 
ATOM     27  C2  H1S d 301      16.298   8.079  35.297  0.00  0.00     0.091 C 
ATOM     28  C24 H1S d 301      21.233   8.067  35.359  0.00  0.00    -0.034 C 
ATOM     29  C1  H1S d 301      16.838   7.728  36.730  0.00  0.00     0.095 C 
ATOM     30  O28 H1S d 301      14.302   8.321  40.780  0.00  0.00    -0.296 OA
ATOM     31  O11 H1S d 301      16.151   5.913  34.123  0.00  0.00    -0.254 OA
ATOM     32  O25 H1S d 301      20.960   7.048  37.530  0.00  0.00    -0.389 OA
ATOM     33  C12 H1S d 301      20.134   9.343  37.292  0.00  0.00     0.135 C 
ATOM     34  S20 H1S d 301      13.300   8.866  39.931  0.00  0.00     0.156 S 
ATOM     35  S26 H1S d 301      20.294  11.682  38.074  0.00  0.00     0.252 S 
ATOM     36  H   H1S d 301      22.171   8.682  37.157  0.00  0.00     0.093 H 
ATOM     37  H   H1S d 301      13.269   9.976  38.057  0.00  0.00     0.140 HD
ATOM     38  H   H1S d 301      18.082   9.791  36.755  0.00  0.00     0.134 H 
ATOM     39  H   H1S d 301      13.158   8.838  36.098  0.00  0.00     0.131 H 
ATOM     40  H   H1S d 301      15.564  10.387  35.973  0.00  0.00     0.212 HD
ATOM     41  H   H1S d 301      17.909   6.877  34.545  0.00  0.00     0.080 H 
ATOM     42  H   H1S d 301      16.906   7.621  33.300  0.00  0.00     0.080 H 
ATOM     43  H   H1S d 301      11.937  10.284  40.042  0.00  0.00     0.231 HD
ATOM     44  H   H1S d 301      17.558   8.451  39.105  0.00  0.00     0.210 HD
ATOM     45  H   H1S d 301      16.420   9.704  37.511  0.00  0.00     0.089 H 
ATOM     46  H   H1S d 301      14.323   7.566  37.839  0.00  0.00     0.076 H 
ATOM     47  H   H1S d 301      11.536   8.062  38.929  0.00  0.00     0.231 HD
ATOM     48  H   H1S d 301      16.597   9.085  35.089  0.00  0.00     0.090 H 
ATOM     49  H   H1S d 301      22.024   7.552  34.941  0.00  0.00     0.085 H 
ATOM     50  H   H1S d 301      16.589   6.730  37.025  0.00  0.00     0.091 H 
ATOM     51  H   H1S d 301      14.933   9.016  41.024  0.00  0.00     0.231 HD
ATOM     52  H   H1S d 301      20.092   6.710  37.259  0.00  0.00     0.210 HD
ATOM     53  H   H1S d 301      19.934   9.265  38.340  0.00  0.00     0.097 H 
ENDROOT
TORSDOF 16
ENDMDL
MODEL 34
REMARK VINA RESULT:      -5.5      3.043      7.426
REMARK  0 active torsions:
REMARK  status: ('A' for Active; 'I' for Inactive)
REMARK       I    between atoms: C17_1  and  O25_32 
REMARK       I    between atoms: N14_2  and  C8_16 
REMARK       I    between atoms: N14_2  and  S20_34 
REMARK       I    between atoms: C7_3  and  O3_22 
REMARK       I    between atoms: C10_4  and  O15_5 
REMARK       I    between atoms: C6_8  and  C2_27 
REMARK       I    between atoms: C6_8  and  O11_31 
REMARK       I    between atoms: C27_9  and  C19_26 
REMARK       I    between atoms: O29_10  and  S20_34 
REMARK       I    between atoms: O9_11  and  C4_14 
REMARK       I    between atoms: S16_15  and  O11_31 
REMARK       I    between atoms: O30_17  and  S20_34 
REMARK       I    between atoms: O3_22  and  C1_29 
REMARK       I    between atoms: O18_24  and  C12_33 
REMARK       I    between atoms: O18_24  and  S26_35 
REMARK       I    between atoms: O28_30  and  S20_34 
ROOT
ATOM      1  C17 H1S d 301      17.666  10.015  36.597  0.00  0.00     0.086 C 
ATOM      2  N14 H1S d 301      18.523   2.742  34.942  0.00  0.00    -0.210 NA
ATOM      3  C7  H1S d 301      17.031   7.766  35.599  0.00  0.00     0.167 C 
ATOM      4  C10 H1S d 301      17.369   3.889  33.103  0.00  0.00     0.147 C 
ATOM      5  O15 H1S d 301      16.121   3.802  33.817  0.00  0.00    -0.369 OA
ATOM      6  O5  H1S d 301      17.366   5.069  32.255  0.00  0.00    -0.350 OA
ATOM      7  O13 H1S d 301      15.988   8.466  34.838  0.00  0.00    -0.311 OA
ATOM      8  C6  H1S d 301      17.250   7.524  32.081  0.00  0.00     0.067 C 
ATOM      9  C27 H1S d 301      15.311  10.413  33.540  0.00  0.00     0.233 C 
ATOM     10  O29 H1S d 301      19.646   0.732  35.939  0.00  0.00    -0.296 OA
ATOM     11  O9  H1S d 301      19.445   5.267  35.934  0.00  0.00    -0.391 OA
ATOM     12  O34 H1S d 301      14.323   9.842  33.129  0.00  0.00    -0.642 OA
ATOM     13  O32 H1S d 301      15.970   6.231  38.295  0.00  0.00    -0.572 OA
ATOM     14  C4  H1S d 301      18.383   5.179  34.977  0.00  0.00     0.083 C 
ATOM     15  S16 H1S d 301      18.669   8.741  30.562  0.00  0.00     0.251 S 
ATOM     16  C8  H1S d 301      18.542   3.933  34.101  0.00  0.00     0.081 C 
ATOM     17  O30 H1S d 301      20.651   1.560  33.782  0.00  0.00    -0.296 OA
ATOM     18  O23 H1S d 301      17.397   9.713  30.118  0.00  0.00    -0.572 OA
ATOM     19  O35 H1S d 301      15.692  11.636  32.974  0.00  0.00    -0.642 OA
ATOM     20  O31 H1S d 301      14.767   7.768  39.547  0.00  0.00    -0.572 OA
ATOM     21  O22 H1S d 301      19.550   8.600  29.465  0.00  0.00    -0.572 OA
ATOM     22  O3  H1S d 301      18.269   7.708  34.814  0.00  0.00    -0.348 OA
ATOM     23  O33 H1S d 301      17.269   7.796  39.804  0.00  0.00    -0.572 OA
ATOM     24  O18 H1S d 301      15.984   8.581  37.647  0.00  0.00    -0.244 OA
ATOM     25  O21 H1S d 301      19.379   9.352  31.641  0.00  0.00    -0.572 OA
ATOM     26  C19 H1S d 301      16.085   9.817  34.638  0.00  0.00     0.147 C 
ATOM     27  C2  H1S d 301      17.260   6.300  33.027  0.00  0.00     0.091 C 
ATOM     28  C24 H1S d 301      16.861  10.591  35.433  0.00  0.00    -0.034 C 
ATOM     29  C1  H1S d 301      18.403   6.452  34.095  0.00  0.00     0.095 C 
ATOM     30  O28 H1S d 301      20.801   2.741  36.008  0.00  0.00    -0.296 OA
ATOM     31  O11 H1S d 301      18.156   7.351  30.982  0.00  0.00    -0.254 OA
ATOM     32  O25 H1S d 301      19.061  10.049  36.266  0.00  0.00    -0.389 OA
ATOM     33  C12 H1S d 301      17.242   8.546  36.932  0.00  0.00     0.135 C 
ATOM     34  S20 H1S d 301      19.931   1.930  35.229  0.00  0.00     0.156 S 
ATOM     35  S26 H1S d 301      15.962   7.565  38.804  0.00  0.00     0.252 S 
ATOM     36  H   H1S d 301      17.471  10.612  37.463  0.00  0.00     0.093 H 
ATOM     37  H   H1S d 301      17.882   2.080  34.505  0.00  0.00     0.140 HD
ATOM     38  H   H1S d 301      16.743   6.758  35.813  0.00  0.00     0.134 H 
ATOM     39  H   H1S d 301      17.488   3.025  32.482  0.00  0.00     0.131 H 
ATOM     40  H   H1S d 301      16.015   4.585  34.379  0.00  0.00     0.212 HD
ATOM     41  H   H1S d 301      17.538   8.392  32.635  0.00  0.00     0.080 H 
ATOM     42  H   H1S d 301      16.262   7.632  31.686  0.00  0.00     0.080 H 
ATOM     43  H   H1S d 301      19.053   0.177  35.411  0.00  0.00     0.231 HD
ATOM     44  H   H1S d 301      19.325   6.061  36.478  0.00  0.00     0.210 HD
ATOM     45  H   H1S d 301      17.449   5.102  35.494  0.00  0.00     0.089 H 
ATOM     46  H   H1S d 301      19.471   3.968  33.570  0.00  0.00     0.076 H 
ATOM     47  H   H1S d 301      20.053   1.008  33.255  0.00  0.00     0.231 HD
ATOM     48  H   H1S d 301      16.336   6.251  33.564  0.00  0.00     0.090 H 
ATOM     49  H   H1S d 301      16.909  11.605  35.247  0.00  0.00     0.085 H 
ATOM     50  H   H1S d 301      19.373   6.514  33.646  0.00  0.00     0.091 H 
ATOM     51  H   H1S d 301      20.375   2.954  36.853  0.00  0.00     0.231 HD
ATOM     52  H   H1S d 301      19.220   9.503  35.480  0.00  0.00     0.210 HD
ATOM     53  H   H1S d 301      17.997   8.070  37.523  0.00  0.00     0.097 H 
ENDROOT
TORSDOF 16
ENDMDL
MODEL 35
REMARK VINA RESULT:      -5.4      3.323      6.276
REMARK  0 active torsions:
REMARK  status: ('A' for Active; 'I' for Inactive)
REMARK       I    between atoms: C17_1  and  O25_32 
REMARK       I    between atoms: N14_2  and  C8_16 
REMARK       I    between atoms: N14_2  and  S20_34 
REMARK       I    between atoms: C7_3  and  O3_22 
REMARK       I    between atoms: C10_4  and  O15_5 
REMARK       I    between atoms: C6_8  and  C2_27 
REMARK       I    between atoms: C6_8  and  O11_31 
REMARK       I    between atoms: C27_9  and  C19_26 
REMARK       I    between atoms: O29_10  and  S20_34 
REMARK       I    between atoms: O9_11  and  C4_14 
REMARK       I    between atoms: S16_15  and  O11_31 
REMARK       I    between atoms: O30_17  and  S20_34 
REMARK       I    between atoms: O3_22  and  C1_29 
REMARK       I    between atoms: O18_24  and  C12_33 
REMARK       I    between atoms: O18_24  and  S26_35 
REMARK       I    between atoms: O28_30  and  S20_34 
ROOT
ATOM      1  C17 H1S d 301      19.160   7.125  38.633  0.00  0.00     0.086 C 
ATOM      2  N14 H1S d 301      19.135   2.717  32.556  0.00  0.00    -0.210 NA
ATOM      3  C7  H1S d 301      18.133   5.690  36.804  0.00  0.00     0.167 C 
ATOM      4  C10 H1S d 301      17.140   4.147  32.560  0.00  0.00     0.147 C 
ATOM      5  O15 H1S d 301      16.486   3.250  33.479  0.00  0.00    -0.369 OA
ATOM      6  O5  H1S d 301      16.648   5.499  32.763  0.00  0.00    -0.350 OA
ATOM      7  O13 H1S d 301      16.829   6.250  37.181  0.00  0.00    -0.311 OA
ATOM      8  C6  H1S d 301      16.402   7.435  34.266  0.00  0.00     0.067 C 
ATOM      9  C27 H1S d 301      15.510   8.184  37.855  0.00  0.00     0.233 C 
ATOM     10  O29 H1S d 301      20.665   1.054  31.462  0.00  0.00    -0.296 OA
ATOM     11  O9  H1S d 301      20.393   4.470  34.440  0.00  0.00    -0.391 OA
ATOM     12  O34 H1S d 301      14.470   7.603  37.625  0.00  0.00    -0.642 OA
ATOM     13  O32 H1S d 301      18.750   2.706  38.013  0.00  0.00    -0.572 OA
ATOM     14  C4  H1S d 301      18.983   4.520  34.193  0.00  0.00     0.083 C 
ATOM     15  S16 H1S d 301      16.734   9.686  33.475  0.00  0.00     0.251 S 
ATOM     16  C8  H1S d 301      18.666   4.082  32.761  0.00  0.00     0.081 C 
ATOM     17  O30 H1S d 301      20.311   3.192  30.175  0.00  0.00    -0.296 OA
ATOM     18  O23 H1S d 301      15.404  10.205  34.325  0.00  0.00    -0.572 OA
ATOM     19  O35 H1S d 301      15.492   9.560  38.112  0.00  0.00    -0.642 OA
ATOM     20  O31 H1S d 301      18.392   2.791  40.303  0.00  0.00    -0.572 OA
ATOM     21  O22 H1S d 301      16.876  10.475  32.310  0.00  0.00    -0.572 OA
ATOM     22  O3  H1S d 301      18.742   6.509  35.750  0.00  0.00    -0.348 OA
ATOM     23  O33 H1S d 301      20.627   3.587  39.467  0.00  0.00    -0.572 OA
ATOM     24  O18 H1S d 301      18.356   4.859  39.087  0.00  0.00    -0.244 OA
ATOM     25  O21 H1S d 301      17.904   9.846  34.279  0.00  0.00    -0.572 OA
ATOM     26  C19 H1S d 301      16.770   7.429  37.874  0.00  0.00     0.147 C 
ATOM     27  C2  H1S d 301      16.953   6.001  34.097  0.00  0.00     0.091 C 
ATOM     28  C24 H1S d 301      17.837   7.888  38.571  0.00  0.00    -0.034 C 
ATOM     29  C1  H1S d 301      18.490   5.971  34.423  0.00  0.00     0.095 C 
ATOM     30  O28 H1S d 301      21.626   2.982  32.320  0.00  0.00    -0.296 OA
ATOM     31  O11 H1S d 301      16.564   8.211  33.069  0.00  0.00    -0.254 OA
ATOM     32  O25 H1S d 301      20.146   7.832  37.870  0.00  0.00    -0.389 OA
ATOM     33  C12 H1S d 301      19.020   5.665  38.085  0.00  0.00     0.135 C 
ATOM     34  S20 H1S d 301      20.489   2.452  31.649  0.00  0.00     0.156 S 
ATOM     35  S26 H1S d 301      18.992   3.461  39.201  0.00  0.00     0.252 S 
ATOM     36  H   H1S d 301      19.456   7.058  39.658  0.00  0.00     0.093 H 
ATOM     37  H   H1S d 301      18.374   2.204  32.109  0.00  0.00     0.140 HD
ATOM     38  H   H1S d 301      18.031   4.699  36.416  0.00  0.00     0.134 H 
ATOM     39  H   H1S d 301      16.919   3.853  31.555  0.00  0.00     0.131 H 
ATOM     40  H   H1S d 301      16.687   3.518  34.389  0.00  0.00     0.212 HD
ATOM     41  H   H1S d 301      16.926   7.916  35.065  0.00  0.00     0.080 H 
ATOM     42  H   H1S d 301      15.356   7.367  34.481  0.00  0.00     0.080 H 
ATOM     43  H   H1S d 301      19.892   0.690  31.005  0.00  0.00     0.231 HD
ATOM     44  H   H1S d 301      20.572   4.751  35.351  0.00  0.00     0.210 HD
ATOM     45  H   H1S d 301      18.484   3.850  34.862  0.00  0.00     0.089 H 
ATOM     46  H   H1S d 301      19.153   4.725  32.058  0.00  0.00     0.076 H 
ATOM     47  H   H1S d 301      19.535   2.827  29.723  0.00  0.00     0.231 HD
ATOM     48  H   H1S d 301      16.474   5.345  34.793  0.00  0.00     0.090 H 
ATOM     49  H   H1S d 301      17.754   8.783  39.078  0.00  0.00     0.085 H 
ATOM     50  H   H1S d 301      19.056   6.607  33.775  0.00  0.00     0.091 H 
ATOM     51  H   H1S d 301      21.725   2.547  33.181  0.00  0.00     0.231 HD
ATOM     52  H   H1S d 301      19.863   7.884  36.943  0.00  0.00     0.210 HD
ATOM     53  H   H1S d 301      19.986   5.263  37.858  0.00  0.00     0.097 H 
ENDROOT
TORSDOF 16
ENDMDL
MODEL 36
REMARK VINA RESULT:      -5.4      2.681      6.670
REMARK  0 active torsions:
REMARK  status: ('A' for Active; 'I' for Inactive)
REMARK       I    between atoms: C17_1  and  O25_32 
REMARK       I    between atoms: N14_2  and  C8_16 
REMARK       I    between atoms: N14_2  and  S20_34 
REMARK       I    between atoms: C7_3  and  O3_22 
REMARK       I    between atoms: C10_4  and  O15_5 
REMARK       I    between atoms: C6_8  and  C2_27 
REMARK       I    between atoms: C6_8  and  O11_31 
REMARK       I    between atoms: C27_9  and  C19_26 
REMARK       I    between atoms: O29_10  and  S20_34 
REMARK       I    between atoms: O9_11  and  C4_14 
REMARK       I    between atoms: S16_15  and  O11_31 
REMARK       I    between atoms: O30_17  and  S20_34 
REMARK       I    between atoms: O3_22  and  C1_29 
REMARK       I    between atoms: O18_24  and  C12_33 
REMARK       I    between atoms: O18_24  and  S26_35 
REMARK       I    between atoms: O28_30  and  S20_34 
ROOT
ATOM      1  C17 H1S d 301      17.510   7.564  30.157  0.00  0.00     0.086 C 
ATOM      2  N14 H1S d 301      16.724   7.855  37.617  0.00  0.00    -0.210 NA
ATOM      3  C7  H1S d 301      18.257   7.890  32.563  0.00  0.00     0.167 C 
ATOM      4  C10 H1S d 301      18.348   9.543  36.880  0.00  0.00     0.147 C 
ATOM      5  O15 H1S d 301      19.377   8.537  36.811  0.00  0.00    -0.369 OA
ATOM      6  O5  H1S d 301      18.617  10.586  35.906  0.00  0.00    -0.350 OA
ATOM      7  O13 H1S d 301      19.489   8.492  32.036  0.00  0.00    -0.311 OA
ATOM      8  C6  H1S d 301      18.894  11.224  33.542  0.00  0.00     0.067 C 
ATOM      9  C27 H1S d 301      20.559   9.951  30.405  0.00  0.00     0.233 C 
ATOM     10  O29 H1S d 301      15.292   6.780  39.376  0.00  0.00    -0.296 OA
ATOM     11  O9  H1S d 301      15.714   7.664  34.943  0.00  0.00    -0.391 OA
ATOM     12  O34 H1S d 301      21.588   9.977  31.046  0.00  0.00    -0.642 OA
ATOM     13  O32 H1S d 301      18.549   4.759  33.493  0.00  0.00    -0.572 OA
ATOM     14  C4  H1S d 301      16.972   8.286  35.228  0.00  0.00     0.083 C 
ATOM     15  S16 H1S d 301      17.953  13.265  32.676  0.00  0.00     0.251 S 
ATOM     16  C8  H1S d 301      16.970   8.900  36.630  0.00  0.00     0.081 C 
ATOM     17  O30 H1S d 301      14.888   9.243  39.023  0.00  0.00    -0.296 OA
ATOM     18  O23 H1S d 301      19.342  13.567  31.817  0.00  0.00    -0.572 OA
ATOM     19  O35 H1S d 301      20.389  10.833  29.330  0.00  0.00    -0.642 OA
ATOM     20  O31 H1S d 301      19.484   3.588  31.723  0.00  0.00    -0.572 OA
ATOM     21  O22 H1S d 301      17.361  14.495  33.048  0.00  0.00    -0.572 OA
ATOM     22  O3  H1S d 301      17.248   8.930  32.789  0.00  0.00    -0.348 OA
ATOM     23  O33 H1S d 301      17.000   3.976  31.648  0.00  0.00    -0.572 OA
ATOM     24  O18 H1S d 301      18.811   5.857  31.332  0.00  0.00    -0.244 OA
ATOM     25  O21 H1S d 301      17.031  12.547  31.854  0.00  0.00    -0.572 OA
ATOM     26  C19 H1S d 301      19.511   8.983  30.758  0.00  0.00     0.147 C 
ATOM     27  C2  H1S d 301      18.592  10.081  34.539  0.00  0.00     0.091 C 
ATOM     28  C24 H1S d 301      18.604   8.583  29.836  0.00  0.00    -0.034 C 
ATOM     29  C1  H1S d 301      17.231   9.387  34.169  0.00  0.00     0.095 C 
ATOM     30  O28 H1S d 301      14.256   7.415  37.401  0.00  0.00    -0.296 OA
ATOM     31  O11 H1S d 301      18.277  12.456  33.945  0.00  0.00    -0.254 OA
ATOM     32  O25 H1S d 301      16.242   8.233  30.197  0.00  0.00    -0.389 OA
ATOM     33  C12 H1S d 301      17.765   6.841  31.521  0.00  0.00     0.135 C 
ATOM     34  S20 H1S d 301      15.250   7.769  38.355  0.00  0.00     0.156 S 
ATOM     35  S26 H1S d 301      18.498   4.548  32.081  0.00  0.00     0.252 S 
ATOM     36  H   H1S d 301      17.517   6.819  29.390  0.00  0.00     0.093 H 
ATOM     37  H   H1S d 301      17.418   7.973  38.355  0.00  0.00     0.140 HD
ATOM     38  H   H1S d 301      18.434   7.409  33.503  0.00  0.00     0.134 H 
ATOM     39  H   H1S d 301      18.341   9.983  37.856  0.00  0.00     0.131 H 
ATOM     40  H   H1S d 301      19.381   8.139  35.927  0.00  0.00     0.212 HD
ATOM     41  H   H1S d 301      18.523  10.950  32.577  0.00  0.00     0.080 H 
ATOM     42  H   H1S d 301      19.953  11.373  33.517  0.00  0.00     0.080 H 
ATOM     43  H   H1S d 301      15.968   7.018  40.028  0.00  0.00     0.231 HD
ATOM     44  H   H1S d 301      15.736   7.282  34.052  0.00  0.00     0.210 HD
ATOM     45  H   H1S d 301      17.746   7.548  35.191  0.00  0.00     0.089 H 
ATOM     46  H   H1S d 301      16.202   9.641  36.711  0.00  0.00     0.076 H 
ATOM     47  H   H1S d 301      15.568   9.479  39.673  0.00  0.00     0.231 HD
ATOM     48  H   H1S d 301      19.353   9.332  34.471  0.00  0.00     0.090 H 
ATOM     49  H   H1S d 301      18.653   8.979  28.884  0.00  0.00     0.085 H 
ATOM     50  H   H1S d 301      16.406  10.067  34.206  0.00  0.00     0.091 H 
ATOM     51  H   H1S d 301      14.473   6.552  37.013  0.00  0.00     0.231 HD
ATOM     52  H   H1S d 301      16.253   8.905  30.897  0.00  0.00     0.210 HD
ATOM     53  H   H1S d 301      16.866   6.373  31.863  0.00  0.00     0.097 H 
ENDROOT
TORSDOF 16
ENDMDL
MODEL 37
REMARK VINA RESULT:      -5.2      3.421      7.276
REMARK  0 active torsions:
REMARK  status: ('A' for Active; 'I' for Inactive)
REMARK       I    between atoms: C17_1  and  O25_32 
REMARK       I    between atoms: N14_2  and  C8_16 
REMARK       I    between atoms: N14_2  and  S20_34 
REMARK       I    between atoms: C7_3  and  O3_22 
REMARK       I    between atoms: C10_4  and  O15_5 
REMARK       I    between atoms: C6_8  and  C2_27 
REMARK       I    between atoms: C6_8  and  O11_31 
REMARK       I    between atoms: C27_9  and  C19_26 
REMARK       I    between atoms: O29_10  and  S20_34 
REMARK       I    between atoms: O9_11  and  C4_14 
REMARK       I    between atoms: S16_15  and  O11_31 
REMARK       I    between atoms: O30_17  and  S20_34 
REMARK       I    between atoms: O3_22  and  C1_29 
REMARK       I    between atoms: O18_24  and  C12_33 
REMARK       I    between atoms: O18_24  and  S26_35 
REMARK       I    between atoms: O28_30  and  S20_34 
ROOT
ATOM      1  C17 H1S d 301      20.064   4.050  37.593  0.00  0.00     0.086 C 
ATOM      2  N14 H1S d 301      15.913   9.283  34.165  0.00  0.00    -0.210 NA
ATOM      3  C7  H1S d 301      19.416   5.654  35.732  0.00  0.00     0.167 C 
ATOM      4  C10 H1S d 301      16.828   7.721  32.506  0.00  0.00     0.147 C 
ATOM      5  O15 H1S d 301      18.086   8.423  32.525  0.00  0.00    -0.369 OA
ATOM      6  O5  H1S d 301      17.053   6.322  32.191  0.00  0.00    -0.350 OA
ATOM      7  O13 H1S d 301      20.376   4.950  34.872  0.00  0.00    -0.311 OA
ATOM      8  C6  H1S d 301      18.087   4.173  32.813  0.00  0.00     0.067 C 
ATOM      9  C27 H1S d 301      21.359   2.844  34.141  0.00  0.00     0.233 C 
ATOM     10  O29 H1S d 301      14.428  11.197  34.821  0.00  0.00    -0.296 OA
ATOM     11  O9  H1S d 301      16.421   7.373  36.239  0.00  0.00    -0.391 OA
ATOM     12  O34 H1S d 301      21.865   3.373  33.173  0.00  0.00    -0.642 OA
ATOM     13  O32 H1S d 301      20.519   8.468  37.003  0.00  0.00    -0.572 OA
ATOM     14  C4  H1S d 301      17.022   7.254  34.945  0.00  0.00     0.083 C 
ATOM     15  S16 H1S d 301      16.896   2.093  32.575  0.00  0.00     0.251 S 
ATOM     16  C8  H1S d 301      16.125   7.871  33.869  0.00  0.00     0.081 C 
ATOM     17  O30 H1S d 301      13.250   9.250  33.739  0.00  0.00    -0.296 OA
ATOM     18  O23 H1S d 301      18.256   1.358  31.969  0.00  0.00    -0.572 OA
ATOM     19  O35 H1S d 301      21.352   1.448  34.243  0.00  0.00    -0.642 OA
ATOM     20  O31 H1S d 301      22.550   8.024  38.031  0.00  0.00    -0.572 OA
ATOM     21  O22 H1S d 301      15.750   1.496  32.000  0.00  0.00    -0.572 OA
ATOM     22  O3  H1S d 301      18.088   5.047  35.601  0.00  0.00    -0.348 OA
ATOM     23  O33 H1S d 301      20.468   7.528  39.354  0.00  0.00    -0.572 OA
ATOM     24  O18 H1S d 301      21.258   6.158  37.252  0.00  0.00    -0.244 OA
ATOM     25  O21 H1S d 301      16.845   1.907  33.991  0.00  0.00    -0.572 OA
ATOM     26  C19 H1S d 301      20.774   3.681  35.198  0.00  0.00     0.147 C 
ATOM     27  C2  H1S d 301      17.868   5.655  33.199  0.00  0.00     0.091 C 
ATOM     28  C24 H1S d 301      20.648   3.207  36.460  0.00  0.00    -0.034 C 
ATOM     29  C1  H1S d 301      17.254   5.753  34.642  0.00  0.00     0.095 C 
ATOM     30  O28 H1S d 301      14.254   9.243  36.056  0.00  0.00    -0.296 OA
ATOM     31  O11 H1S d 301      16.907   3.595  32.236  0.00  0.00    -0.254 OA
ATOM     32  O25 H1S d 301      18.771   3.538  37.941  0.00  0.00    -0.389 OA
ATOM     33  C12 H1S d 301      19.941   5.559  37.196  0.00  0.00     0.135 C 
ATOM     34  S20 H1S d 301      14.452   9.778  34.753  0.00  0.00     0.156 S 
ATOM     35  S26 H1S d 301      21.212   7.569  37.869  0.00  0.00     0.252 S 
ATOM     36  H   H1S d 301      20.729   3.989  38.428  0.00  0.00     0.093 H 
ATOM     37  H   H1S d 301      16.074   9.797  33.299  0.00  0.00     0.140 HD
ATOM     38  H   H1S d 301      19.325   6.682  35.448  0.00  0.00     0.134 H 
ATOM     39  H   H1S d 301      16.194   8.142  31.753  0.00  0.00     0.131 H 
ATOM     40  H   H1S d 301      18.659   8.041  33.208  0.00  0.00     0.212 HD
ATOM     41  H   H1S d 301      18.350   3.622  33.691  0.00  0.00     0.080 H 
ATOM     42  H   H1S d 301      18.870   4.130  32.085  0.00  0.00     0.080 H 
ATOM     43  H   H1S d 301      14.564  11.566  33.934  0.00  0.00     0.231 HD
ATOM     44  H   H1S d 301      17.005   6.977  36.905  0.00  0.00     0.210 HD
ATOM     45  H   H1S d 301      17.955   7.780  34.940  0.00  0.00     0.089 H 
ATOM     46  H   H1S d 301      15.176   7.376  33.846  0.00  0.00     0.076 H 
ATOM     47  H   H1S d 301      13.391   9.617  32.853  0.00  0.00     0.231 HD
ATOM     48  H   H1S d 301      18.808   6.164  33.225  0.00  0.00     0.090 H 
ATOM     49  H   H1S d 301      20.958   2.244  36.664  0.00  0.00     0.085 H 
ATOM     50  H   H1S d 301      16.306   5.262  34.714  0.00  0.00     0.091 H 
ATOM     51  H   H1S d 301      14.959   9.555  36.644  0.00  0.00     0.231 HD
ATOM     52  H   H1S d 301      18.180   3.600  37.174  0.00  0.00     0.210 HD
ATOM     53  H   H1S d 301      19.271   6.062  37.863  0.00  0.00     0.097 H 
ENDROOT
TORSDOF 16
ENDMDL
MODEL 38
REMARK VINA RESULT:      -5.2      2.697      6.308
REMARK  0 active torsions:
REMARK  status: ('A' for Active; 'I' for Inactive)
REMARK       I    between atoms: C17_1  and  O25_32 
REMARK       I    between atoms: N14_2  and  C8_16 
REMARK       I    between atoms: N14_2  and  S20_34 
REMARK       I    between atoms: C7_3  and  O3_22 
REMARK       I    between atoms: C10_4  and  O15_5 
REMARK       I    between atoms: C6_8  and  C2_27 
REMARK       I    between atoms: C6_8  and  O11_31 
REMARK       I    between atoms: C27_9  and  C19_26 
REMARK       I    between atoms: O29_10  and  S20_34 
REMARK       I    between atoms: O9_11  and  C4_14 
REMARK       I    between atoms: S16_15  and  O11_31 
REMARK       I    between atoms: O30_17  and  S20_34 
REMARK       I    between atoms: O3_22  and  C1_29 
REMARK       I    between atoms: O18_24  and  C12_33 
REMARK       I    between atoms: O18_24  and  S26_35 
REMARK       I    between atoms: O28_30  and  S20_34 
ROOT
ATOM      1  C17 H1S d 301      17.871  10.575  36.826  0.00  0.00     0.086 C 
ATOM      2  N14 H1S d 301      17.455   5.719  31.115  0.00  0.00    -0.210 NA
ATOM      3  C7  H1S d 301      17.170   9.736  34.532  0.00  0.00     0.167 C 
ATOM      4  C10 H1S d 301      17.535   8.018  30.256  0.00  0.00     0.147 C 
ATOM      5  O15 H1S d 301      16.125   8.173  30.510  0.00  0.00    -0.369 OA
ATOM      6  O5  H1S d 301      18.197   9.306  30.370  0.00  0.00    -0.350 OA
ATOM      7  O13 H1S d 301      16.770  11.114  34.218  0.00  0.00    -0.311 OA
ATOM      8  C6  H1S d 301      18.800  11.234  31.779  0.00  0.00     0.067 C 
ATOM      9  C27 H1S d 301      17.237  13.501  34.359  0.00  0.00     0.233 C 
ATOM     10  O29 H1S d 301      17.487   3.231  30.788  0.00  0.00    -0.296 OA
ATOM     11  O9  H1S d 301      18.479   6.628  33.632  0.00  0.00    -0.391 OA
ATOM     12  O34 H1S d 301      16.410  13.752  33.508  0.00  0.00    -0.642 OA
ATOM     13  O32 H1S d 301      14.705   7.750  35.386  0.00  0.00    -0.572 OA
ATOM     14  C4  H1S d 301      17.944   7.540  32.665  0.00  0.00     0.083 C 
ATOM     15  S16 H1S d 301      20.991  12.229  31.671  0.00  0.00     0.251 S 
ATOM     16  C8  H1S d 301      18.137   7.002  31.245  0.00  0.00     0.081 C 
ATOM     17  O30 H1S d 301      19.493   4.457  29.879  0.00  0.00    -0.296 OA
ATOM     18  O23 H1S d 301      20.328  13.751  31.725  0.00  0.00    -0.572 OA
ATOM     19  O35 H1S d 301      18.123  14.500  34.781  0.00  0.00    -0.642 OA
ATOM     20  O31 H1S d 301      13.521   8.795  37.085  0.00  0.00    -0.572 OA
ATOM     21  O22 H1S d 301      22.188  12.271  30.918  0.00  0.00    -0.572 OA
ATOM     22  O3  H1S d 301      18.564   9.516  34.131  0.00  0.00    -0.348 OA
ATOM     23  O33 H1S d 301      15.588   7.525  37.749  0.00  0.00    -0.572 OA
ATOM     24  O18 H1S d 301      15.597   9.782  36.397  0.00  0.00    -0.244 OA
ATOM     25  O21 H1S d 301      21.303  11.799  32.998  0.00  0.00    -0.572 OA
ATOM     26  C19 H1S d 301      17.287  12.154  34.944  0.00  0.00     0.147 C 
ATOM     27  C2  H1S d 301      18.091   9.862  31.713  0.00  0.00     0.091 C 
ATOM     28  C24 H1S d 301      17.818  11.956  36.174  0.00  0.00    -0.034 C 
ATOM     29  C1  H1S d 301      18.665   8.902  32.817  0.00  0.00     0.095 C 
ATOM     30  O28 H1S d 301      18.975   4.122  32.327  0.00  0.00    -0.296 OA
ATOM     31  O11 H1S d 301      20.011  11.243  31.009  0.00  0.00    -0.254 OA
ATOM     32  O25 H1S d 301      19.231  10.120  36.853  0.00  0.00    -0.389 OA
ATOM     33  C12 H1S d 301      16.984   9.533  36.066  0.00  0.00     0.135 C 
ATOM     34  S20 H1S d 301      18.345   4.330  31.069  0.00  0.00     0.156 S 
ATOM     35  S26 H1S d 301      14.823   8.468  36.615  0.00  0.00     0.252 S 
ATOM     36  H   H1S d 301      17.486  10.663  37.820  0.00  0.00     0.093 H 
ATOM     37  H   H1S d 301      16.916   5.755  30.250  0.00  0.00     0.140 HD
ATOM     38  H   H1S d 301      16.571   9.028  33.999  0.00  0.00     0.134 H 
ATOM     39  H   H1S d 301      17.681   7.647  29.262  0.00  0.00     0.131 H 
ATOM     40  H   H1S d 301      15.994   8.508  31.410  0.00  0.00     0.212 HD
ATOM     41  H   H1S d 301      19.037  11.453  32.799  0.00  0.00     0.080 H 
ATOM     42  H   H1S d 301      18.140  11.971  31.372  0.00  0.00     0.080 H 
ATOM     43  H   H1S d 301      17.056   3.369  29.931  0.00  0.00     0.231 HD
ATOM     44  H   H1S d 301      18.346   6.987  34.523  0.00  0.00     0.210 HD
ATOM     45  H   H1S d 301      16.894   7.657  32.835  0.00  0.00     0.089 H 
ATOM     46  H   H1S d 301      19.178   6.864  31.037  0.00  0.00     0.076 H 
ATOM     47  H   H1S d 301      19.058   4.598  29.024  0.00  0.00     0.231 HD
ATOM     48  H   H1S d 301      17.048   9.984  31.917  0.00  0.00     0.090 H 
ATOM     49  H   H1S d 301      18.200  12.765  36.687  0.00  0.00     0.085 H 
ATOM     50  H   H1S d 301      19.713   8.725  32.695  0.00  0.00     0.091 H 
ATOM     51  H   H1S d 301      18.299   4.049  33.019  0.00  0.00     0.231 HD
ATOM     52  H   H1S d 301      19.565  10.045  35.945  0.00  0.00     0.210 HD
ATOM     53  H   H1S d 301      17.264   8.538  36.344  0.00  0.00     0.097 H 
ENDROOT
TORSDOF 16
ENDMDL
MODEL 39
REMARK VINA RESULT:      -5.1      3.414      7.546
REMARK  0 active torsions:
REMARK  status: ('A' for Active; 'I' for Inactive)
REMARK       I    between atoms: C17_1  and  O25_32 
REMARK       I    between atoms: N14_2  and  C8_16 
REMARK       I    between atoms: N14_2  and  S20_34 
REMARK       I    between atoms: C7_3  and  O3_22 
REMARK       I    between atoms: C10_4  and  O15_5 
REMARK       I    between atoms: C6_8  and  C2_27 
REMARK       I    between atoms: C6_8  and  O11_31 
REMARK       I    between atoms: C27_9  and  C19_26 
REMARK       I    between atoms: O29_10  and  S20_34 
REMARK       I    between atoms: O9_11  and  C4_14 
REMARK       I    between atoms: S16_15  and  O11_31 
REMARK       I    between atoms: O30_17  and  S20_34 
REMARK       I    between atoms: O3_22  and  C1_29 
REMARK       I    between atoms: O18_24  and  C12_33 
REMARK       I    between atoms: O18_24  and  S26_35 
REMARK       I    between atoms: O28_30  and  S20_34 
ROOT
ATOM      1  C17 H1S d 301      21.898   6.204  36.099  0.00  0.00     0.086 C 
ATOM      2  N14 H1S d 301      15.258   9.025  38.175  0.00  0.00    -0.210 NA
ATOM      3  C7  H1S d 301      19.768   7.567  35.847  0.00  0.00     0.167 C 
ATOM      4  C10 H1S d 301      15.255   8.566  35.763  0.00  0.00     0.147 C 
ATOM      5  O15 H1S d 301      15.947   9.805  35.516  0.00  0.00    -0.369 OA
ATOM      6  O5  H1S d 301      15.604   7.598  34.739  0.00  0.00    -0.350 OA
ATOM      7  O13 H1S d 301      20.077   7.672  34.415  0.00  0.00    -0.311 OA
ATOM      8  C6  H1S d 301      17.347   6.248  33.638  0.00  0.00     0.067 C 
ATOM      9  C27 H1S d 301      20.884   6.610  32.376  0.00  0.00     0.233 C 
ATOM     10  O29 H1S d 301      14.104   9.680  40.306  0.00  0.00    -0.296 OA
ATOM     11  O9  H1S d 301      17.516   7.292  38.500  0.00  0.00    -0.391 OA
ATOM     12  O34 H1S d 301      20.453   7.513  31.690  0.00  0.00    -0.642 OA
ATOM     13  O32 H1S d 301      20.571  10.204  37.622  0.00  0.00    -0.572 OA
ATOM     14  C4  H1S d 301      17.122   7.780  37.212  0.00  0.00     0.083 C 
ATOM     15  S16 H1S d 301      16.950   3.955  33.016  0.00  0.00     0.251 S 
ATOM     16  C8  H1S d 301      15.614   8.036  37.165  0.00  0.00     0.081 C 
ATOM     17  O30 H1S d 301      13.125   7.678  39.130  0.00  0.00    -0.296 OA
ATOM     18  O23 H1S d 301      17.714   4.194  31.560  0.00  0.00    -0.572 OA
ATOM     19  O35 H1S d 301      21.344   5.435  31.768  0.00  0.00    -0.642 OA
ATOM     20  O31 H1S d 301      22.792  10.699  37.174  0.00  0.00    -0.572 OA
ATOM     21  O22 H1S d 301      15.942   2.976  32.856  0.00  0.00    -0.572 OA
ATOM     22  O3  H1S d 301      18.927   6.391  36.092  0.00  0.00    -0.348 OA
ATOM     23  O33 H1S d 301      22.345   8.917  38.892  0.00  0.00    -0.572 OA
ATOM     24  O18 H1S d 301      21.909   8.642  36.313  0.00  0.00    -0.244 OA
ATOM     25  O21 H1S d 301      17.895   3.482  33.977  0.00  0.00    -0.572 OA
ATOM     26  C19 H1S d 301      20.930   6.771  33.836  0.00  0.00     0.147 C 
ATOM     27  C2  H1S d 301      17.025   7.272  34.751  0.00  0.00     0.091 C 
ATOM     28  C24 H1S d 301      21.804   6.053  34.581  0.00  0.00    -0.034 C 
ATOM     29  C1  H1S d 301      17.513   6.729  36.143  0.00  0.00     0.095 C 
ATOM     30  O28 H1S d 301      15.347   7.724  40.326  0.00  0.00    -0.296 OA
ATOM     31  O11 H1S d 301      16.308   5.267  33.503  0.00  0.00    -0.254 OA
ATOM     32  O25 H1S d 301      21.368   5.026  36.722  0.00  0.00    -0.389 OA
ATOM     33  C12 H1S d 301      21.122   7.463  36.611  0.00  0.00     0.135 C 
ATOM     34  S20 H1S d 301      14.480   8.538  39.547  0.00  0.00     0.156 S 
ATOM     35  S26 H1S d 301      21.880   9.651  37.476  0.00  0.00     0.252 S 
ATOM     36  H   H1S d 301      22.928   6.333  36.356  0.00  0.00     0.093 H 
ATOM     37  H   H1S d 301      14.656   9.712  37.721  0.00  0.00     0.140 HD
ATOM     38  H   H1S d 301      19.225   8.423  36.189  0.00  0.00     0.134 H 
ATOM     39  H   H1S d 301      14.198   8.733  35.727  0.00  0.00     0.131 H 
ATOM     40  H   H1S d 301      16.905   9.652  35.550  0.00  0.00     0.212 HD
ATOM     41  H   H1S d 301      18.263   5.751  33.879  0.00  0.00     0.080 H 
ATOM     42  H   H1S d 301      17.430   6.777  32.712  0.00  0.00     0.080 H 
ATOM     43  H   H1S d 301      13.513  10.238  39.777  0.00  0.00     0.231 HD
ATOM     44  H   H1S d 301      18.474   7.137  38.507  0.00  0.00     0.210 HD
ATOM     45  H   H1S d 301      17.621   8.707  37.018  0.00  0.00     0.089 H 
ATOM     46  H   H1S d 301      15.076   7.131  37.361  0.00  0.00     0.076 H 
ATOM     47  H   H1S d 301      12.538   8.238  38.599  0.00  0.00     0.231 HD
ATOM     48  H   H1S d 301      17.554   8.183  34.568  0.00  0.00     0.090 H 
ATOM     49  H   H1S d 301      22.429   5.382  34.107  0.00  0.00     0.085 H 
ATOM     50  H   H1S d 301      17.037   5.809  36.410  0.00  0.00     0.091 H 
ATOM     51  H   H1S d 301      16.138   8.231  40.568  0.00  0.00     0.231 HD
ATOM     52  H   H1S d 301      20.434   4.924  36.479  0.00  0.00     0.210 HD
ATOM     53  H   H1S d 301      20.947   7.385  37.664  0.00  0.00     0.097 H 
ENDROOT
TORSDOF 16
ENDMDL
MODEL 40
REMARK VINA RESULT:      -5.1      3.261      5.638
REMARK  0 active torsions:
REMARK  status: ('A' for Active; 'I' for Inactive)
REMARK       I    between atoms: C17_1  and  O25_32 
REMARK       I    between atoms: N14_2  and  C8_16 
REMARK       I    between atoms: N14_2  and  S20_34 
REMARK       I    between atoms: C7_3  and  O3_22 
REMARK       I    between atoms: C10_4  and  O15_5 
REMARK       I    between atoms: C6_8  and  C2_27 
REMARK       I    between atoms: C6_8  and  O11_31 
REMARK       I    between atoms: C27_9  and  C19_26 
REMARK       I    between atoms: O29_10  and  S20_34 
REMARK       I    between atoms: O9_11  and  C4_14 
REMARK       I    between atoms: S16_15  and  O11_31 
REMARK       I    between atoms: O30_17  and  S20_34 
REMARK       I    between atoms: O3_22  and  C1_29 
REMARK       I    between atoms: O18_24  and  C12_33 
REMARK       I    between atoms: O18_24  and  S26_35 
REMARK       I    between atoms: O28_30  and  S20_34 
ROOT
ATOM      1  C17 H1S d 301      20.520   3.066  32.861  0.00  0.00     0.086 C 
ATOM      2  N14 H1S d 301      15.716   8.668  34.241  0.00  0.00    -0.210 NA
ATOM      3  C7  H1S d 301      18.903   4.457  34.242  0.00  0.00     0.167 C 
ATOM      4  C10 H1S d 301      17.015   8.163  36.262  0.00  0.00     0.147 C 
ATOM      5  O15 H1S d 301      16.144   7.054  36.557  0.00  0.00    -0.369 OA
ATOM      6  O5  H1S d 301      18.344   7.892  36.782  0.00  0.00    -0.350 OA
ATOM      7  O13 H1S d 301      19.404   3.750  35.429  0.00  0.00    -0.311 OA
ATOM      8  C6  H1S d 301      20.359   6.475  36.750  0.00  0.00     0.067 C 
ATOM      9  C27 H1S d 301      21.293   2.820  36.655  0.00  0.00     0.233 C 
ATOM     10  O29 H1S d 301      14.083  10.072  32.952  0.00  0.00    -0.296 OA
ATOM     11  O9  H1S d 301      17.670   7.306  32.648  0.00  0.00    -0.391 OA
ATOM     12  O34 H1S d 301      20.633   2.716  37.667  0.00  0.00    -0.642 OA
ATOM     13  O32 H1S d 301      16.053   3.334  33.075  0.00  0.00    -0.572 OA
ATOM     14  C4  H1S d 301      17.614   7.143  34.070  0.00  0.00     0.083 C 
ATOM     15  S16 H1S d 301      22.568   7.433  36.834  0.00  0.00     0.251 S 
ATOM     16  C8  H1S d 301      17.060   8.403  34.741  0.00  0.00     0.081 C 
ATOM     17  O30 H1S d 301      16.102  11.305  33.823  0.00  0.00    -0.296 OA
ATOM     18  O23 H1S d 301      23.058   6.265  37.908  0.00  0.00    -0.572 OA
ATOM     19  O35 H1S d 301      22.680   2.635  36.709  0.00  0.00    -0.642 OA
ATOM     20  O31 H1S d 301      16.271   1.043  32.781  0.00  0.00    -0.572 OA
ATOM     21  O22 H1S d 301      23.283   8.627  37.088  0.00  0.00    -0.572 OA
ATOM     22  O3  H1S d 301      19.685   5.678  34.021  0.00  0.00    -0.348 OA
ATOM     23  O33 H1S d 301      17.147   2.518  30.941  0.00  0.00    -0.572 OA
ATOM     24  O18 H1S d 301      18.245   2.295  33.322  0.00  0.00    -0.244 OA
ATOM     25  O21 H1S d 301      22.855   7.005  35.502  0.00  0.00    -0.572 OA
ATOM     26  C19 H1S d 301      20.622   3.126  35.384  0.00  0.00     0.147 C 
ATOM     27  C2  H1S d 301      18.954   6.726  36.156  0.00  0.00     0.091 C 
ATOM     28  C24 H1S d 301      21.193   2.785  34.204  0.00  0.00    -0.034 C 
ATOM     29  C1  H1S d 301      19.043   6.851  34.592  0.00  0.00     0.095 C 
ATOM     30  O28 H1S d 301      16.121   9.616  31.946  0.00  0.00    -0.296 OA
ATOM     31  O11 H1S d 301      21.060   7.703  36.993  0.00  0.00    -0.254 OA
ATOM     32  O25 H1S d 301      21.235   4.112  32.188  0.00  0.00    -0.389 OA
ATOM     33  C12 H1S d 301      19.021   3.482  33.032  0.00  0.00     0.135 C 
ATOM     34  S20 H1S d 301      15.477   9.909  33.180  0.00  0.00     0.156 S 
ATOM     35  S26 H1S d 301      16.900   2.300  32.570  0.00  0.00     0.252 S 
ATOM     36  H   H1S d 301      20.542   2.166  32.284  0.00  0.00     0.093 H 
ATOM     37  H   H1S d 301      15.128   8.855  35.053  0.00  0.00     0.140 HD
ATOM     38  H   H1S d 301      17.883   4.752  34.370  0.00  0.00     0.134 H 
ATOM     39  H   H1S d 301      16.640   9.048  36.731  0.00  0.00     0.131 H 
ATOM     40  H   H1S d 301      16.485   6.252  36.131  0.00  0.00     0.212 HD
ATOM     41  H   H1S d 301      20.925   5.883  36.062  0.00  0.00     0.080 H 
ATOM     42  H   H1S d 301      20.240   5.968  37.685  0.00  0.00     0.080 H 
ATOM     43  H   H1S d 301      13.640  10.272  33.792  0.00  0.00     0.231 HD
ATOM     44  H   H1S d 301      18.022   6.498  32.244  0.00  0.00     0.210 HD
ATOM     45  H   H1S d 301      16.961   6.328  34.306  0.00  0.00     0.089 H 
ATOM     46  H   H1S d 301      17.683   9.245  34.523  0.00  0.00     0.076 H 
ATOM     47  H   H1S d 301      15.659  11.499  34.663  0.00  0.00     0.231 HD
ATOM     48  H   H1S d 301      18.318   5.892  36.367  0.00  0.00     0.090 H 
ATOM     49  H   H1S d 301      22.113   2.318  34.212  0.00  0.00     0.085 H 
ATOM     50  H   H1S d 301      19.668   7.663  34.284  0.00  0.00     0.091 H 
ATOM     51  H   H1S d 301      15.752   8.800  31.574  0.00  0.00     0.231 HD
ATOM     52  H   H1S d 301      21.206   4.920  32.723  0.00  0.00     0.210 HD
ATOM     53  H   H1S d 301      18.666   3.955  32.140  0.00  0.00     0.097 H 
ENDROOT
TORSDOF 16
ENDMDL
MODEL 41
REMARK VINA RESULT:      -5.1      2.499      6.552
REMARK  0 active torsions:
REMARK  status: ('A' for Active; 'I' for Inactive)
REMARK       I    between atoms: C17_1  and  O25_32 
REMARK       I    between atoms: N14_2  and  C8_16 
REMARK       I    between atoms: N14_2  and  S20_34 
REMARK       I    between atoms: C7_3  and  O3_22 
REMARK       I    between atoms: C10_4  and  O15_5 
REMARK       I    between atoms: C6_8  and  C2_27 
REMARK       I    between atoms: C6_8  and  O11_31 
REMARK       I    between atoms: C27_9  and  C19_26 
REMARK       I    between atoms: O29_10  and  S20_34 
REMARK       I    between atoms: O9_11  and  C4_14 
REMARK       I    between atoms: S16_15  and  O11_31 
REMARK       I    between atoms: O30_17  and  S20_34 
REMARK       I    between atoms: O3_22  and  C1_29 
REMARK       I    between atoms: O18_24  and  C12_33 
REMARK       I    between atoms: O18_24  and  S26_35 
REMARK       I    between atoms: O28_30  and  S20_34 
ROOT
ATOM      1  C17 H1S d 301      17.541  10.891  37.027  0.00  0.00     0.086 C 
ATOM      2  N14 H1S d 301      19.153   4.471  33.485  0.00  0.00    -0.210 NA
ATOM      3  C7  H1S d 301      17.141   8.944  35.445  0.00  0.00     0.167 C 
ATOM      4  C10 H1S d 301      17.870   5.947  32.000  0.00  0.00     0.147 C 
ATOM      5  O15 H1S d 301      16.644   5.539  32.637  0.00  0.00    -0.369 OA
ATOM      6  O5  H1S d 301      17.735   7.305  31.504  0.00  0.00    -0.350 OA
ATOM      7  O13 H1S d 301      16.023   9.711  34.879  0.00  0.00    -0.311 OA
ATOM      8  C6  H1S d 301      17.358   9.689  31.998  0.00  0.00     0.067 C 
ATOM      9  C27 H1S d 301      15.133  11.855  34.142  0.00  0.00     0.233 C 
ATOM     10  O29 H1S d 301      20.492   2.394  33.925  0.00  0.00    -0.296 OA
ATOM     11  O9  H1S d 301      19.809   6.714  35.143  0.00  0.00    -0.391 OA
ATOM     12  O34 H1S d 301      14.208  11.318  33.570  0.00  0.00    -0.642 OA
ATOM     13  O32 H1S d 301      16.270   6.633  37.601  0.00  0.00    -0.572 OA
ATOM     14  C4  H1S d 301      18.755   6.778  34.175  0.00  0.00     0.083 C 
ATOM     15  S16 H1S d 301      18.627  11.414  30.896  0.00  0.00     0.251 S 
ATOM     16  C8  H1S d 301      19.039   5.841  32.998  0.00  0.00     0.081 C 
ATOM     17  O30 H1S d 301      21.386   3.877  32.095  0.00  0.00    -0.296 OA
ATOM     18  O23 H1S d 301      17.255  12.331  30.703  0.00  0.00    -0.572 OA
ATOM     19  O35 H1S d 301      15.378  13.219  33.935  0.00  0.00    -0.642 OA
ATOM     20  O31 H1S d 301      14.919   7.638  39.196  0.00  0.00    -0.572 OA
ATOM     21  O22 H1S d 301      19.510  11.668  29.821  0.00  0.00    -0.572 OA
ATOM     22  O3  H1S d 301      18.372   9.231  34.700  0.00  0.00    -0.348 OA
ATOM     23  O33 H1S d 301      17.406   7.857  39.505  0.00  0.00    -0.572 OA
ATOM     24  O18 H1S d 301      16.028   9.059  37.614  0.00  0.00    -0.244 OA
ATOM     25  O21 H1S d 301      19.277  11.780  32.115  0.00  0.00    -0.572 OA
ATOM     26  C19 H1S d 301      15.975  11.068  35.054  0.00  0.00     0.147 C 
ATOM     27  C2  H1S d 301      17.505   8.263  32.578  0.00  0.00     0.091 C 
ATOM     28  C24 H1S d 301      16.670  11.674  36.045  0.00  0.00    -0.034 C 
ATOM     29  C1  H1S d 301      18.634   8.237  33.670  0.00  0.00     0.095 C 
ATOM     30  O28 H1S d 301      21.427   4.418  34.560  0.00  0.00    -0.296 OA
ATOM     31  O11 H1S d 301      18.268   9.917  30.912  0.00  0.00    -0.254 OA
ATOM     32  O25 H1S d 301      18.921  11.159  36.748  0.00  0.00    -0.389 OA
ATOM     33  C12 H1S d 301      17.278   9.350  36.943  0.00  0.00     0.135 C 
ATOM     34  S20 H1S d 301      20.642   3.763  33.572  0.00  0.00     0.156 S 
ATOM     35  S26 H1S d 301      16.123   7.771  38.452  0.00  0.00     0.252 S 
ATOM     36  H   H1S d 301      17.290  11.208  38.018  0.00  0.00     0.093 H 
ATOM     37  H   H1S d 301      18.583   3.888  32.872  0.00  0.00     0.140 HD
ATOM     38  H   H1S d 301      16.963   7.891  35.371  0.00  0.00     0.134 H 
ATOM     39  H   H1S d 301      18.076   5.301  31.172  0.00  0.00     0.131 H 
ATOM     40  H   H1S d 301      16.460   6.125  33.388  0.00  0.00     0.212 HD
ATOM     41  H   H1S d 301      17.556  10.400  32.772  0.00  0.00     0.080 H 
ATOM     42  H   H1S d 301      16.360   9.797  31.626  0.00  0.00     0.080 H 
ATOM     43  H   H1S d 301      19.956   1.944  33.254  0.00  0.00     0.231 HD
ATOM     44  H   H1S d 301      19.610   7.314  35.878  0.00  0.00     0.210 HD
ATOM     45  H   H1S d 301      17.838   6.467  34.631  0.00  0.00     0.089 H 
ATOM     46  H   H1S d 301      19.955   6.114  32.517  0.00  0.00     0.076 H 
ATOM     47  H   H1S d 301      20.847   3.429  31.425  0.00  0.00     0.231 HD
ATOM     48  H   H1S d 301      16.596   7.974  33.061  0.00  0.00     0.090 H 
ATOM     49  H   H1S d 301      16.609  12.700  36.142  0.00  0.00     0.085 H 
ATOM     50  H   H1S d 301      19.587   8.520  33.276  0.00  0.00     0.091 H 
ATOM     51  H   H1S d 301      20.987   4.348  35.422  0.00  0.00     0.231 HD
ATOM     52  H   H1S d 301      19.132  10.867  35.847  0.00  0.00     0.210 HD
ATOM     53  H   H1S d 301      18.084   8.814  37.399  0.00  0.00     0.097 H 
ENDROOT
TORSDOF 16
ENDMDL
MODEL 42
REMARK VINA RESULT:      -5.0      3.066      6.608
REMARK  0 active torsions:
REMARK  status: ('A' for Active; 'I' for Inactive)
REMARK       I    between atoms: C17_1  and  O25_32 
REMARK       I    between atoms: N14_2  and  C8_16 
REMARK       I    between atoms: N14_2  and  S20_34 
REMARK       I    between atoms: C7_3  and  O3_22 
REMARK       I    between atoms: C10_4  and  O15_5 
REMARK       I    between atoms: C6_8  and  C2_27 
REMARK       I    between atoms: C6_8  and  O11_31 
REMARK       I    between atoms: C27_9  and  C19_26 
REMARK       I    between atoms: O29_10  and  S20_34 
REMARK       I    between atoms: O9_11  and  C4_14 
REMARK       I    between atoms: S16_15  and  O11_31 
REMARK       I    between atoms: O30_17  and  S20_34 
REMARK       I    between atoms: O3_22  and  C1_29 
REMARK       I    between atoms: O18_24  and  C12_33 
REMARK       I    between atoms: O18_24  and  S26_35 
REMARK       I    between atoms: O28_30  and  S20_34 
ROOT
ATOM      1  C17 H1S d 301      16.875   5.043  33.875  0.00  0.00     0.086 C 
ATOM      2  N14 H1S d 301      19.355  11.793  31.718  0.00  0.00    -0.210 NA
ATOM      3  C7  H1S d 301      18.462   7.026  33.809  0.00  0.00     0.167 C 
ATOM      4  C10 H1S d 301      21.254  10.279  32.076  0.00  0.00     0.147 C 
ATOM      5  O15 H1S d 301      21.189  10.517  33.496  0.00  0.00    -0.369 OA
ATOM      6  O5  H1S d 301      21.772   8.945  31.827  0.00  0.00    -0.350 OA
ATOM      7  O13 H1S d 301      19.452   6.179  34.488  0.00  0.00    -0.311 OA
ATOM      8  C6  H1S d 301      21.503   6.510  32.086  0.00  0.00     0.067 C 
ATOM      9  C27 H1S d 301      20.513   3.999  34.723  0.00  0.00     0.233 C 
ATOM     10  O29 H1S d 301      18.375  13.971  30.947  0.00  0.00    -0.296 OA
ATOM     11  O9  H1S d 301      17.593   9.540  31.549  0.00  0.00    -0.391 OA
ATOM     12  O34 H1S d 301      21.417   4.468  35.383  0.00  0.00    -0.642 OA
ATOM     13  O32 H1S d 301      16.854   9.102  35.772  0.00  0.00    -0.572 OA
ATOM     14  C4  H1S d 301      18.916   9.421  32.086  0.00  0.00     0.083 C 
ATOM     15  S16 H1S d 301      21.981   4.996  30.275  0.00  0.00     0.251 S 
ATOM     16  C8  H1S d 301      19.856  10.450  31.452  0.00  0.00     0.081 C 
ATOM     17  O30 H1S d 301      19.670  12.700  29.198  0.00  0.00    -0.296 OA
ATOM     18  O23 H1S d 301      22.742   3.951  31.319  0.00  0.00    -0.572 OA
ATOM     19  O35 H1S d 301      20.609   2.684  34.253  0.00  0.00    -0.642 OA
ATOM     20  O31 H1S d 301      15.985   7.869  37.533  0.00  0.00    -0.572 OA
ATOM     21  O22 H1S d 301      22.587   4.899  29.000  0.00  0.00    -0.572 OA
ATOM     22  O3  H1S d 301      18.622   6.915  32.355  0.00  0.00    -0.348 OA
ATOM     23  O33 H1S d 301      14.659   7.897  35.396  0.00  0.00    -0.572 OA
ATOM     24  O18 H1S d 301      16.965   6.668  35.703  0.00  0.00    -0.244 OA
ATOM     25  O21 H1S d 301      20.605   4.631  30.154  0.00  0.00    -0.572 OA
ATOM     26  C19 H1S d 301      19.325   4.816  34.441  0.00  0.00     0.147 C 
ATOM     27  C2  H1S d 301      20.903   7.907  32.367  0.00  0.00     0.091 C 
ATOM     28  C24 H1S d 301      18.138   4.231  34.155  0.00  0.00    -0.034 C 
ATOM     29  C1  H1S d 301      19.436   7.988  31.810  0.00  0.00     0.095 C 
ATOM     30  O28 H1S d 301      17.421  12.024  30.125  0.00  0.00    -0.296 OA
ATOM     31  O11 H1S d 301      22.105   6.443  30.785  0.00  0.00    -0.254 OA
ATOM     32  O25 H1S d 301      16.548   4.939  32.483  0.00  0.00    -0.389 OA
ATOM     33  C12 H1S d 301      17.049   6.550  34.262  0.00  0.00     0.135 C 
ATOM     34  S20 H1S d 301      18.643  12.649  30.499  0.00  0.00     0.156 S 
ATOM     35  S26 H1S d 301      16.153   7.908  36.122  0.00  0.00     0.252 S 
ATOM     36  H   H1S d 301      16.084   4.645  34.476  0.00  0.00     0.093 H 
ATOM     37  H   H1S d 301      20.146  12.347  32.046  0.00  0.00     0.140 HD
ATOM     38  H   H1S d 301      18.595   8.056  34.066  0.00  0.00     0.134 H 
ATOM     39  H   H1S d 301      21.913  10.990  31.623  0.00  0.00     0.131 H 
ATOM     40  H   H1S d 301      20.591   9.872  33.904  0.00  0.00     0.212 HD
ATOM     41  H   H1S d 301      20.723   5.780  32.145  0.00  0.00     0.080 H 
ATOM     42  H   H1S d 301      22.261   6.319  32.816  0.00  0.00     0.080 H 
ATOM     43  H   H1S d 301      19.205  14.400  31.203  0.00  0.00     0.231 HD
ATOM     44  H   H1S d 301      17.015   8.880  31.963  0.00  0.00     0.210 HD
ATOM     45  H   H1S d 301      18.885   9.606  33.140  0.00  0.00     0.089 H 
ATOM     46  H   H1S d 301      19.908  10.303  30.393  0.00  0.00     0.076 H 
ATOM     47  H   H1S d 301      20.501  13.127  29.459  0.00  0.00     0.231 HD
ATOM     48  H   H1S d 301      20.845   8.070  33.423  0.00  0.00     0.090 H 
ATOM     49  H   H1S d 301      18.085   3.201  34.127  0.00  0.00     0.085 H 
ATOM     50  H   H1S d 301      19.394   7.832  30.752  0.00  0.00     0.091 H 
ATOM     51  H   H1S d 301      16.825  11.996  30.889  0.00  0.00     0.231 HD
ATOM     52  H   H1S d 301      17.274   5.304  31.952  0.00  0.00     0.210 HD
ATOM     53  H   H1S d 301      16.291   7.141  33.791  0.00  0.00     0.097 H 
ENDROOT
TORSDOF 16
ENDMDL
MODEL 43
REMARK VINA RESULT:      -5.0      2.738      4.225
REMARK  0 active torsions:
REMARK  status: ('A' for Active; 'I' for Inactive)
REMARK       I    between atoms: C17_1  and  O25_32 
REMARK       I    between atoms: N14_2  and  C8_16 
REMARK       I    between atoms: N14_2  and  S20_34 
REMARK       I    between atoms: C7_3  and  O3_22 
REMARK       I    between atoms: C10_4  and  O15_5 
REMARK       I    between atoms: C6_8  and  C2_27 
REMARK       I    between atoms: C6_8  and  O11_31 
REMARK       I    between atoms: C27_9  and  C19_26 
REMARK       I    between atoms: O29_10  and  S20_34 
REMARK       I    between atoms: O9_11  and  C4_14 
REMARK       I    between atoms: S16_15  and  O11_31 
REMARK       I    between atoms: O30_17  and  S20_34 
REMARK       I    between atoms: O3_22  and  C1_29 
REMARK       I    between atoms: O18_24  and  C12_33 
REMARK       I    between atoms: O18_24  and  S26_35 
REMARK       I    between atoms: O28_30  and  S20_34 
ROOT
ATOM      1  C17 H1S d 301      16.425   8.976  40.660  0.00  0.00     0.086 C 
ATOM      2  N14 H1S d 301      18.596   8.339  33.501  0.00  0.00    -0.210 NA
ATOM      3  C7  H1S d 301      16.156   8.474  38.184  0.00  0.00     0.167 C 
ATOM      4  C10 H1S d 301      16.265   9.103  33.604  0.00  0.00     0.147 C 
ATOM      5  O15 H1S d 301      15.820   7.749  33.816  0.00  0.00    -0.369 OA
ATOM      6  O5  H1S d 301      15.345  10.025  34.246  0.00  0.00    -0.350 OA
ATOM      7  O13 H1S d 301      14.704   8.471  38.404  0.00  0.00    -0.311 OA
ATOM      8  C6  H1S d 301      14.300  10.837  36.325  0.00  0.00     0.067 C 
ATOM      9  C27 H1S d 301      12.760   9.465  39.485  0.00  0.00     0.233 C 
ATOM     10  O29 H1S d 301      20.705   7.829  32.240  0.00  0.00    -0.296 OA
ATOM     11  O9  H1S d 301      18.973   9.131  36.229  0.00  0.00    -0.391 OA
ATOM     12  O34 H1S d 301      12.000   8.869  38.750  0.00  0.00    -0.642 OA
ATOM     13  O32 H1S d 301      17.534   5.502  38.057  0.00  0.00    -0.572 OA
ATOM     14  C4  H1S d 301      17.665   8.992  35.661  0.00  0.00     0.083 C 
ATOM     15  S16 H1S d 301      13.993  13.190  36.738  0.00  0.00     0.251 S 
ATOM     16  C8  H1S d 301      17.692   9.277  34.157  0.00  0.00     0.081 C 
ATOM     17  O30 H1S d 301      19.855  10.189  31.995  0.00  0.00    -0.296 OA
ATOM     18  O23 H1S d 301      12.470  12.909  37.337  0.00  0.00    -0.572 OA
ATOM     19  O35 H1S d 301      12.270  10.484  40.311  0.00  0.00    -0.642 OA
ATOM     20  O31 H1S d 301      16.875   4.344  39.955  0.00  0.00    -0.572 OA
ATOM     21  O22 H1S d 301      14.025  14.467  36.131  0.00  0.00    -0.572 OA
ATOM     22  O3  H1S d 301      16.602   9.821  37.810  0.00  0.00    -0.348 OA
ATOM     23  O33 H1S d 301      18.826   5.913  40.196  0.00  0.00    -0.572 OA
ATOM     24  O18 H1S d 301      16.336   6.678  39.825  0.00  0.00    -0.244 OA
ATOM     25  O21 H1S d 301      14.937  13.172  37.811  0.00  0.00    -0.572 OA
ATOM     26  C19 H1S d 301      14.182   9.096  39.504  0.00  0.00     0.147 C 
ATOM     27  C2  H1S d 301      15.299   9.841  35.691  0.00  0.00     0.091 C 
ATOM     28  C24 H1S d 301      14.947   9.360  40.591  0.00  0.00    -0.034 C 
ATOM     29  C1  H1S d 301      16.709   9.983  36.369  0.00  0.00     0.095 C 
ATOM     30  O28 H1S d 301      20.879   9.218  34.088  0.00  0.00    -0.296 OA
ATOM     31  O11 H1S d 301      14.359  12.122  35.690  0.00  0.00    -0.254 OA
ATOM     32  O25 H1S d 301      17.223  10.165  40.588  0.00  0.00    -0.389 OA
ATOM     33  C12 H1S d 301      16.831   8.001  39.506  0.00  0.00     0.135 C 
ATOM     34  S20 H1S d 301      20.068   8.867  32.974  0.00  0.00     0.156 S 
ATOM     35  S26 H1S d 301      17.366   5.588  39.473  0.00  0.00     0.252 S 
ATOM     36  H   H1S d 301      16.592   8.468  41.586  0.00  0.00     0.093 H 
ATOM     37  H   H1S d 301      18.104   7.971  32.688  0.00  0.00     0.140 HD
ATOM     38  H   H1S d 301      16.427   7.817  37.384  0.00  0.00     0.134 H 
ATOM     39  H   H1S d 301      16.282   9.315  32.555  0.00  0.00     0.131 H 
ATOM     40  H   H1S d 301      15.805   7.558  34.766  0.00  0.00     0.212 HD
ATOM     41  H   H1S d 301      14.535  10.951  37.362  0.00  0.00     0.080 H 
ATOM     42  H   H1S d 301      13.312  10.446  36.197  0.00  0.00     0.080 H 
ATOM     43  H   H1S d 301      20.154   7.587  31.480  0.00  0.00     0.231 HD
ATOM     44  H   H1S d 301      18.933   8.946  37.180  0.00  0.00     0.210 HD
ATOM     45  H   H1S d 301      17.325   7.987  35.801  0.00  0.00     0.089 H 
ATOM     46  H   H1S d 301      18.035  10.274  33.973  0.00  0.00     0.076 H 
ATOM     47  H   H1S d 301      19.301   9.943  31.237  0.00  0.00     0.231 HD
ATOM     48  H   H1S d 301      14.969   8.838  35.865  0.00  0.00     0.090 H 
ATOM     49  H   H1S d 301      14.517   9.836  41.399  0.00  0.00     0.085 H 
ATOM     50  H   H1S d 301      17.120  10.964  36.250  0.00  0.00     0.091 H 
ATOM     51  H   H1S d 301      21.001   8.442  34.657  0.00  0.00     0.231 HD
ATOM     52  H   H1S d 301      17.060  10.614  39.743  0.00  0.00     0.210 HD
ATOM     53  H   H1S d 301      17.896   7.986  39.393  0.00  0.00     0.097 H 
ENDROOT
TORSDOF 16
ENDMDL
MODEL 44
REMARK VINA RESULT:      -5.0      3.036      7.183
REMARK  0 active torsions:
REMARK  status: ('A' for Active; 'I' for Inactive)
REMARK       I    between atoms: C17_1  and  O25_32 
REMARK       I    between atoms: N14_2  and  C8_16 
REMARK       I    between atoms: N14_2  and  S20_34 
REMARK       I    between atoms: C7_3  and  O3_22 
REMARK       I    between atoms: C10_4  and  O15_5 
REMARK       I    between atoms: C6_8  and  C2_27 
REMARK       I    between atoms: C6_8  and  O11_31 
REMARK       I    between atoms: C27_9  and  C19_26 
REMARK       I    between atoms: O29_10  and  S20_34 
REMARK       I    between atoms: O9_11  and  C4_14 
REMARK       I    between atoms: S16_15  and  O11_31 
REMARK       I    between atoms: O30_17  and  S20_34 
REMARK       I    between atoms: O3_22  and  C1_29 
REMARK       I    between atoms: O18_24  and  C12_33 
REMARK       I    between atoms: O18_24  and  S26_35 
REMARK       I    between atoms: O28_30  and  S20_34 
ROOT
ATOM      1  C17 H1S d 301      17.553   8.311  31.901  0.00  0.00     0.086 C 
ATOM      2  N14 H1S d 301      18.002   9.135  39.350  0.00  0.00    -0.210 NA
ATOM      3  C7  H1S d 301      17.132   7.721  34.337  0.00  0.00     0.167 C 
ATOM      4  C10 H1S d 301      18.017   6.749  38.769  0.00  0.00     0.147 C 
ATOM      5  O15 H1S d 301      16.582   6.762  38.637  0.00  0.00    -0.369 OA
ATOM      6  O5  H1S d 301      18.580   5.747  37.883  0.00  0.00    -0.350 OA
ATOM      7  O13 H1S d 301      16.677   6.403  33.875  0.00  0.00    -0.311 OA
ATOM      8  C6  H1S d 301      18.921   4.939  35.580  0.00  0.00     0.067 C 
ATOM      9  C27 H1S d 301      16.974   4.505  32.377  0.00  0.00     0.233 C 
ATOM     10  O29 H1S d 301      18.224  11.014  41.000  0.00  0.00    -0.296 OA
ATOM     11  O9  H1S d 301      18.717   9.793  36.655  0.00  0.00    -0.391 OA
ATOM     12  O34 H1S d 301      16.218   3.820  33.033  0.00  0.00    -0.642 OA
ATOM     13  O32 H1S d 301      14.728   9.841  35.024  0.00  0.00    -0.572 OA
ATOM     14  C4  H1S d 301      18.221   8.496  37.005  0.00  0.00     0.083 C 
ATOM     15  S16 H1S d 301      21.044   4.057  34.862  0.00  0.00     0.251 S 
ATOM     16  C8  H1S d 301      18.584   8.146  38.451  0.00  0.00     0.081 C 
ATOM     17  O30 H1S d 301      20.225   9.491  40.834  0.00  0.00    -0.296 OA
ATOM     18  O23 H1S d 301      20.282   2.825  34.048  0.00  0.00    -0.572 OA
ATOM     19  O35 H1S d 301      17.750   3.914  31.372  0.00  0.00    -0.642 OA
ATOM     20  O31 H1S d 301      13.321   9.926  33.182  0.00  0.00    -0.572 OA
ATOM     21  O22 H1S d 301      22.302   3.602  35.320  0.00  0.00    -0.572 OA
ATOM     22  O3  H1S d 301      18.569   7.679  34.628  0.00  0.00    -0.348 OA
ATOM     23  O33 H1S d 301      15.392  11.352  33.103  0.00  0.00    -0.572 OA
ATOM     24  O18 H1S d 301      15.386   8.725  32.959  0.00  0.00    -0.244 OA
ATOM     25  O21 H1S d 301      21.253   5.156  33.973  0.00  0.00    -0.572 OA
ATOM     26  C19 H1S d 301      17.053   5.948  32.640  0.00  0.00     0.147 C 
ATOM     27  C2  H1S d 301      18.310   6.038  36.480  0.00  0.00     0.091 C 
ATOM     28  C24 H1S d 301      17.475   6.802  31.676  0.00  0.00    -0.034 C 
ATOM     29  C1  H1S d 301      18.836   7.452  36.039  0.00  0.00     0.095 C 
ATOM     30  O28 H1S d 301      19.496  11.138  39.066  0.00  0.00    -0.296 OA
ATOM     31  O11 H1S d 301      20.197   4.502  36.068  0.00  0.00    -0.254 OA
ATOM     32  O25 H1S d 301      18.930   8.705  31.975  0.00  0.00    -0.389 OA
ATOM     33  C12 H1S d 301      16.812   8.748  33.209  0.00  0.00     0.135 C 
ATOM     34  S20 H1S d 301      18.978  10.261  40.058  0.00  0.00     0.156 S 
ATOM     35  S26 H1S d 301      14.680   9.935  33.600  0.00  0.00     0.252 S 
ATOM     36  H   H1S d 301      17.069   8.794  31.079  0.00  0.00     0.093 H 
ATOM     37  H   H1S d 301      17.547   8.620  40.105  0.00  0.00     0.140 HD
ATOM     38  H   H1S d 301      16.633   8.008  35.238  0.00  0.00     0.134 H 
ATOM     39  H   H1S d 301      18.282   6.500  39.776  0.00  0.00     0.131 H 
ATOM     40  H   H1S d 301      16.343   6.988  37.725  0.00  0.00     0.212 HD
ATOM     41  H   H1S d 301      19.043   5.330  34.592  0.00  0.00     0.080 H 
ATOM     42  H   H1S d 301      18.257   4.100  35.581  0.00  0.00     0.080 H 
ATOM     43  H   H1S d 301      17.869  10.419  41.678  0.00  0.00     0.231 HD
ATOM     44  H   H1S d 301      18.477   9.994  35.737  0.00  0.00     0.210 HD
ATOM     45  H   H1S d 301      17.154   8.492  36.922  0.00  0.00     0.089 H 
ATOM     46  H   H1S d 301      19.647   8.145  38.578  0.00  0.00     0.076 H 
ATOM     47  H   H1S d 301      19.867   8.894  41.509  0.00  0.00     0.231 HD
ATOM     48  H   H1S d 301      17.247   6.051  36.365  0.00  0.00     0.090 H 
ATOM     49  H   H1S d 301      17.753   6.419  30.759  0.00  0.00     0.085 H 
ATOM     50  H   H1S d 301      19.900   7.533  36.117  0.00  0.00     0.091 H 
ATOM     51  H   H1S d 301      18.763  11.586  38.615  0.00  0.00     0.231 HD
ATOM     52  H   H1S d 301      19.355   8.258  32.725  0.00  0.00     0.210 HD
ATOM     53  H   H1S d 301      17.127   9.728  33.501  0.00  0.00     0.097 H 
ENDROOT
TORSDOF 16
ENDMDL
MODEL 45
REMARK VINA RESULT:      -5.0      3.205      7.071
REMARK  0 active torsions:
REMARK  status: ('A' for Active; 'I' for Inactive)
REMARK       I    between atoms: C17_1  and  O25_32 
REMARK       I    between atoms: N14_2  and  C8_16 
REMARK       I    between atoms: N14_2  and  S20_34 
REMARK       I    between atoms: C7_3  and  O3_22 
REMARK       I    between atoms: C10_4  and  O15_5 
REMARK       I    between atoms: C6_8  and  C2_27 
REMARK       I    between atoms: C6_8  and  O11_31 
REMARK       I    between atoms: C27_9  and  C19_26 
REMARK       I    between atoms: O29_10  and  S20_34 
REMARK       I    between atoms: O9_11  and  C4_14 
REMARK       I    between atoms: S16_15  and  O11_31 
REMARK       I    between atoms: O30_17  and  S20_34 
REMARK       I    between atoms: O3_22  and  C1_29 
REMARK       I    between atoms: O18_24  and  C12_33 
REMARK       I    between atoms: O18_24  and  S26_35 
REMARK       I    between atoms: O28_30  and  S20_34 
ROOT
ATOM      1  C17 H1S d 301      19.704   4.678  36.606  0.00  0.00     0.086 C 
ATOM      2  N14 H1S d 301      14.218   8.989  39.379  0.00  0.00    -0.210 NA
ATOM      3  C7  H1S d 301      18.598   6.839  37.358  0.00  0.00     0.167 C 
ATOM      4  C10 H1S d 301      15.456  10.218  37.652  0.00  0.00     0.147 C 
ATOM      5  O15 H1S d 301      16.486  10.541  38.605  0.00  0.00    -0.369 OA
ATOM      6  O5  H1S d 301      16.029  10.139  36.320  0.00  0.00    -0.350 OA
ATOM      7  O13 H1S d 301      19.681   7.560  36.676  0.00  0.00    -0.311 OA
ATOM      8  C6  H1S d 301      17.610   9.043  34.780  0.00  0.00     0.067 C 
ATOM      9  C27 H1S d 301      21.157   7.758  34.748  0.00  0.00     0.233 C 
ATOM     10  O29 H1S d 301      12.305   8.753  40.987  0.00  0.00    -0.296 OA
ATOM     11  O9  H1S d 301      15.275   6.522  38.378  0.00  0.00    -0.391 OA
ATOM     12  O34 H1S d 301      21.475   8.886  35.060  0.00  0.00    -0.642 OA
ATOM     13  O32 H1S d 301      18.965   6.562  40.604  0.00  0.00    -0.572 OA
ATOM     14  C4  H1S d 301      15.845   7.785  38.015  0.00  0.00     0.083 C 
ATOM     15  S16 H1S d 301      16.998   8.539  32.505  0.00  0.00     0.251 S 
ATOM     16  C8  H1S d 301      14.783   8.887  38.039  0.00  0.00     0.081 C 
ATOM     17  O30 H1S d 301      11.644   9.091  38.579  0.00  0.00    -0.296 OA
ATOM     18  O23 H1S d 301      18.484   9.054  31.968  0.00  0.00    -0.572 OA
ATOM     19  O35 H1S d 301      21.519   7.258  33.491  0.00  0.00    -0.642 OA
ATOM     20  O31 H1S d 301      21.074   5.680  40.997  0.00  0.00    -0.572 OA
ATOM     21  O22 H1S d 301      16.031   8.788  31.503  0.00  0.00    -0.572 OA
ATOM     22  O3  H1S d 301      17.472   6.642  36.439  0.00  0.00    -0.348 OA
ATOM     23  O33 H1S d 301      19.239   4.049  40.447  0.00  0.00    -0.572 OA
ATOM     24  O18 H1S d 301      20.292   5.742  38.730  0.00  0.00    -0.244 OA
ATOM     25  O21 H1S d 301      17.044   7.133  32.755  0.00  0.00    -0.572 OA
ATOM     26  C19 H1S d 301      20.408   6.929  35.702  0.00  0.00     0.147 C 
ATOM     27  C2  H1S d 301      17.023   9.078  36.210  0.00  0.00     0.091 C 
ATOM     28  C24 H1S d 301      20.452   5.577  35.623  0.00  0.00    -0.034 C 
ATOM     29  C1  H1S d 301      16.452   7.666  36.595  0.00  0.00     0.095 C 
ATOM     30  O28 H1S d 301      12.689   6.996  39.524  0.00  0.00    -0.296 OA
ATOM     31  O11 H1S d 301      16.604   9.295  33.787  0.00  0.00    -0.254 OA
ATOM     32  O25 H1S d 301      18.602   4.057  35.931  0.00  0.00    -0.389 OA
ATOM     33  C12 H1S d 301      19.177   5.476  37.845  0.00  0.00     0.135 C 
ATOM     34  S20 H1S d 301      12.698   8.411  39.664  0.00  0.00     0.156 S 
ATOM     35  S26 H1S d 301      19.898   5.555  40.208  0.00  0.00     0.252 S 
ATOM     36  H   H1S d 301      20.388   3.939  36.966  0.00  0.00     0.093 H 
ATOM     37  H   H1S d 301      14.210   9.979  39.625  0.00  0.00     0.140 HD
ATOM     38  H   H1S d 301      18.232   7.396  38.195  0.00  0.00     0.134 H 
ATOM     39  H   H1S d 301      14.710  10.986  37.656  0.00  0.00     0.131 H 
ATOM     40  H   H1S d 301      17.161   9.844  38.600  0.00  0.00     0.212 HD
ATOM     41  H   H1S d 301      18.036   8.078  34.604  0.00  0.00     0.080 H 
ATOM     42  H   H1S d 301      18.353   9.809  34.705  0.00  0.00     0.080 H 
ATOM     43  H   H1S d 301      12.311   9.717  41.087  0.00  0.00     0.231 HD
ATOM     44  H   H1S d 301      15.964   5.839  38.357  0.00  0.00     0.210 HD
ATOM     45  H   H1S d 301      16.606   8.044  38.722  0.00  0.00     0.089 H 
ATOM     46  H   H1S d 301      13.997   8.662  37.348  0.00  0.00     0.076 H 
ATOM     47  H   H1S d 301      11.655  10.056  38.679  0.00  0.00     0.231 HD
ATOM     48  H   H1S d 301      17.797   9.304  36.913  0.00  0.00     0.090 H 
ATOM     49  H   H1S d 301      21.009   5.140  34.873  0.00  0.00     0.085 H 
ATOM     50  H   H1S d 301      15.668   7.352  35.938  0.00  0.00     0.091 H 
ATOM     51  H   H1S d 301      13.307   6.603  40.160  0.00  0.00     0.231 HD
ATOM     52  H   H1S d 301      17.991   4.740  35.611  0.00  0.00     0.210 HD
ATOM     53  H   H1S d 301      18.420   4.914  38.352  0.00  0.00     0.097 H 
ENDROOT
TORSDOF 16
ENDMDL
MODEL 46
REMARK VINA RESULT:      -5.0      2.822      7.978
REMARK  0 active torsions:
REMARK  status: ('A' for Active; 'I' for Inactive)
REMARK       I    between atoms: C17_1  and  O25_32 
REMARK       I    between atoms: N14_2  and  C8_16 
REMARK       I    between atoms: N14_2  and  S20_34 
REMARK       I    between atoms: C7_3  and  O3_22 
REMARK       I    between atoms: C10_4  and  O15_5 
REMARK       I    between atoms: C6_8  and  C2_27 
REMARK       I    between atoms: C6_8  and  O11_31 
REMARK       I    between atoms: C27_9  and  C19_26 
REMARK       I    between atoms: O29_10  and  S20_34 
REMARK       I    between atoms: O9_11  and  C4_14 
REMARK       I    between atoms: S16_15  and  O11_31 
REMARK       I    between atoms: O30_17  and  S20_34 
REMARK       I    between atoms: O3_22  and  C1_29 
REMARK       I    between atoms: O18_24  and  C12_33 
REMARK       I    between atoms: O18_24  and  S26_35 
REMARK       I    between atoms: O28_30  and  S20_34 
ROOT
ATOM      1  C17 H1S d 301      18.257  14.354  34.188  0.00  0.00     0.086 C 
ATOM      2  N14 H1S d 301      16.409   7.475  36.561  0.00  0.00    -0.210 NA
ATOM      3  C7  H1S d 301      17.315  12.002  33.996  0.00  0.00     0.167 C 
ATOM      4  C10 H1S d 301      17.118   7.388  34.212  0.00  0.00     0.147 C 
ATOM      5  O15 H1S d 301      15.813   7.828  33.791  0.00  0.00    -0.369 OA
ATOM      6  O5  H1S d 301      18.117   7.833  33.256  0.00  0.00    -0.350 OA
ATOM      7  O13 H1S d 301      17.313  12.187  32.539  0.00  0.00    -0.311 OA
ATOM      8  C6  H1S d 301      19.259   9.709  32.139  0.00  0.00     0.067 C 
ATOM      9  C27 H1S d 301      18.434  13.029  30.546  0.00  0.00     0.233 C 
ATOM     10  O29 H1S d 301      15.736   6.373  38.713  0.00  0.00    -0.296 OA
ATOM     11  O9  H1S d 301      17.684  10.024  36.848  0.00  0.00    -0.391 OA
ATOM     12  O34 H1S d 301      17.697  12.396  29.819  0.00  0.00    -0.642 OA
ATOM     13  O32 H1S d 301      14.404  12.440  35.440  0.00  0.00    -0.572 OA
ATOM     14  C4  H1S d 301      17.412   9.461  35.560  0.00  0.00     0.083 C 
ATOM     15  S16 H1S d 301      21.639   9.688  31.772  0.00  0.00     0.251 S 
ATOM     16  C8  H1S d 301      17.425   7.932  35.620  0.00  0.00     0.081 C 
ATOM     17  O30 H1S d 301      17.991   5.690  37.819  0.00  0.00    -0.296 OA
ATOM     18  O23 H1S d 301      21.430  10.294  30.239  0.00  0.00    -0.572 OA
ATOM     19  O35 H1S d 301      19.571  13.648  30.013  0.00  0.00    -0.642 OA
ATOM     20  O31 H1S d 301      13.586  14.500  34.756  0.00  0.00    -0.572 OA
ATOM     21  O22 H1S d 301      22.788   8.863  31.792  0.00  0.00    -0.572 OA
ATOM     22  O3  H1S d 301      18.584  11.404  34.422  0.00  0.00    -0.348 OA
ATOM     23  O33 H1S d 301      15.223  14.499  36.666  0.00  0.00    -0.572 OA
ATOM     24  O18 H1S d 301      15.845  13.942  34.171  0.00  0.00    -0.244 OA
ATOM     25  O21 H1S d 301      21.837  10.767  32.687  0.00  0.00    -0.572 OA
ATOM     26  C19 H1S d 301      18.111  13.146  31.975  0.00  0.00     0.147 C 
ATOM     27  C2  H1S d 301      18.192   9.286  33.175  0.00  0.00     0.091 C 
ATOM     28  C24 H1S d 301      18.584  14.184  32.705  0.00  0.00    -0.034 C 
ATOM     29  C1  H1S d 301      18.489   9.959  34.564  0.00  0.00     0.095 C 
ATOM     30  O28 H1S d 301      17.437   7.945  38.809  0.00  0.00    -0.296 OA
ATOM     31  O11 H1S d 301      20.412   8.856  32.187  0.00  0.00    -0.254 OA
ATOM     32  O25 H1S d 301      19.434  14.087  34.962  0.00  0.00    -0.389 OA
ATOM     33  C12 H1S d 301      17.102  13.402  34.646  0.00  0.00     0.135 C 
ATOM     34  S20 H1S d 301      16.871   6.894  38.035  0.00  0.00     0.156 S 
ATOM     35  S26 H1S d 301      14.737  13.814  35.232  0.00  0.00     0.252 S 
ATOM     36  H   H1S d 301      17.927  15.359  34.341  0.00  0.00     0.093 H 
ATOM     37  H   H1S d 301      15.888   6.729  36.098  0.00  0.00     0.140 HD
ATOM     38  H   H1S d 301      16.532  11.339  34.302  0.00  0.00     0.134 H 
ATOM     39  H   H1S d 301      17.140   6.318  34.252  0.00  0.00     0.131 H 
ATOM     40  H   H1S d 301      15.795   8.797  33.755  0.00  0.00     0.212 HD
ATOM     41  H   H1S d 301      19.562  10.714  32.345  0.00  0.00     0.080 H 
ATOM     42  H   H1S d 301      18.826   9.632  31.164  0.00  0.00     0.080 H 
ATOM     43  H   H1S d 301      15.348   5.656  38.188  0.00  0.00     0.231 HD
ATOM     44  H   H1S d 301      17.671  10.992  36.787  0.00  0.00     0.210 HD
ATOM     45  H   H1S d 301      16.440   9.771  35.237  0.00  0.00     0.089 H 
ATOM     46  H   H1S d 301      18.382   7.580  35.946  0.00  0.00     0.076 H 
ATOM     47  H   H1S d 301      17.601   4.976  37.291  0.00  0.00     0.231 HD
ATOM     48  H   H1S d 301      17.228   9.630  32.863  0.00  0.00     0.090 H 
ATOM     49  H   H1S d 301      19.185  14.884  32.244  0.00  0.00     0.085 H 
ATOM     50  H   H1S d 301      19.443   9.676  34.957  0.00  0.00     0.091 H 
ATOM     51  H   H1S d 301      16.778   8.647  38.932  0.00  0.00     0.231 HD
ATOM     52  H   H1S d 301      19.720  13.173  34.812  0.00  0.00     0.210 HD
ATOM     53  H   H1S d 301      17.095  13.317  35.713  0.00  0.00     0.097 H 
ENDROOT
TORSDOF 16
ENDMDL
MODEL 47
REMARK VINA RESULT:      -5.0      2.532      4.853
REMARK  0 active torsions:
REMARK  status: ('A' for Active; 'I' for Inactive)
REMARK       I    between atoms: C17_1  and  O25_32 
REMARK       I    between atoms: N14_2  and  C8_16 
REMARK       I    between atoms: N14_2  and  S20_34 
REMARK       I    between atoms: C7_3  and  O3_22 
REMARK       I    between atoms: C10_4  and  O15_5 
REMARK       I    between atoms: C6_8  and  C2_27 
REMARK       I    between atoms: C6_8  and  O11_31 
REMARK       I    between atoms: C27_9  and  C19_26 
REMARK       I    between atoms: O29_10  and  S20_34 
REMARK       I    between atoms: O9_11  and  C4_14 
REMARK       I    between atoms: S16_15  and  O11_31 
REMARK       I    between atoms: O30_17  and  S20_34 
REMARK       I    between atoms: O3_22  and  C1_29 
REMARK       I    between atoms: O18_24  and  C12_33 
REMARK       I    between atoms: O18_24  and  S26_35 
REMARK       I    between atoms: O28_30  and  S20_34 
ROOT
ATOM      1  C17 H1S d 301      14.962   8.514  35.933  0.00  0.00     0.086 C 
ATOM      2  N14 H1S d 301      18.767  13.063  31.329  0.00  0.00    -0.210 NA
ATOM      3  C7  H1S d 301      16.506  10.434  35.313  0.00  0.00     0.167 C 
ATOM      4  C10 H1S d 301      20.056  12.684  33.385  0.00  0.00     0.147 C 
ATOM      5  O15 H1S d 301      19.272  13.679  34.072  0.00  0.00    -0.369 OA
ATOM      6  O5  H1S d 301      20.512  11.682  34.332  0.00  0.00    -0.350 OA
ATOM      7  O13 H1S d 301      16.913  10.482  36.724  0.00  0.00    -0.311 OA
ATOM      8  C6  H1S d 301      19.942   9.918  35.955  0.00  0.00     0.067 C 
ATOM      9  C27 H1S d 301      17.502   9.285  38.762  0.00  0.00     0.233 C 
ATOM     10  O29 H1S d 301      18.530  13.967  29.000  0.00  0.00    -0.296 OA
ATOM     11  O9  H1S d 301      17.178  10.749  31.902  0.00  0.00    -0.391 OA
ATOM     12  O34 H1S d 301      17.957  10.290  39.266  0.00  0.00    -0.642 OA
ATOM     13  O32 H1S d 301      14.287  12.686  34.446  0.00  0.00    -0.572 OA
ATOM     14  C4  H1S d 301      18.001  11.361  32.902  0.00  0.00     0.083 C 
ATOM     15  S16 H1S d 301      21.175   7.850  36.043  0.00  0.00     0.251 S 
ATOM     16  C8  H1S d 301      19.218  12.039  32.265  0.00  0.00     0.081 C 
ATOM     17  O30 H1S d 301      20.441  12.358  29.335  0.00  0.00    -0.296 OA
ATOM     18  O23 H1S d 301      21.178   7.898  37.704  0.00  0.00    -0.572 OA
ATOM     19  O35 H1S d 301      17.720   8.043  39.372  0.00  0.00    -0.642 OA
ATOM     20  O31 H1S d 301      12.518  12.537  35.939  0.00  0.00    -0.572 OA
ATOM     21  O22 H1S d 301      22.351   7.205  35.596  0.00  0.00    -0.572 OA
ATOM     22  O3  H1S d 301      17.399   9.542  34.566  0.00  0.00    -0.348 OA
ATOM     23  O33 H1S d 301      12.529  10.915  34.016  0.00  0.00    -0.572 OA
ATOM     24  O18 H1S d 301      14.211  10.840  36.037  0.00  0.00    -0.244 OA
ATOM     25  O21 H1S d 301      20.044   7.103  35.591  0.00  0.00    -0.572 OA
ATOM     26  C19 H1S d 301      16.716   9.390  37.525  0.00  0.00     0.147 C 
ATOM     27  C2  H1S d 301      19.405  10.963  34.949  0.00  0.00     0.091 C 
ATOM     28  C24 H1S d 301      15.814   8.434  37.199  0.00  0.00    -0.034 C 
ATOM     29  C1  H1S d 301      18.467  10.269  33.897  0.00  0.00     0.095 C 
ATOM     30  O28 H1S d 301      17.994  11.737  29.336  0.00  0.00    -0.296 OA
ATOM     31  O11 H1S d 301      21.132   9.279  35.470  0.00  0.00    -0.254 OA
ATOM     32  O25 H1S d 301      15.413   7.522  35.000  0.00  0.00    -0.389 OA
ATOM     33  C12 H1S d 301      15.033   9.929  35.268  0.00  0.00     0.135 C 
ATOM     34  S20 H1S d 301      18.882  12.785  29.706  0.00  0.00     0.156 S 
ATOM     35  S26 H1S d 301      13.409  11.786  35.124  0.00  0.00     0.252 S 
ATOM     36  H   H1S d 301      13.944   8.336  36.206  0.00  0.00     0.093 H 
ATOM     37  H   H1S d 301      19.310  13.904  31.525  0.00  0.00     0.140 HD
ATOM     38  H   H1S d 301      16.571  11.401  34.860  0.00  0.00     0.134 H 
ATOM     39  H   H1S d 301      20.912  13.147  32.940  0.00  0.00     0.131 H 
ATOM     40  H   H1S d 301      18.496  13.258  34.474  0.00  0.00     0.212 HD
ATOM     41  H   H1S d 301      19.190   9.174  36.116  0.00  0.00     0.080 H 
ATOM     42  H   H1S d 301      20.182  10.424  36.866  0.00  0.00     0.080 H 
ATOM     43  H   H1S d 301      19.134  14.684  29.250  0.00  0.00     0.231 HD
ATOM     44  H   H1S d 301      16.415  10.327  32.327  0.00  0.00     0.210 HD
ATOM     45  H   H1S d 301      17.435  12.111  33.414  0.00  0.00     0.089 H 
ATOM     46  H   H1S d 301      19.809  11.321  31.735  0.00  0.00     0.076 H 
ATOM     47  H   H1S d 301      21.041  13.076  29.590  0.00  0.00     0.231 HD
ATOM     48  H   H1S d 301      18.813  11.689  35.465  0.00  0.00     0.090 H 
ATOM     49  H   H1S d 301      15.697   7.624  37.828  0.00  0.00     0.085 H 
ATOM     50  H   H1S d 301      18.976   9.517  33.332  0.00  0.00     0.091 H 
ATOM     51  H   H1S d 301      17.084  11.991  29.555  0.00  0.00     0.231 HD
ATOM     52  H   H1S d 301      16.337   7.697  34.762  0.00  0.00     0.210 HD
ATOM     53  H   H1S d 301      14.691   9.878  34.255  0.00  0.00     0.097 H 
ENDROOT
TORSDOF 16
ENDMDL
MODEL 48
REMARK VINA RESULT:      -5.0      2.643      5.922
REMARK  0 active torsions:
REMARK  status: ('A' for Active; 'I' for Inactive)
REMARK       I    between atoms: C17_1  and  O25_32 
REMARK       I    between atoms: N14_2  and  C8_16 
REMARK       I    between atoms: N14_2  and  S20_34 
REMARK       I    between atoms: C7_3  and  O3_22 
REMARK       I    between atoms: C10_4  and  O15_5 
REMARK       I    between atoms: C6_8  and  C2_27 
REMARK       I    between atoms: C6_8  and  O11_31 
REMARK       I    between atoms: C27_9  and  C19_26 
REMARK       I    between atoms: O29_10  and  S20_34 
REMARK       I    between atoms: O9_11  and  C4_14 
REMARK       I    between atoms: S16_15  and  O11_31 
REMARK       I    between atoms: O30_17  and  S20_34 
REMARK       I    between atoms: O3_22  and  C1_29 
REMARK       I    between atoms: O18_24  and  C12_33 
REMARK       I    between atoms: O18_24  and  S26_35 
REMARK       I    between atoms: O28_30  and  S20_34 
ROOT
ATOM      1  C17 H1S d 301      16.935   9.846  39.208  0.00  0.00     0.086 C 
ATOM      2  N14 H1S d 301      16.578   5.677  32.974  0.00  0.00    -0.210 NA
ATOM      3  C7  H1S d 301      16.445   9.353  36.764  0.00  0.00     0.167 C 
ATOM      4  C10 H1S d 301      17.141   7.997  32.399  0.00  0.00     0.147 C 
ATOM      5  O15 H1S d 301      15.752   8.367  32.490  0.00  0.00    -0.369 OA
ATOM      6  O5  H1S d 301      17.975   9.136  32.742  0.00  0.00    -0.350 OA
ATOM      7  O13 H1S d 301      16.317  10.802  36.561  0.00  0.00    -0.311 OA
ATOM      8  C6  H1S d 301      18.668  10.795  34.426  0.00  0.00     0.067 C 
ATOM      9  C27 H1S d 301      17.129  13.050  37.031  0.00  0.00     0.233 C 
ATOM     10  O29 H1S d 301      16.264   3.261  32.373  0.00  0.00    -0.296 OA
ATOM     11  O9  H1S d 301      17.362   6.162  35.687  0.00  0.00    -0.391 OA
ATOM     12  O34 H1S d 301      16.482  13.516  36.117  0.00  0.00    -0.642 OA
ATOM     13  O32 H1S d 301      13.602   7.751  37.069  0.00  0.00    -0.572 OA
ATOM     14  C4  H1S d 301      17.122   7.237  34.771  0.00  0.00     0.083 C 
ATOM     15  S16 H1S d 301      20.981  11.404  34.708  0.00  0.00     0.251 S 
ATOM     16  C8  H1S d 301      17.428   6.806  33.334  0.00  0.00     0.081 C 
ATOM     17  O30 H1S d 301      18.547   4.202  31.869  0.00  0.00    -0.296 OA
ATOM     18  O23 H1S d 301      20.565  13.006  34.851  0.00  0.00    -0.572 OA
ATOM     19  O35 H1S d 301      18.092  13.840  37.671  0.00  0.00    -0.642 OA
ATOM     20  O31 H1S d 301      12.367   8.823  38.714  0.00  0.00    -0.572 OA
ATOM     21  O22 H1S d 301      22.264  11.309  34.121  0.00  0.00    -0.572 OA
ATOM     22  O3  H1S d 301      17.830   8.935  36.518  0.00  0.00    -0.348 OA
ATOM     23  O33 H1S d 301      14.092   7.162  39.483  0.00  0.00    -0.572 OA
ATOM     24  O18 H1S d 301      14.649   9.498  38.409  0.00  0.00    -0.244 OA
ATOM     25  O21 H1S d 301      21.028  10.807  36.006  0.00  0.00    -0.572 OA
ATOM     26  C19 H1S d 301      16.882  11.667  37.460  0.00  0.00     0.147 C 
ATOM     27  C2  H1S d 301      17.768   9.577  34.115  0.00  0.00     0.091 C 
ATOM     28  C24 H1S d 301      17.194  11.269  38.716  0.00  0.00    -0.034 C 
ATOM     29  C1  H1S d 301      18.020   8.436  35.166  0.00  0.00     0.095 C 
ATOM     30  O28 H1S d 301      17.638   3.739  34.178  0.00  0.00    -0.296 OA
ATOM     31  O11 H1S d 301      19.962  10.666  33.820  0.00  0.00    -0.254 OA
ATOM     32  O25 H1S d 301      18.188   9.163  39.353  0.00  0.00    -0.389 OA
ATOM     33  C12 H1S d 301      16.013   9.046  38.229  0.00  0.00     0.135 C 
ATOM     34  S20 H1S d 301      17.235   4.165  32.883  0.00  0.00     0.156 S 
ATOM     35  S26 H1S d 301      13.654   8.322  38.378  0.00  0.00     0.252 S 
ATOM     36  H   H1S d 301      16.431   9.907  40.149  0.00  0.00     0.093 H 
ATOM     37  H   H1S d 301      16.180   5.884  32.058  0.00  0.00     0.140 HD
ATOM     38  H   H1S d 301      15.824   8.811  36.083  0.00  0.00     0.134 H 
ATOM     39  H   H1S d 301      17.368   7.699  31.396  0.00  0.00     0.131 H 
ATOM     40  H   H1S d 301      15.548   8.637  33.399  0.00  0.00     0.212 HD
ATOM     41  H   H1S d 301      18.787  10.875  35.486  0.00  0.00     0.080 H 
ATOM     42  H   H1S d 301      18.197  11.668  34.026  0.00  0.00     0.080 H 
ATOM     43  H   H1S d 301      15.986   3.549  31.490  0.00  0.00     0.231 HD
ATOM     44  H   H1S d 301      17.162   6.456  36.589  0.00  0.00     0.210 HD
ATOM     45  H   H1S d 301      16.090   7.517  34.820  0.00  0.00     0.089 H 
ATOM     46  H   H1S d 301      18.453   6.511  33.244  0.00  0.00     0.076 H 
ATOM     47  H   H1S d 301      18.266   4.494  30.987  0.00  0.00     0.231 HD
ATOM     48  H   H1S d 301      16.739   9.856  34.199  0.00  0.00     0.090 H 
ATOM     49  H   H1S d 301      17.622  11.950  39.362  0.00  0.00     0.085 H 
ATOM     50  H   H1S d 301      19.033   8.092  35.158  0.00  0.00     0.091 H 
ATOM     51  H   H1S d 301      16.868   3.719  34.767  0.00  0.00     0.231 HD
ATOM     52  H   H1S d 301      18.633   9.116  38.492  0.00  0.00     0.210 HD
ATOM     53  H   H1S d 301      16.090   7.996  38.425  0.00  0.00     0.097 H 
ENDROOT
TORSDOF 16
ENDMDL
MODEL 49
REMARK VINA RESULT:      -5.0      2.925      6.295
REMARK  0 active torsions:
REMARK  status: ('A' for Active; 'I' for Inactive)
REMARK       I    between atoms: C17_1  and  O25_32 
REMARK       I    between atoms: N14_2  and  C8_16 
REMARK       I    between atoms: N14_2  and  S20_34 
REMARK       I    between atoms: C7_3  and  O3_22 
REMARK       I    between atoms: C10_4  and  O15_5 
REMARK       I    between atoms: C6_8  and  C2_27 
REMARK       I    between atoms: C6_8  and  O11_31 
REMARK       I    between atoms: C27_9  and  C19_26 
REMARK       I    between atoms: O29_10  and  S20_34 
REMARK       I    between atoms: O9_11  and  C4_14 
REMARK       I    between atoms: S16_15  and  O11_31 
REMARK       I    between atoms: O30_17  and  S20_34 
REMARK       I    between atoms: O3_22  and  C1_29 
REMARK       I    between atoms: O18_24  and  C12_33 
REMARK       I    between atoms: O18_24  and  S26_35 
REMARK       I    between atoms: O28_30  and  S20_34 
ROOT
ATOM      1  C17 H1S d 301      18.759  12.984  33.497  0.00  0.00     0.086 C 
ATOM      2  N14 H1S d 301      18.985   5.530  32.633  0.00  0.00    -0.210 NA
ATOM      3  C7  H1S d 301      18.623  10.553  34.223  0.00  0.00     0.167 C 
ATOM      4  C10 H1S d 301      17.285   6.128  34.301  0.00  0.00     0.147 C 
ATOM      5  O15 H1S d 301      18.306   6.259  35.309  0.00  0.00    -0.369 OA
ATOM      6  O5  H1S d 301      16.182   7.023  34.603  0.00  0.00    -0.350 OA
ATOM      7  O13 H1S d 301      18.011  11.024  35.473  0.00  0.00    -0.311 OA
ATOM      8  C6  H1S d 301      15.382   9.331  34.920  0.00  0.00     0.067 C 
ATOM      9  C27 H1S d 301      16.463  12.536  36.592  0.00  0.00     0.233 C 
ATOM     10  O29 H1S d 301      20.152   3.867  31.159  0.00  0.00    -0.296 OA
ATOM     11  O9  H1S d 301      18.963   8.221  31.649  0.00  0.00    -0.391 OA
ATOM     12  O34 H1S d 301      16.506  11.884  37.614  0.00  0.00    -0.642 OA
ATOM     13  O32 H1S d 301      21.818   9.848  34.438  0.00  0.00    -0.572 OA
ATOM     14  C4  H1S d 301      18.390   7.880  32.917  0.00  0.00     0.083 C 
ATOM     15  S16 H1S d 301      13.264  10.057  34.032  0.00  0.00     0.251 S 
ATOM     16  C8  H1S d 301      17.878   6.437  32.913  0.00  0.00     0.081 C 
ATOM     17  O30 H1S d 301      17.662   4.045  30.811  0.00  0.00    -0.296 OA
ATOM     18  O23 H1S d 301      12.931  10.880  35.436  0.00  0.00    -0.572 OA
ATOM     19  O35 H1S d 301      15.503  13.546  36.454  0.00  0.00    -0.642 OA
ATOM     20  O31 H1S d 301      22.879  11.689  35.368  0.00  0.00    -0.572 OA
ATOM     21  O22 H1S d 301      12.051   9.604  33.462  0.00  0.00    -0.572 OA
ATOM     22  O3  H1S d 301      17.579  10.263  33.234  0.00  0.00    -0.348 OA
ATOM     23  O33 H1S d 301      22.433  11.759  32.893  0.00  0.00    -0.572 OA
ATOM     24  O18 H1S d 301      20.574  11.922  34.748  0.00  0.00    -0.244 OA
ATOM     25  O21 H1S d 301      13.901  10.938  33.104  0.00  0.00    -0.572 OA
ATOM     26  C19 H1S d 301      17.430  12.263  35.520  0.00  0.00     0.147 C 
ATOM     27  C2  H1S d 301      16.587   8.423  34.583  0.00  0.00     0.091 C 
ATOM     28  C24 H1S d 301      17.744  13.220  34.615  0.00  0.00    -0.034 C 
ATOM     29  C1  H1S d 301      17.222   8.854  33.212  0.00  0.00     0.095 C 
ATOM     30  O28 H1S d 301      19.355   5.801  30.159  0.00  0.00    -0.296 OA
ATOM     31  O11 H1S d 301      14.169   8.847  34.325  0.00  0.00    -0.254 OA
ATOM     32  O25 H1S d 301      18.067  12.908  32.243  0.00  0.00    -0.389 OA
ATOM     33  C12 H1S d 301      19.583  11.673  33.721  0.00  0.00     0.135 C 
ATOM     34  S20 H1S d 301      19.092   4.814  31.149  0.00  0.00     0.156 S 
ATOM     35  S26 H1S d 301      21.926  11.272  34.399  0.00  0.00     0.252 S 
ATOM     36  H   H1S d 301      19.447  13.803  33.496  0.00  0.00     0.093 H 
ATOM     37  H   H1S d 301      18.936   4.779  33.322  0.00  0.00     0.140 HD
ATOM     38  H   H1S d 301      19.173   9.649  34.379  0.00  0.00     0.134 H 
ATOM     39  H   H1S d 301      16.916   5.123  34.293  0.00  0.00     0.131 H 
ATOM     40  H   H1S d 301      18.640   7.170  35.315  0.00  0.00     0.212 HD
ATOM     41  H   H1S d 301      15.578  10.317  34.553  0.00  0.00     0.080 H 
ATOM     42  H   H1S d 301      15.254   9.336  35.982  0.00  0.00     0.080 H 
ATOM     43  H   H1S d 301      19.976   3.193  31.833  0.00  0.00     0.231 HD
ATOM     44  H   H1S d 301      19.280   9.137  31.674  0.00  0.00     0.210 HD
ATOM     45  H   H1S d 301      19.140   7.962  33.676  0.00  0.00     0.089 H 
ATOM     46  H   H1S d 301      17.128   6.310  32.160  0.00  0.00     0.076 H 
ATOM     47  H   H1S d 301      17.488   3.374  31.489  0.00  0.00     0.231 HD
ATOM     48  H   H1S d 301      17.345   8.537  35.328  0.00  0.00     0.090 H 
ATOM     49  H   H1S d 301      17.282  14.141  34.683  0.00  0.00     0.085 H 
ATOM     50  H   H1S d 301      16.529   8.776  32.400  0.00  0.00     0.091 H 
ATOM     51  H   H1S d 301      20.192   6.248  30.362  0.00  0.00     0.231 HD
ATOM     52  H   H1S d 301      17.447  12.162  32.260  0.00  0.00     0.210 HD
ATOM     53  H   H1S d 301      20.055  11.374  32.808  0.00  0.00     0.097 H 
ENDROOT
TORSDOF 16
ENDMDL
MODEL 50
REMARK VINA RESULT:      -4.9      3.126      6.731
REMARK  0 active torsions:
REMARK  status: ('A' for Active; 'I' for Inactive)
REMARK       I    between atoms: C17_1  and  O25_32 
REMARK       I    between atoms: N14_2  and  C8_16 
REMARK       I    between atoms: N14_2  and  S20_34 
REMARK       I    between atoms: C7_3  and  O3_22 
REMARK       I    between atoms: C10_4  and  O15_5 
REMARK       I    between atoms: C6_8  and  C2_27 
REMARK       I    between atoms: C6_8  and  O11_31 
REMARK       I    between atoms: C27_9  and  C19_26 
REMARK       I    between atoms: O29_10  and  S20_34 
REMARK       I    between atoms: O9_11  and  C4_14 
REMARK       I    between atoms: S16_15  and  O11_31 
REMARK       I    between atoms: O30_17  and  S20_34 
REMARK       I    between atoms: O3_22  and  C1_29 
REMARK       I    between atoms: O18_24  and  C12_33 
REMARK       I    between atoms: O18_24  and  S26_35 
REMARK       I    between atoms: O28_30  and  S20_34 
ROOT
ATOM      1  C17 H1S d 301      18.802   5.076  36.392  0.00  0.00     0.086 C 
ATOM      2  N14 H1S d 301      13.893   9.674  39.728  0.00  0.00    -0.210 NA
ATOM      3  C7  H1S d 301      18.035   7.163  37.621  0.00  0.00     0.167 C 
ATOM      4  C10 H1S d 301      15.609  10.986  38.560  0.00  0.00     0.147 C 
ATOM      5  O15 H1S d 301      16.516  10.802  39.664  0.00  0.00    -0.369 OA
ATOM      6  O5  H1S d 301      16.363  11.124  37.326  0.00  0.00    -0.350 OA
ATOM      7  O13 H1S d 301      19.333   7.764  37.286  0.00  0.00    -0.311 OA
ATOM      8  C6  H1S d 301      17.924  10.128  35.701  0.00  0.00     0.067 C 
ATOM      9  C27 H1S d 301      21.110   8.105  35.655  0.00  0.00     0.233 C 
ATOM     10  O29 H1S d 301      11.739   9.482  41.000  0.00  0.00    -0.296 OA
ATOM     11  O9  H1S d 301      14.594   7.375  38.168  0.00  0.00    -0.391 OA
ATOM     12  O34 H1S d 301      21.588   9.008  36.309  0.00  0.00    -0.642 OA
ATOM     13  O32 H1S d 301      17.814   5.977  40.669  0.00  0.00    -0.572 OA
ATOM     14  C4  H1S d 301      15.451   8.521  38.244  0.00  0.00     0.083 C 
ATOM     15  S16 H1S d 301      17.600  10.387  33.329  0.00  0.00     0.251 S 
ATOM     16  C8  H1S d 301      14.635   9.795  38.478  0.00  0.00     0.081 C 
ATOM     17  O30 H1S d 301      11.553  10.577  38.738  0.00  0.00    -0.296 OA
ATOM     18  O23 H1S d 301      19.224  10.663  33.114  0.00  0.00    -0.572 OA
ATOM     19  O35 H1S d 301      21.564   7.878  34.350  0.00  0.00    -0.642 OA
ATOM     20  O31 H1S d 301      19.618   4.557  40.999  0.00  0.00    -0.572 OA
ATOM     21  O22 H1S d 301      16.874  11.105  32.350  0.00  0.00    -0.572 OA
ATOM     22  O3  H1S d 301      17.054   7.479  36.576  0.00  0.00    -0.348 OA
ATOM     23  O33 H1S d 301      17.612   3.598  39.823  0.00  0.00    -0.572 OA
ATOM     24  O18 H1S d 301      19.238   5.385  38.780  0.00  0.00    -0.244 OA
ATOM     25  O21 H1S d 301      17.328   8.994  33.166  0.00  0.00    -0.572 OA
ATOM     26  C19 H1S d 301      20.069   7.255  36.250  0.00  0.00     0.147 C 
ATOM     27  C2  H1S d 301      17.134   9.927  37.015  0.00  0.00     0.091 C 
ATOM     28  C24 H1S d 301      19.859   5.999  35.789  0.00  0.00    -0.034 C 
ATOM     29  C1  H1S d 301      16.243   8.636  36.918  0.00  0.00     0.095 C 
ATOM     30  O28 H1S d 301      12.001   8.125  39.138  0.00  0.00    -0.296 OA
ATOM     31  O11 H1S d 301      17.161  10.855  34.729  0.00  0.00    -0.254 OA
ATOM     32  O25 H1S d 301      17.723   4.925  35.460  0.00  0.00    -0.389 OA
ATOM     33  C12 H1S d 301      18.249   5.625  37.750  0.00  0.00     0.135 C 
ATOM     34  S20 H1S d 301      12.264   9.413  39.681  0.00  0.00     0.156 S 
ATOM     35  S26 H1S d 301      18.583   4.919  40.094  0.00  0.00     0.252 S 
ATOM     36  H   H1S d 301      19.261   4.130  36.590  0.00  0.00     0.093 H 
ATOM     37  H   H1S d 301      14.040  10.541  40.246  0.00  0.00     0.140 HD
ATOM     38  H   H1S d 301      17.655   7.553  38.542  0.00  0.00     0.134 H 
ATOM     39  H   H1S d 301      15.038  11.879  38.711  0.00  0.00     0.131 H 
ATOM     40  H   H1S d 301      17.033   9.993  39.526  0.00  0.00     0.212 HD
ATOM     41  H   H1S d 301      18.176   9.169  35.299  0.00  0.00     0.080 H 
ATOM     42  H   H1S d 301      18.805  10.692  35.925  0.00  0.00     0.080 H 
ATOM     43  H   H1S d 301      11.917  10.359  41.373  0.00  0.00     0.231 HD
ATOM     44  H   H1S d 301      15.130   6.580  38.020  0.00  0.00     0.210 HD
ATOM     45  H   H1S d 301      16.124   8.403  39.068  0.00  0.00     0.089 H 
ATOM     46  H   H1S d 301      13.942   9.946  37.677  0.00  0.00     0.076 H 
ATOM     47  H   H1S d 301      11.736  11.453  39.113  0.00  0.00     0.231 HD
ATOM     48  H   H1S d 301      17.814   9.776  37.827  0.00  0.00     0.090 H 
ATOM     49  H   H1S d 301      20.434   5.654  35.005  0.00  0.00     0.085 H 
ATOM     50  H   H1S d 301      15.529   8.694  36.123  0.00  0.00     0.091 H 
ATOM     51  H   H1S d 301      12.419   7.448  39.693  0.00  0.00     0.231 HD
ATOM     52  H   H1S d 301      17.317   5.790  35.292  0.00  0.00     0.210 HD
ATOM     53  H   H1S d 301      17.326   5.143  37.994  0.00  0.00     0.097 H 
ENDROOT
TORSDOF 16
ENDMDL
MODEL 51
REMARK VINA RESULT:      -4.9      3.629      7.426
REMARK  0 active torsions:
REMARK  status: ('A' for Active; 'I' for Inactive)
REMARK       I    between atoms: C17_1  and  O25_32 
REMARK       I    between atoms: N14_2  and  C8_16 
REMARK       I    between atoms: N14_2  and  S20_34 
REMARK       I    between atoms: C7_3  and  O3_22 
REMARK       I    between atoms: C10_4  and  O15_5 
REMARK       I    between atoms: C6_8  and  C2_27 
REMARK       I    between atoms: C6_8  and  O11_31 
REMARK       I    between atoms: C27_9  and  C19_26 
REMARK       I    between atoms: O29_10  and  S20_34 
REMARK       I    between atoms: O9_11  and  C4_14 
REMARK       I    between atoms: S16_15  and  O11_31 
REMARK       I    between atoms: O30_17  and  S20_34 
REMARK       I    between atoms: O3_22  and  C1_29 
REMARK       I    between atoms: O18_24  and  C12_33 
REMARK       I    between atoms: O18_24  and  S26_35 
REMARK       I    between atoms: O28_30  and  S20_34 
ROOT
ATOM      1  C17 H1S d 301      18.079   6.625  31.449  0.00  0.00     0.086 C 
ATOM      2  N14 H1S d 301      20.070   3.194  37.823  0.00  0.00    -0.210 NA
ATOM      3  C7  H1S d 301      19.122   6.430  33.757  0.00  0.00     0.167 C 
ATOM      4  C10 H1S d 301      19.487   5.536  38.279  0.00  0.00     0.147 C 
ATOM      5  O15 H1S d 301      20.795   5.957  37.844  0.00  0.00    -0.369 OA
ATOM      6  O5  H1S d 301      18.523   6.591  38.022  0.00  0.00    -0.350 OA
ATOM      7  O13 H1S d 301      19.192   7.897  33.784  0.00  0.00    -0.311 OA
ATOM      8  C6  H1S d 301      17.368   8.020  36.380  0.00  0.00     0.067 C 
ATOM      9  C27 H1S d 301      18.144  10.040  33.289  0.00  0.00     0.233 C 
ATOM     10  O29 H1S d 301      20.673   0.877  38.573  0.00  0.00    -0.296 OA
ATOM     11  O9  H1S d 301      18.683   3.340  35.320  0.00  0.00    -0.391 OA
ATOM     12  O34 H1S d 301      18.941  10.633  33.985  0.00  0.00    -0.642 OA
ATOM     13  O32 H1S d 301      21.935   4.934  32.983  0.00  0.00    -0.572 OA
ATOM     14  C4  H1S d 301      19.043   4.519  36.049  0.00  0.00     0.083 C 
ATOM     15  S16 H1S d 301      15.012   8.488  36.564  0.00  0.00     0.251 S 
ATOM     16  C8  H1S d 301      19.086   4.237  37.553  0.00  0.00     0.081 C 
ATOM     17  O30 H1S d 301      18.495   1.764  39.480  0.00  0.00    -0.296 OA
ATOM     18  O23 H1S d 301      15.276  10.082  36.175  0.00  0.00    -0.572 OA
ATOM     19  O35 H1S d 301      17.012  10.709  32.806  0.00  0.00    -0.642 OA
ATOM     20  O31 H1S d 301      22.705   5.873  31.007  0.00  0.00    -0.572 OA
ATOM     21  O22 H1S d 301      13.897   8.401  37.429  0.00  0.00    -0.572 OA
ATOM     22  O3  H1S d 301      17.856   5.979  34.346  0.00  0.00    -0.348 OA
ATOM     23  O33 H1S d 301      20.973   4.060  30.809  0.00  0.00    -0.572 OA
ATOM     24  O18 H1S d 301      20.503   6.472  31.746  0.00  0.00    -0.244 OA
ATOM     25  O21 H1S d 301      14.725   7.750  35.375  0.00  0.00    -0.572 OA
ATOM     26  C19 H1S d 301      18.387   8.630  32.954  0.00  0.00     0.147 C 
ATOM     27  C2  H1S d 301      18.396   6.886  36.600  0.00  0.00     0.091 C 
ATOM     28  C24 H1S d 301      17.836   8.081  31.844  0.00  0.00    -0.034 C 
ATOM     29  C1  H1S d 301      18.000   5.625  35.749  0.00  0.00     0.095 C 
ATOM     30  O28 H1S d 301      18.909   1.089  37.083  0.00  0.00    -0.296 OA
ATOM     31  O11 H1S d 301      16.248   7.901  37.270  0.00  0.00    -0.254 OA
ATOM     32  O25 H1S d 301      16.875   5.875  31.655  0.00  0.00    -0.389 OA
ATOM     33  C12 H1S d 301      19.246   5.982  32.270  0.00  0.00     0.135 C 
ATOM     34  S20 H1S d 301      19.555   1.674  38.207  0.00  0.00     0.156 S 
ATOM     35  S26 H1S d 301      21.559   5.354  31.670  0.00  0.00     0.252 S 
ATOM     36  H   H1S d 301      18.362   6.605  30.417  0.00  0.00     0.093 H 
ATOM     37  H   H1S d 301      20.642   3.520  38.602  0.00  0.00     0.140 HD
ATOM     38  H   H1S d 301      19.912   5.995  34.333  0.00  0.00     0.134 H 
ATOM     39  H   H1S d 301      19.505   5.341  39.331  0.00  0.00     0.131 H 
ATOM     40  H   H1S d 301      20.776   6.132  36.890  0.00  0.00     0.212 HD
ATOM     41  H   H1S d 301      17.015   7.977  35.371  0.00  0.00     0.080 H 
ATOM     42  H   H1S d 301      17.853   8.953  36.577  0.00  0.00     0.080 H 
ATOM     43  H   H1S d 301      21.116   1.273  39.339  0.00  0.00     0.231 HD
ATOM     44  H   H1S d 301      18.661   3.541  34.371  0.00  0.00     0.210 HD
ATOM     45  H   H1S d 301      20.018   4.839  35.744  0.00  0.00     0.089 H 
ATOM     46  H   H1S d 301      18.129   3.907  37.898  0.00  0.00     0.076 H 
ATOM     47  H   H1S d 301      18.941   2.164  40.243  0.00  0.00     0.231 HD
ATOM     48  H   H1S d 301      19.360   7.201  36.261  0.00  0.00     0.090 H 
ATOM     49  H   H1S d 301      17.233   8.667  31.246  0.00  0.00     0.085 H 
ATOM     50  H   H1S d 301      17.039   5.239  36.017  0.00  0.00     0.091 H 
ATOM     51  H   H1S d 301      19.533   1.039  36.341  0.00  0.00     0.231 HD
ATOM     52  H   H1S d 301      16.633   5.903  32.594  0.00  0.00     0.210 HD
ATOM     53  H   H1S d 301      19.200   4.915  32.201  0.00  0.00     0.097 H 
ENDROOT
TORSDOF 16
ENDMDL
MODEL 52
REMARK VINA RESULT:      -4.8      3.576      7.304
REMARK  0 active torsions:
REMARK  status: ('A' for Active; 'I' for Inactive)
REMARK       I    between atoms: C17_1  and  O25_32 
REMARK       I    between atoms: N14_2  and  C8_16 
REMARK       I    between atoms: N14_2  and  S20_34 
REMARK       I    between atoms: C7_3  and  O3_22 
REMARK       I    between atoms: C10_4  and  O15_5 
REMARK       I    between atoms: C6_8  and  C2_27 
REMARK       I    between atoms: C6_8  and  O11_31 
REMARK       I    between atoms: C27_9  and  C19_26 
REMARK       I    between atoms: O29_10  and  S20_34 
REMARK       I    between atoms: O9_11  and  C4_14 
REMARK       I    between atoms: S16_15  and  O11_31 
REMARK       I    between atoms: O30_17  and  S20_34 
REMARK       I    between atoms: O3_22  and  C1_29 
REMARK       I    between atoms: O18_24  and  C12_33 
REMARK       I    between atoms: O18_24  and  S26_35 
REMARK       I    between atoms: O28_30  and  S20_34 
ROOT
ATOM      1  C17 H1S d 301      17.668   6.142  32.267  0.00  0.00     0.086 C 
ATOM      2  N14 H1S d 301      19.935   3.955  39.082  0.00  0.00    -0.210 NA
ATOM      3  C7  H1S d 301      18.759   6.395  34.548  0.00  0.00     0.167 C 
ATOM      4  C10 H1S d 301      19.247   6.311  39.145  0.00  0.00     0.147 C 
ATOM      5  O15 H1S d 301      20.524   6.710  38.610  0.00  0.00    -0.369 OA
ATOM      6  O5  H1S d 301      18.228   7.262  38.735  0.00  0.00    -0.350 OA
ATOM      7  O13 H1S d 301      18.758   7.846  34.321  0.00  0.00    -0.311 OA
ATOM      8  C6  H1S d 301      16.976   8.332  36.903  0.00  0.00     0.067 C 
ATOM      9  C27 H1S d 301      17.598   9.822  33.493  0.00  0.00     0.233 C 
ATOM     10  O29 H1S d 301      20.664   1.831  40.202  0.00  0.00    -0.296 OA
ATOM     11  O9  H1S d 301      18.499   3.604  36.628  0.00  0.00    -0.391 OA
ATOM     12  O34 H1S d 301      18.377  10.562  34.056  0.00  0.00    -0.642 OA
ATOM     13  O32 H1S d 301      21.628   4.917  33.969  0.00  0.00    -0.572 OA
ATOM     14  C4  H1S d 301      18.814   4.907  37.134  0.00  0.00     0.083 C 
ATOM     15  S16 H1S d 301      14.604   8.719  37.065  0.00  0.00     0.251 S 
ATOM     16  C8  H1S d 301      18.898   4.891  38.663  0.00  0.00     0.081 C 
ATOM     17  O30 H1S d 301      18.462   2.762  41.000  0.00  0.00    -0.296 OA
ATOM     18  O23 H1S d 301      14.782  10.232  36.402  0.00  0.00    -0.572 OA
ATOM     19  O35 H1S d 301      16.427  10.346  32.931  0.00  0.00    -0.642 OA
ATOM     20  O31 H1S d 301      22.316   5.534  31.842  0.00  0.00    -0.572 OA
ATOM     21  O22 H1S d 301      13.510   8.732  37.961  0.00  0.00    -0.572 OA
ATOM     22  O3  H1S d 301      17.528   5.996  35.238  0.00  0.00    -0.348 OA
ATOM     23  O33 H1S d 301      20.672   3.638  32.003  0.00  0.00    -0.572 OA
ATOM     24  O18 H1S d 301      20.101   6.153  32.524  0.00  0.00    -0.244 OA
ATOM     25  O21 H1S d 301      14.332   7.774  36.028  0.00  0.00    -0.572 OA
ATOM     26  C19 H1S d 301      17.903   8.388  33.398  0.00  0.00     0.147 C 
ATOM     27  C2  H1S d 301      18.061   7.301  37.288  0.00  0.00     0.091 C 
ATOM     28  C24 H1S d 301      17.361   7.632  32.414  0.00  0.00    -0.034 C 
ATOM     29  C1  H1S d 301      17.713   5.896  36.676  0.00  0.00     0.095 C 
ATOM     30  O28 H1S d 301      18.867   1.703  38.744  0.00  0.00    -0.296 OA
ATOM     31  O11 H1S d 301      15.879   8.318  37.829  0.00  0.00    -0.254 OA
ATOM     32  O25 H1S d 301      16.505   5.385  32.630  0.00  0.00    -0.389 OA
ATOM     33  C12 H1S d 301      18.878   5.703  33.157  0.00  0.00     0.135 C 
ATOM     34  S20 H1S d 301      19.502   2.503  39.734  0.00  0.00     0.156 S 
ATOM     35  S26 H1S d 301      21.209   5.087  32.614  0.00  0.00     0.252 S 
ATOM     36  H   H1S d 301      17.933   5.957  31.247  0.00  0.00     0.093 H 
ATOM     37  H   H1S d 301      20.505   4.436  39.779  0.00  0.00     0.140 HD
ATOM     38  H   H1S d 301      19.580   6.102  35.168  0.00  0.00     0.134 H 
ATOM     39  H   H1S d 301      19.293   6.302  40.214  0.00  0.00     0.131 H 
ATOM     40  H   H1S d 301      20.481   6.717  37.642  0.00  0.00     0.212 HD
ATOM     41  H   H1S d 301      16.608   8.100  35.926  0.00  0.00     0.080 H 
ATOM     42  H   H1S d 301      17.418   9.306  36.925  0.00  0.00     0.080 H 
ATOM     43  H   H1S d 301      21.100   2.374  40.878  0.00  0.00     0.231 HD
ATOM     44  H   H1S d 301      18.451   3.637  35.660  0.00  0.00     0.210 HD
ATOM     45  H   H1S d 301      19.766   5.212  36.754  0.00  0.00     0.089 H 
ATOM     46  H   H1S d 301      17.963   4.582  39.084  0.00  0.00     0.076 H 
ATOM     47  H   H1S d 301      18.901   3.307  41.671  0.00  0.00     0.231 HD
ATOM     48  H   H1S d 301      19.003   7.596  36.875  0.00  0.00     0.090 H 
ATOM     49  H   H1S d 301      16.719   8.078  31.740  0.00  0.00     0.085 H 
ATOM     50  H   H1S d 301      16.777   5.519  37.031  0.00  0.00     0.091 H 
ATOM     51  H   H1S d 301      19.479   1.555  38.006  0.00  0.00     0.231 HD
ATOM     52  H   H1S d 301      16.279   5.564  33.556  0.00  0.00     0.210 HD
ATOM     53  H   H1S d 301      18.884   4.639  33.272  0.00  0.00     0.097 H 
ENDROOT
TORSDOF 16
ENDMDL
MODEL 53
REMARK VINA RESULT:      -4.8      2.791      3.778
REMARK  0 active torsions:
REMARK  status: ('A' for Active; 'I' for Inactive)
REMARK       I    between atoms: C17_1  and  O25_32 
REMARK       I    between atoms: N14_2  and  C8_16 
REMARK       I    between atoms: N14_2  and  S20_34 
REMARK       I    between atoms: C7_3  and  O3_22 
REMARK       I    between atoms: C10_4  and  O15_5 
REMARK       I    between atoms: C6_8  and  C2_27 
REMARK       I    between atoms: C6_8  and  O11_31 
REMARK       I    between atoms: C27_9  and  C19_26 
REMARK       I    between atoms: O29_10  and  S20_34 
REMARK       I    between atoms: O9_11  and  C4_14 
REMARK       I    between atoms: S16_15  and  O11_31 
REMARK       I    between atoms: O30_17  and  S20_34 
REMARK       I    between atoms: O3_22  and  C1_29 
REMARK       I    between atoms: O18_24  and  C12_33 
REMARK       I    between atoms: O18_24  and  S26_35 
REMARK       I    between atoms: O28_30  and  S20_34 
ROOT
ATOM      1  C17 H1S d 301      20.651   3.662  36.957  0.00  0.00     0.086 C 
ATOM      2  N14 H1S d 301      16.687   8.160  32.438  0.00  0.00    -0.210 NA
ATOM      3  C7  H1S d 301      18.617   4.972  36.180  0.00  0.00     0.167 C 
ATOM      4  C10 H1S d 301      16.054   8.555  34.777  0.00  0.00     0.147 C 
ATOM      5  O15 H1S d 301      15.188   7.403  34.748  0.00  0.00    -0.369 OA
ATOM      6  O5  H1S d 301      16.555   8.755  36.125  0.00  0.00    -0.350 OA
ATOM      7  O13 H1S d 301      18.046   4.761  37.517  0.00  0.00    -0.311 OA
ATOM      8  C6  H1S d 301      17.866   7.890  38.024  0.00  0.00     0.067 C 
ATOM      9  C27 H1S d 301      18.372   4.673  39.930  0.00  0.00     0.233 C 
ATOM     10  O29 H1S d 301      16.605   8.731  29.995  0.00  0.00    -0.296 OA
ATOM     11  O9  H1S d 301      19.106   6.896  33.309  0.00  0.00    -0.391 OA
ATOM     12  O34 H1S d 301      17.176   4.708  40.131  0.00  0.00    -0.642 OA
ATOM     13  O32 H1S d 301      17.487   2.941  33.868  0.00  0.00    -0.572 OA
ATOM     14  C4  H1S d 301      18.015   7.129  34.207  0.00  0.00     0.083 C 
ATOM     15  S16 H1S d 301      19.348   9.316  39.277  0.00  0.00     0.251 S 
ATOM     16  C8  H1S d 301      17.214   8.363  33.783  0.00  0.00     0.081 C 
ATOM     17  O30 H1S d 301      17.396  10.589  31.503  0.00  0.00    -0.296 OA
ATOM     18  O23 H1S d 301      18.828   8.642  40.703  0.00  0.00    -0.572 OA
ATOM     19  O35 H1S d 301      19.260   4.836  41.000  0.00  0.00    -0.642 OA
ATOM     20  O31 H1S d 301      17.728   0.774  34.660  0.00  0.00    -0.572 OA
ATOM     21  O22 H1S d 301      19.709  10.665  39.506  0.00  0.00    -0.572 OA
ATOM     22  O3  H1S d 301      19.373   6.228  36.152  0.00  0.00    -0.348 OA
ATOM     23  O33 H1S d 301      19.751   1.836  33.608  0.00  0.00    -0.572 OA
ATOM     24  O18 H1S d 301      18.732   2.547  35.926  0.00  0.00    -0.244 OA
ATOM     25  O21 H1S d 301      20.499   8.611  38.808  0.00  0.00    -0.572 OA
ATOM     26  C19 H1S d 301      18.869   4.448  38.565  0.00  0.00     0.147 C 
ATOM     27  C2  H1S d 301      17.366   7.634  36.583  0.00  0.00     0.091 C 
ATOM     28  C24 H1S d 301      20.104   3.931  38.359  0.00  0.00    -0.034 C 
ATOM     29  C1  H1S d 301      18.581   7.333  35.635  0.00  0.00     0.095 C 
ATOM     30  O28 H1S d 301      18.698   8.495  30.963  0.00  0.00    -0.296 OA
ATOM     31  O11 H1S d 301      18.227   9.265  38.223  0.00  0.00    -0.254 OA
ATOM     32  O25 H1S d 301      21.684   4.613  36.666  0.00  0.00    -0.389 OA
ATOM     33  C12 H1S d 301      19.534   3.752  35.865  0.00  0.00     0.135 C 
ATOM     34  S20 H1S d 301      17.371   8.965  31.169  0.00  0.00     0.156 S 
ATOM     35  S26 H1S d 301      18.376   2.032  34.520  0.00  0.00     0.252 S 
ATOM     36  H   H1S d 301      21.041   2.667  36.939  0.00  0.00     0.093 H 
ATOM     37  H   H1S d 301      15.703   8.426  32.461  0.00  0.00     0.140 HD
ATOM     38  H   H1S d 301      17.848   5.047  35.439  0.00  0.00     0.134 H 
ATOM     39  H   H1S d 301      15.502   9.425  34.487  0.00  0.00     0.131 H 
ATOM     40  H   H1S d 301      15.689   6.616  35.011  0.00  0.00     0.212 HD
ATOM     41  H   H1S d 301      18.722   7.277  38.208  0.00  0.00     0.080 H 
ATOM     42  H   H1S d 301      17.072   7.652  38.700  0.00  0.00     0.080 H 
ATOM     43  H   H1S d 301      15.699   9.050  30.132  0.00  0.00     0.231 HD
ATOM     44  H   H1S d 301      19.598   6.111  33.596  0.00  0.00     0.210 HD
ATOM     45  H   H1S d 301      17.356   6.285  34.188  0.00  0.00     0.089 H 
ATOM     46  H   H1S d 301      17.841   9.231  33.782  0.00  0.00     0.076 H 
ATOM     47  H   H1S d 301      16.489  10.903  31.643  0.00  0.00     0.231 HD
ATOM     48  H   H1S d 301      16.736   6.769  36.568  0.00  0.00     0.090 H 
ATOM     49  H   H1S d 301      20.695   3.711  39.175  0.00  0.00     0.085 H 
ATOM     50  H   H1S d 301      19.274   8.147  35.590  0.00  0.00     0.091 H 
ATOM     51  H   H1S d 301      18.678   7.545  30.769  0.00  0.00     0.231 HD
ATOM     52  H   H1S d 301      21.315   5.510  36.686  0.00  0.00     0.210 HD
ATOM     53  H   H1S d 301      19.974   3.861  34.895  0.00  0.00     0.097 H 
ENDROOT
TORSDOF 16
ENDMDL
MODEL 54
REMARK VINA RESULT:      -4.8      2.763      5.190
REMARK  0 active torsions:
REMARK  status: ('A' for Active; 'I' for Inactive)
REMARK       I    between atoms: C17_1  and  O25_32 
REMARK       I    between atoms: N14_2  and  C8_16 
REMARK       I    between atoms: N14_2  and  S20_34 
REMARK       I    between atoms: C7_3  and  O3_22 
REMARK       I    between atoms: C10_4  and  O15_5 
REMARK       I    between atoms: C6_8  and  C2_27 
REMARK       I    between atoms: C6_8  and  O11_31 
REMARK       I    between atoms: C27_9  and  C19_26 
REMARK       I    between atoms: O29_10  and  S20_34 
REMARK       I    between atoms: O9_11  and  C4_14 
REMARK       I    between atoms: S16_15  and  O11_31 
REMARK       I    between atoms: O30_17  and  S20_34 
REMARK       I    between atoms: O3_22  and  C1_29 
REMARK       I    between atoms: O18_24  and  C12_33 
REMARK       I    between atoms: O18_24  and  S26_35 
REMARK       I    between atoms: O28_30  and  S20_34 
ROOT
ATOM      1  C17 H1S d 301      20.416   6.062  32.227  0.00  0.00     0.086 C 
ATOM      2  N14 H1S d 301      15.240  10.616  35.200  0.00  0.00    -0.210 NA
ATOM      3  C7  H1S d 301      18.224   6.664  33.363  0.00  0.00     0.167 C 
ATOM      4  C10 H1S d 301      15.310   8.501  36.447  0.00  0.00     0.147 C 
ATOM      5  O15 H1S d 301      14.491   7.871  35.443  0.00  0.00    -0.369 OA
ATOM      6  O5  H1S d 301      16.180   7.513  37.060  0.00  0.00    -0.350 OA
ATOM      7  O13 H1S d 301      18.071   5.240  33.688  0.00  0.00    -0.311 OA
ATOM      8  C6  H1S d 301      18.000   5.873  36.798  0.00  0.00     0.067 C 
ATOM      9  C27 H1S d 301      19.088   3.152  34.422  0.00  0.00     0.233 C 
ATOM     10  O29 H1S d 301      14.440  12.973  34.883  0.00  0.00    -0.296 OA
ATOM     11  O9  H1S d 301      17.827  10.052  34.104  0.00  0.00    -0.391 OA
ATOM     12  O34 H1S d 301      18.002   2.654  34.635  0.00  0.00    -0.642 OA
ATOM     13  O32 H1S d 301      16.500   7.674  30.763  0.00  0.00    -0.572 OA
ATOM     14  C4  H1S d 301      17.041   9.035  34.737  0.00  0.00     0.083 C 
ATOM     15  S16 H1S d 301      19.762   5.685  38.430  0.00  0.00     0.251 S 
ATOM     16  C8  H1S d 301      16.133   9.638  35.812  0.00  0.00     0.081 C 
ATOM     17  O30 H1S d 301      15.609  12.523  37.071  0.00  0.00    -0.296 OA
ATOM     18  O23 H1S d 301      19.690   4.027  38.349  0.00  0.00    -0.572 OA
ATOM     19  O35 H1S d 301      20.247   2.504  34.866  0.00  0.00    -0.642 OA
ATOM     20  O31 H1S d 301      16.994   6.250  29.000  0.00  0.00    -0.572 OA
ATOM     21  O22 H1S d 301      20.154   6.069  39.733  0.00  0.00    -0.572 OA
ATOM     22  O3  H1S d 301      18.920   7.354  34.454  0.00  0.00    -0.348 OA
ATOM     23  O33 H1S d 301      18.606   8.132  29.434  0.00  0.00    -0.572 OA
ATOM     24  O18 H1S d 301      18.297   6.044  31.004  0.00  0.00    -0.244 OA
ATOM     25  O21 H1S d 301      20.736   6.165  37.502  0.00  0.00    -0.572 OA
ATOM     26  C19 H1S d 301      19.169   4.421  33.687  0.00  0.00     0.147 C 
ATOM     27  C2  H1S d 301      17.105   6.923  36.101  0.00  0.00     0.091 C 
ATOM     28  C24 H1S d 301      20.297   4.760  33.019  0.00  0.00    -0.034 C 
ATOM     29  C1  H1S d 301      17.996   7.995  35.375  0.00  0.00     0.095 C 
ATOM     30  O28 H1S d 301      16.728  12.606  34.809  0.00  0.00    -0.296 OA
ATOM     31  O11 H1S d 301      18.383   6.293  38.116  0.00  0.00    -0.254 OA
ATOM     32  O25 H1S d 301      21.305   6.951  32.915  0.00  0.00    -0.389 OA
ATOM     33  C12 H1S d 301      19.028   6.757  32.031  0.00  0.00     0.135 C 
ATOM     34  S20 H1S d 301      15.513  12.225  35.442  0.00  0.00     0.156 S 
ATOM     35  S26 H1S d 301      17.554   7.010  30.063  0.00  0.00     0.252 S 
ATOM     36  H   H1S d 301      20.799   5.825  31.257  0.00  0.00     0.093 H 
ATOM     37  H   H1S d 301      14.301  10.418  35.546  0.00  0.00     0.140 HD
ATOM     38  H   H1S d 301      17.272   7.138  33.244  0.00  0.00     0.134 H 
ATOM     39  H   H1S d 301      14.685   8.922  37.207  0.00  0.00     0.131 H 
ATOM     40  H   H1S d 301      15.059   7.490  34.755  0.00  0.00     0.212 HD
ATOM     41  H   H1S d 301      18.882   5.724  36.212  0.00  0.00     0.080 H 
ATOM     42  H   H1S d 301      17.441   4.965  36.887  0.00  0.00     0.080 H 
ATOM     43  H   H1S d 301      13.610  12.716  35.312  0.00  0.00     0.231 HD
ATOM     44  H   H1S d 301      18.393   9.648  33.428  0.00  0.00     0.210 HD
ATOM     45  H   H1S d 301      16.418   8.564  34.005  0.00  0.00     0.089 H 
ATOM     46  H   H1S d 301      16.719  10.127  36.563  0.00  0.00     0.076 H 
ATOM     47  H   H1S d 301      14.778  12.262  37.496  0.00  0.00     0.231 HD
ATOM     48  H   H1S d 301      16.512   6.450  35.347  0.00  0.00     0.090 H 
ATOM     49  H   H1S d 301      21.104   4.118  33.046  0.00  0.00     0.085 H 
ATOM     50  H   H1S d 301      18.633   8.522  36.055  0.00  0.00     0.091 H 
ATOM     51  H   H1S d 301      16.667  12.429  33.857  0.00  0.00     0.231 HD
ATOM     52  H   H1S d 301      20.944   7.156  33.792  0.00  0.00     0.210 HD
ATOM     53  H   H1S d 301      19.164   7.781  31.752  0.00  0.00     0.097 H 
ENDROOT
TORSDOF 16
ENDMDL
MODEL 55
REMARK VINA RESULT:      -4.8      3.338      7.924
REMARK  0 active torsions:
REMARK  status: ('A' for Active; 'I' for Inactive)
REMARK       I    between atoms: C17_1  and  O25_32 
REMARK       I    between atoms: N14_2  and  C8_16 
REMARK       I    between atoms: N14_2  and  S20_34 
REMARK       I    between atoms: C7_3  and  O3_22 
REMARK       I    between atoms: C10_4  and  O15_5 
REMARK       I    between atoms: C6_8  and  C2_27 
REMARK       I    between atoms: C6_8  and  O11_31 
REMARK       I    between atoms: C27_9  and  C19_26 
REMARK       I    between atoms: O29_10  and  S20_34 
REMARK       I    between atoms: O9_11  and  C4_14 
REMARK       I    between atoms: S16_15  and  O11_31 
REMARK       I    between atoms: O30_17  and  S20_34 
REMARK       I    between atoms: O3_22  and  C1_29 
REMARK       I    between atoms: O18_24  and  C12_33 
REMARK       I    between atoms: O18_24  and  S26_35 
REMARK       I    between atoms: O28_30  and  S20_34 
ROOT
ATOM      1  C17 H1S d 301      17.086  11.278  32.949  0.00  0.00     0.086 C 
ATOM      2  N14 H1S d 301      18.000   5.127  37.155  0.00  0.00    -0.210 NA
ATOM      3  C7  H1S d 301      17.198   8.786  33.432  0.00  0.00     0.167 C 
ATOM      4  C10 H1S d 301      18.874   4.733  34.895  0.00  0.00     0.147 C 
ATOM      5  O15 H1S d 301      17.542   4.469  34.415  0.00  0.00    -0.369 OA
ATOM      6  O5  H1S d 301      19.680   5.285  33.821  0.00  0.00    -0.350 OA
ATOM      7  O13 H1S d 301      17.241   8.567  31.980  0.00  0.00    -0.311 OA
ATOM      8  C6  H1S d 301      20.050   7.104  32.200  0.00  0.00     0.067 C 
ATOM      9  C27 H1S d 301      18.083   9.247  29.797  0.00  0.00     0.233 C 
ATOM     10  O29 H1S d 301      17.658   4.446  39.547  0.00  0.00    -0.296 OA
ATOM     11  O9  H1S d 301      18.102   7.953  36.699  0.00  0.00    -0.391 OA
ATOM     12  O34 H1S d 301      17.729   8.202  29.293  0.00  0.00    -0.642 OA
ATOM     13  O32 H1S d 301      14.252   8.342  34.801  0.00  0.00    -0.572 OA
ATOM     14  C4  H1S d 301      18.189   7.015  35.620  0.00  0.00     0.083 C 
ATOM     15  S16 H1S d 301      22.256   7.972  31.772  0.00  0.00     0.251 S 
ATOM     16  C8  H1S d 301      18.817   5.701  36.092  0.00  0.00     0.081 C 
ATOM     17  O30 H1S d 301      20.062   4.549  38.795  0.00  0.00    -0.296 OA
ATOM     18  O23 H1S d 301      21.946   8.016  30.140  0.00  0.00    -0.572 OA
ATOM     19  O35 H1S d 301      18.911  10.118  29.078  0.00  0.00    -0.642 OA
ATOM     20  O31 H1S d 301      12.728   9.625  33.613  0.00  0.00    -0.572 OA
ATOM     21  O22 H1S d 301      23.635   7.731  31.976  0.00  0.00    -0.572 OA
ATOM     22  O3  H1S d 301      18.561   8.898  33.961  0.00  0.00    -0.348 OA
ATOM     23  O33 H1S d 301      14.062  10.797  35.396  0.00  0.00    -0.572 OA
ATOM     24  O18 H1S d 301      15.058   9.919  33.125  0.00  0.00    -0.244 OA
ATOM     25  O21 H1S d 301      21.923   9.234  32.354  0.00  0.00    -0.572 OA
ATOM     26  C19 H1S d 301      17.625   9.588  31.151  0.00  0.00     0.147 C 
ATOM     27  C2  H1S d 301      19.165   6.564  33.348  0.00  0.00     0.091 C 
ATOM     28  C24 H1S d 301      17.574  10.879  31.557  0.00  0.00    -0.034 C 
ATOM     29  C1  H1S d 301      19.050   7.635  34.491  0.00  0.00     0.095 C 
ATOM     30  O28 H1S d 301      18.560   6.546  39.156  0.00  0.00    -0.296 OA
ATOM     31  O11 H1S d 301      21.442   6.847  32.438  0.00  0.00    -0.254 OA
ATOM     32  O25 H1S d 301      18.202  11.732  33.726  0.00  0.00    -0.389 OA
ATOM     33  C12 H1S d 301      16.383  10.089  33.686  0.00  0.00     0.135 C 
ATOM     34  S20 H1S d 301      18.536   5.194  38.715  0.00  0.00     0.156 S 
ATOM     35  S26 H1S d 301      14.015   9.625  34.219  0.00  0.00     0.252 S 
ATOM     36  H   H1S d 301      16.364  12.059  32.835  0.00  0.00     0.093 H 
ATOM     37  H   H1S d 301      17.867   4.141  36.929  0.00  0.00     0.140 HD
ATOM     38  H   H1S d 301      16.730   7.964  33.932  0.00  0.00     0.134 H 
ATOM     39  H   H1S d 301      19.324   3.819  35.222  0.00  0.00     0.131 H 
ATOM     40  H   H1S d 301      17.135   5.298  34.119  0.00  0.00     0.212 HD
ATOM     41  H   H1S d 301      19.902   8.160  32.116  0.00  0.00     0.080 H 
ATOM     42  H   H1S d 301      19.768   6.604  31.298  0.00  0.00     0.080 H 
ATOM     43  H   H1S d 301      17.639   3.524  39.249  0.00  0.00     0.231 HD
ATOM     44  H   H1S d 301      17.703   8.777  36.379  0.00  0.00     0.210 HD
ATOM     45  H   H1S d 301      17.205   6.800  35.259  0.00  0.00     0.089 H 
ATOM     46  H   H1S d 301      19.804   5.873  36.469  0.00  0.00     0.076 H 
ATOM     47  H   H1S d 301      20.039   3.627  38.493  0.00  0.00     0.231 HD
ATOM     48  H   H1S d 301      18.175   6.385  32.986  0.00  0.00     0.090 H 
ATOM     49  H   H1S d 301      17.875  11.618  30.903  0.00  0.00     0.085 H 
ATOM     50  H   H1S d 301      20.001   7.883  34.913  0.00  0.00     0.091 H 
ATOM     51  H   H1S d 301      17.666   6.919  39.107  0.00  0.00     0.231 HD
ATOM     52  H   H1S d 301      18.846  11.013  33.819  0.00  0.00     0.210 HD
ATOM     53  H   H1S d 301      16.324  10.290  34.735  0.00  0.00     0.097 H 
ENDROOT
TORSDOF 16
ENDMDL
MODEL 56
REMARK VINA RESULT:      -4.8      2.855      7.662
REMARK  0 active torsions:
REMARK  status: ('A' for Active; 'I' for Inactive)
REMARK       I    between atoms: C17_1  and  O25_32 
REMARK       I    between atoms: N14_2  and  C8_16 
REMARK       I    between atoms: N14_2  and  S20_34 
REMARK       I    between atoms: C7_3  and  O3_22 
REMARK       I    between atoms: C10_4  and  O15_5 
REMARK       I    between atoms: C6_8  and  C2_27 
REMARK       I    between atoms: C6_8  and  O11_31 
REMARK       I    between atoms: C27_9  and  C19_26 
REMARK       I    between atoms: O29_10  and  S20_34 
REMARK       I    between atoms: O9_11  and  C4_14 
REMARK       I    between atoms: S16_15  and  O11_31 
REMARK       I    between atoms: O30_17  and  S20_34 
REMARK       I    between atoms: O3_22  and  C1_29 
REMARK       I    between atoms: O18_24  and  C12_33 
REMARK       I    between atoms: O18_24  and  S26_35 
REMARK       I    between atoms: O28_30  and  S20_34 
ROOT
ATOM      1  C17 H1S d 301      21.385  10.782  34.564  0.00  0.00     0.086 C 
ATOM      2  N14 H1S d 301      14.689   9.489  37.703  0.00  0.00    -0.210 NA
ATOM      3  C7  H1S d 301      18.886  11.075  34.917  0.00  0.00     0.167 C 
ATOM      4  C10 H1S d 301      14.413   9.974  35.312  0.00  0.00     0.147 C 
ATOM      5  O15 H1S d 301      14.506  11.387  35.576  0.00  0.00    -0.369 OA
ATOM      6  O5  H1S d 301      14.914   9.692  33.978  0.00  0.00    -0.350 OA
ATOM      7  O13 H1S d 301      18.854  11.809  33.645  0.00  0.00    -0.311 OA
ATOM      8  C6  H1S d 301      16.806   9.726  32.399  0.00  0.00     0.067 C 
ATOM      9  C27 H1S d 301      19.615  12.012  31.339  0.00  0.00     0.233 C 
ATOM     10  O29 H1S d 301      13.793   8.767  39.933  0.00  0.00    -0.296 OA
ATOM     11  O9  H1S d 301      17.462   8.920  37.265  0.00  0.00    -0.391 OA
ATOM     12  O34 H1S d 301      18.744  12.818  31.083  0.00  0.00    -0.642 OA
ATOM     13  O32 H1S d 301      18.911  12.966  37.595  0.00  0.00    -0.572 OA
ATOM     14  C4  H1S d 301      16.675   9.615  36.290  0.00  0.00     0.083 C 
ATOM     15  S16 H1S d 301      17.229   7.882  30.909  0.00  0.00     0.251 S 
ATOM     16  C8  H1S d 301      15.207   9.189  36.373  0.00  0.00     0.081 C 
ATOM     17  O30 H1S d 301      13.474   7.109  38.062  0.00  0.00    -0.296 OA
ATOM     18  O23 H1S d 301      17.550   8.933  29.663  0.00  0.00    -0.572 OA
ATOM     19  O35 H1S d 301      20.374  11.459  30.301  0.00  0.00    -0.642 OA
ATOM     20  O31 H1S d 301      20.634  14.500  37.352  0.00  0.00    -0.572 OA
ATOM     21  O22 H1S d 301      16.674   6.693  30.382  0.00  0.00    -0.572 OA
ATOM     22  O3  H1S d 301      18.634   9.650  34.678  0.00  0.00    -0.348 OA
ATOM     23  O33 H1S d 301      21.251  12.217  38.209  0.00  0.00    -0.572 OA
ATOM     24  O18 H1S d 301      20.482  12.725  35.746  0.00  0.00    -0.244 OA
ATOM     25  O21 H1S d 301      18.446   7.556  31.583  0.00  0.00    -0.572 OA
ATOM     26  C19 H1S d 301      19.867  11.642  32.739  0.00  0.00     0.147 C 
ATOM     27  C2  H1S d 301      16.324  10.034  33.836  0.00  0.00     0.091 C 
ATOM     28  C24 H1S d 301      21.075  11.161  33.117  0.00  0.00    -0.034 C 
ATOM     29  C1  H1S d 301      17.238   9.299  34.882  0.00  0.00     0.095 C 
ATOM     30  O28 H1S d 301      15.682   7.681  39.142  0.00  0.00    -0.296 OA
ATOM     31  O11 H1S d 301      16.228   8.514  31.894  0.00  0.00    -0.254 OA
ATOM     32  O25 H1S d 301      21.485   9.355  34.666  0.00  0.00    -0.389 OA
ATOM     33  C12 H1S d 301      20.290  11.302  35.554  0.00  0.00     0.135 C 
ATOM     34  S20 H1S d 301      14.436   8.258  38.772  0.00  0.00     0.156 S 
ATOM     35  S26 H1S d 301      20.279  13.130  37.218  0.00  0.00     0.252 S 
ATOM     36  H   H1S d 301      22.311  11.243  34.836  0.00  0.00     0.093 H 
ATOM     37  H   H1S d 301      13.792   9.959  37.574  0.00  0.00     0.140 HD
ATOM     38  H   H1S d 301      18.126  11.425  35.584  0.00  0.00     0.134 H 
ATOM     39  H   H1S d 301      13.389   9.666  35.362  0.00  0.00     0.131 H 
ATOM     40  H   H1S d 301      15.434  11.664  35.531  0.00  0.00     0.212 HD
ATOM     41  H   H1S d 301      17.871   9.627  32.405  0.00  0.00     0.080 H 
ATOM     42  H   H1S d 301      16.500  10.532  31.765  0.00  0.00     0.080 H 
ATOM     43  H   H1S d 301      12.942   9.161  39.684  0.00  0.00     0.231 HD
ATOM     44  H   H1S d 301      18.387   9.205  37.195  0.00  0.00     0.210 HD
ATOM     45  H   H1S d 301      16.725  10.667  36.481  0.00  0.00     0.089 H 
ATOM     46  H   H1S d 301      15.113   8.138  36.195  0.00  0.00     0.076 H 
ATOM     47  H   H1S d 301      12.626   7.507  37.812  0.00  0.00     0.231 HD
ATOM     48  H   H1S d 301      16.410  11.083  34.030  0.00  0.00     0.090 H 
ATOM     49  H   H1S d 301      21.811  11.046  32.403  0.00  0.00     0.085 H 
ATOM     50  H   H1S d 301      17.219   8.236  34.761  0.00  0.00     0.091 H 
ATOM     51  H   H1S d 301      16.241   8.357  39.557  0.00  0.00     0.231 HD
ATOM     52  H   H1S d 301      20.638   8.953  34.416  0.00  0.00     0.210 HD
ATOM     53  H   H1S d 301      20.361  10.784  36.487  0.00  0.00     0.097 H 
ENDROOT
TORSDOF 16
ENDMDL
