MODEL 1
REMARK VINA RESULT:     -12.5      0.000      0.000
REMARK  0 active torsions:
REMARK  status: ('A' for Active; 'I' for Inactive)
REMARK       I    between atoms: O4A_2  and  C49_47 
REMARK       I    between atoms: O4A_2  and  S4B_15 
REMARK       I    between atoms: C3F_4  and  N3G_69 
REMARK       I    between atoms: S17_5  and  O16_54 
REMARK       I    between atoms: C5L_6  and  O5M_26 
REMARK       I    between atoms: C4F_7  and  O4G_60 
REMARK       I    between atoms: N1F_9  and  C1E_19 
REMARK       I    between atoms: N1F_9  and  S1G_71 
REMARK       I    between atoms: O5J_11  and  S5H_38 
REMARK       I    between atoms: C3L_12  and  O3M_62 
REMARK       I    between atoms: C29_13  and  O2A_90 
REMARK       I    between atoms: S3B_14  and  O3A_85 
REMARK       I    between atoms: C20_18  and  O1L_72 
REMARK       I    between atoms: O3J_20  and  S3H_80 
REMARK       I    between atoms: C31_23  and  C33_44 
REMARK       I    between atoms: C46_25  and  O47_33 
REMARK       I    between atoms: O5M_26  and  C5N_35 
REMARK       I    between atoms: C51_28  and  C53_48 
REMARK       I    between atoms: C5F_29  and  N5G_43 
REMARK       I    between atoms: C59_30  and  O5A_59 
REMARK       I    between atoms: C21_31  and  C23_64 
REMARK       I    between atoms: C26_32  and  O27_76 
REMARK       I    between atoms: O1J_34  and  S1G_71 
REMARK       I    between atoms: O3K_36  and  S3H_80 
REMARK       I    between atoms: O5I_37  and  S5H_38 
REMARK       I    between atoms: S5H_38  and  O5K_53 
REMARK       I    between atoms: S5H_38  and  N5G_43 
REMARK       I    between atoms: C39_39  and  O3A_85 
REMARK       I    between atoms: C1K_40  and  O1L_72 
REMARK       I    between atoms: C2C_41  and  O2D_45 
REMARK       I    between atoms: C33_44  and  O34_74 
REMARK       I    between atoms: O2D_45  and  C30_91 
REMARK       I    between atoms: C12_46  and  O10_51 
REMARK       I    between atoms: C53_48  and  O54_57 
REMARK       I    between atoms: O3I_50  and  S3H_80 
REMARK       I    between atoms: O16_54  and  C15_68 
REMARK       I    between atoms: C43_56  and  C41_65 
REMARK       I    between atoms: O54_57  and  S55_58 
REMARK       I    between atoms: O4G_60  and  C50_77 
REMARK       I    between atoms: O3M_62  and  C40_70 
REMARK       I    between atoms: O1C_67  and  C1B_86 
REMARK       I    between atoms: C15_68  and  C13_83 
REMARK       I    between atoms: N3G_69  and  S3H_80 
REMARK       I    between atoms: S1G_71  and  O1H_75 
REMARK       I    between atoms: S1G_71  and  O1I_82 
REMARK       I    between atoms: O34_74  and  S35_81 
ROOT
ATOM      1  O42 NTO d 869     -20.081  16.844 -19.541  0.00  0.00    -0.340 OA
ATOM      2  O4A NTO d 869     -22.395  19.095 -21.299  0.00  0.00    -0.244 OA
ATOM      3  O32 NTO d 869     -16.517  20.162 -20.934  0.00  0.00    -0.349 OA
ATOM      4  C3F NTO d 869     -15.996  18.365 -22.449  0.00  0.00     0.083 C 
ATOM      5  S17 NTO d 869      -5.765  12.982 -19.219  0.00  0.00     0.251 S 
ATOM      6  C5L NTO d 869     -24.165  13.589 -17.609  0.00  0.00     0.149 C 
ATOM      7  C4F NTO d 869     -21.340  17.289 -20.068  0.00  0.00     0.161 C 
ATOM      8  O14 NTO d 869      -7.009  16.542 -17.693  0.00  0.00    -0.349 OA
ATOM      9  N1F NTO d 869      -7.633  20.041 -16.714  0.00  0.00    -0.210 NA
ATOM     10  O37 NTO d 869     -14.206  23.015 -17.884  0.00  0.00    -0.572 OA
ATOM     11  O5J NTO d 869     -22.446  11.488 -16.080  0.00  0.00    -0.296 OA
ATOM     12  C3L NTO d 869     -17.110  19.128 -21.736  0.00  0.00     0.150 C 
ATOM     13  C29 NTO d 869     -12.070  18.275 -17.753  0.00  0.00     0.110 C 
ATOM     14  S3B NTO d 869     -14.233  15.563 -21.853  0.00  0.00     0.252 S 
ATOM     15  S4B NTO d 869     -23.122  20.216 -20.790  0.00  0.00     0.252 S 
ATOM     16  O24 NTO d 869      -9.898  16.545 -21.601  0.00  0.00    -0.646 OA
ATOM     17  O45 NTO d 869     -17.191  16.823 -18.993  0.00  0.00    -0.646 OA
ATOM     18  C20 NTO d 869      -9.797  17.863 -18.676  0.00  0.00     0.103 C 
ATOM     19  C1E NTO d 869      -6.831  18.843 -16.992  0.00  0.00     0.081 C 
ATOM     20  O3J NTO d 869     -17.210  17.463 -25.840  0.00  0.00    -0.296 OA
ATOM     21  O38 NTO d 869     -13.466  23.790 -20.092  0.00  0.00    -0.572 OA
ATOM     22  O18 NTO d 869      -5.696  12.472 -17.811  0.00  0.00    -0.572 OA
ATOM     23  C31 NTO d 869     -15.728  19.600 -19.873  0.00  0.00     0.091 C 
ATOM     24  O52 NTO d 869     -24.163  13.819 -19.028  0.00  0.00    -0.349 OA
ATOM     25  C46 NTO d 869     -19.975  19.110 -21.121  0.00  0.00     0.094 C 
ATOM     26  O5M NTO d 869     -25.314  14.154 -16.965  0.00  0.00    -0.364 OA
ATOM     27  O3D NTO d 869     -13.084  14.852 -22.504  0.00  0.00    -0.572 OA
ATOM     28  C51 NTO d 869     -23.944  15.196 -19.375  0.00  0.00     0.091 C 
ATOM     29  C5F NTO d 869     -22.868  14.075 -16.960  0.00  0.00     0.081 C 
ATOM     30  C59 NTO d 869     -22.595  15.535 -17.324  0.00  0.00     0.083 C 
ATOM     31  C21 NTO d 869     -10.349  18.282 -20.030  0.00  0.00     0.152 C 
ATOM     32  C26 NTO d 869     -10.585  18.616 -17.606  0.00  0.00     0.092 C 
ATOM     33  O47 NTO d 869     -19.965  20.493 -21.485  0.00  0.00    -0.390 OA
ATOM     34  O1J NTO d 869      -7.784  22.076 -15.184  0.00  0.00    -0.296 OA
ATOM     35  C5N NTO d 869     -26.411  13.242 -17.091  0.00  0.00     0.007 C 
ATOM     36  O3K NTO d 869     -17.358  19.514 -24.533  0.00  0.00    -0.296 OA
ATOM     37  O5I NTO d 869     -20.794  12.778 -14.813  0.00  0.00    -0.296 OA
ATOM     38  S5H NTO d 869     -22.258  12.540 -15.027  0.00  0.00     0.156 S 
ATOM     39  C39 NTO d 869     -15.136  17.690 -21.379  0.00  0.00     0.108 C 
ATOM     40  C1K NTO d 869      -7.778  17.727 -17.434  0.00  0.00     0.150 C 
ATOM     41  C2C NTO d 869     -12.554  18.576 -19.174  0.00  0.00     0.160 C 
ATOM     42  O19 NTO d 869      -4.400  12.944 -19.839  0.00  0.00    -0.572 OA
ATOM     43  N5G NTO d 869     -22.962  13.934 -15.499  0.00  0.00    -0.210 NA
ATOM     44  C33 NTO d 869     -15.141  20.730 -19.021  0.00  0.00     0.067 C 
ATOM     45  O2D NTO d 869     -13.915  18.131 -19.300  0.00  0.00    -0.348 OA
ATOM     46  C12 NTO d 869      -5.131  17.854 -18.539  0.00  0.00     0.089 C 
ATOM     47  C49 NTO d 869     -21.300  18.775 -20.437  0.00  0.00     0.134 C 
ATOM     48  C53 NTO d 869     -23.931  15.282 -20.902  0.00  0.00     0.067 C 
ATOM     49  O4D NTO d 869     -22.353  21.477 -21.053  0.00  0.00    -0.572 OA
ATOM     50  O3I NTO d 869     -18.982  17.713 -24.167  0.00  0.00    -0.296 OA
ATOM     51  O10 NTO d 869      -4.385  18.109 -19.732  0.00  0.00    -0.390 OA
ATOM     52  O1A NTO d 869      -6.705  12.124 -20.011  0.00  0.00    -0.572 OA
ATOM     53  O5K NTO d 869     -22.885  12.063 -13.750  0.00  0.00    -0.296 OA
ATOM     54  O16 NTO d 869      -6.254  14.328 -19.214  0.00  0.00    -0.254 OA
ATOM     55  O56 NTO d 869     -21.547  14.963 -23.312  0.00  0.00    -0.572 OA
ATOM     56  C43 NTO d 869     -18.071  17.388 -18.304  0.00  0.00     0.206 C 
ATOM     57  O54 NTO d 869     -22.946  14.399 -21.442  0.00  0.00    -0.254 OA
ATOM     58  S55 NTO d 869     -22.788  14.254 -22.858  0.00  0.00     0.251 S 
ATOM     59  O5A NTO d 869     -21.303  15.916 -16.841  0.00  0.00    -0.391 OA
ATOM     60  O4G NTO d 869     -22.422  17.080 -19.149  0.00  0.00    -0.348 OA
ATOM     61  O3C NTO d 869     -15.508  15.143 -22.521  0.00  0.00    -0.572 OA
ATOM     62  O3M NTO d 869     -17.781  18.186 -20.888  0.00  0.00    -0.348 OA
ATOM     63  O44 NTO d 869     -17.995  17.537 -17.057  0.00  0.00    -0.646 OA
ATOM     64  C23 NTO d 869      -9.498  17.626 -21.108  0.00  0.00     0.206 C 
ATOM     65  C41 NTO d 869     -19.297  17.932 -19.020  0.00  0.00     0.152 C 
ATOM     66  O22 NTO d 869     -11.734  17.913 -20.151  0.00  0.00    -0.340 OA
ATOM     67  O1C NTO d 869      -4.895  20.109 -17.697  0.00  0.00    -0.391 OA
ATOM     68  C15 NTO d 869      -5.359  15.426 -19.025  0.00  0.00     0.067 C 
ATOM     69  N3G NTO d 869     -16.580  17.362 -23.359  0.00  0.00    -0.210 NA
ATOM     70  C40 NTO d 869     -18.827  18.833 -20.153  0.00  0.00     0.103 C 
ATOM     71  S1G NTO d 869      -6.989  20.830 -15.442  0.00  0.00     0.156 S 
ATOM     72  O1L NTO d 869      -8.400  18.188 -18.642  0.00  0.00    -0.348 OA
ATOM     73  O57 NTO d 869     -23.978  14.847 -23.552  0.00  0.00    -0.572 OA
ATOM     74  O34 NTO d 869     -14.254  21.555 -19.783  0.00  0.00    -0.254 OA
ATOM     75  O1H NTO d 869      -5.564  21.185 -15.746  0.00  0.00    -0.296 OA
ATOM     76  O27 NTO d 869     -10.140  18.222 -16.305  0.00  0.00    -0.390 OA
ATOM     77  C50 NTO d 869     -22.606  15.690 -18.844  0.00  0.00     0.095 C 
ATOM     78  O3E NTO d 869     -14.292  15.191 -20.400  0.00  0.00    -0.572 OA
ATOM     79  O25 NTO d 869      -8.430  18.195 -21.435  0.00  0.00    -0.646 OA
ATOM     80  S3H NTO d 869     -17.551  18.027 -24.493  0.00  0.00     0.156 S 
ATOM     81  S35 NTO d 869     -13.522  22.618 -19.159  0.00  0.00     0.251 S 
ATOM     82  O1I NTO d 869      -7.043  19.943 -14.232  0.00  0.00    -0.296 OA
ATOM     83  C13 NTO d 869      -6.132  16.730 -18.815  0.00  0.00     0.090 C 
ATOM     84  O58 NTO d 869     -22.686  12.797 -23.193  0.00  0.00    -0.572 OA
ATOM     85  O3A NTO d 869     -14.055  16.977 -21.991  0.00  0.00    -0.247 OA
ATOM     86  C1B NTO d 869      -5.853  19.140 -18.128  0.00  0.00     0.083 C 
ATOM     87  O4C NTO d 869     -23.336  20.051 -19.315  0.00  0.00    -0.572 OA
ATOM     88  O4E NTO d 869     -24.452  20.279 -21.478  0.00  0.00    -0.572 OA
ATOM     89  O36 NTO d 869     -12.127  22.165 -18.851  0.00  0.00    -0.572 OA
ATOM     90  O2A NTO d 869     -12.826  19.045 -16.816  0.00  0.00    -0.388 OA
ATOM     91  C30 NTO d 869     -14.589  18.744 -20.411  0.00  0.00     0.096 C 
ATOM     92  H   NTO d 869     -15.394  19.028 -23.036  0.00  0.00     0.076 H 
ATOM     93  H   NTO d 869     -24.223  12.530 -17.472  0.00  0.00     0.131 H 
ATOM     94  H   NTO d 869     -21.510  16.700 -20.945  0.00  0.00     0.133 H 
ATOM     95  H   NTO d 869      -8.591  19.768 -16.497  0.00  0.00     0.140 HD
ATOM     96  H   NTO d 869     -22.024  10.663 -15.791  0.00  0.00     0.231 HD
ATOM     97  H   NTO d 869     -17.795  19.572 -22.428  0.00  0.00     0.131 H 
ATOM     98  H   NTO d 869     -12.205  17.232 -17.559  0.00  0.00     0.094 H 
ATOM     99  H   NTO d 869      -9.897  16.813 -18.501  0.00  0.00     0.092 H 
ATOM    100  H   NTO d 869      -6.287  18.552 -16.117  0.00  0.00     0.076 H 
ATOM    101  H   NTO d 869     -17.787  17.858 -26.512  0.00  0.00     0.231 HD
ATOM    102  H   NTO d 869     -16.369  18.978 -19.284  0.00  0.00     0.090 H 
ATOM    103  H   NTO d 869     -19.860  18.509 -21.999  0.00  0.00     0.091 H 
ATOM    104  H   NTO d 869     -24.715  15.801 -18.946  0.00  0.00     0.090 H 
ATOM    105  H   NTO d 869     -22.059  13.478 -17.324  0.00  0.00     0.076 H 
ATOM    106  H   NTO d 869     -23.349  16.153 -16.884  0.00  0.00     0.089 H 
ATOM    107  H   NTO d 869     -10.303  19.346 -20.139  0.00  0.00     0.104 H 
ATOM    108  H   NTO d 869     -10.434  19.668 -17.726  0.00  0.00     0.091 H 
ATOM    109  H   NTO d 869     -20.069  21.037 -20.688  0.00  0.00     0.210 HD
ATOM    110  H   NTO d 869      -7.749  22.649 -15.966  0.00  0.00     0.231 HD
ATOM    111  H   NTO d 869     -27.274  13.655 -16.612  0.00  0.00     0.066 H 
ATOM    112  H   NTO d 869     -26.157  12.312 -16.628  0.00  0.00     0.066 H 
ATOM    113  H   NTO d 869     -26.621  13.079 -18.127  0.00  0.00     0.066 H 
ATOM    114  H   NTO d 869     -17.939  19.897 -25.208  0.00  0.00     0.231 HD
ATOM    115  H   NTO d 869     -20.369  11.952 -14.531  0.00  0.00     0.231 HD
ATOM    116  H   NTO d 869     -15.741  16.996 -20.834  0.00  0.00     0.092 H 
ATOM    117  H   NTO d 869      -8.511  17.496 -16.690  0.00  0.00     0.131 H 
ATOM    118  H   NTO d 869     -12.488  19.629 -19.349  0.00  0.00     0.133 H 
ATOM    119  H   NTO d 869     -23.944  13.927 -15.223  0.00  0.00     0.140 HD
ATOM    120  H   NTO d 869     -14.602  20.303 -18.202  0.00  0.00     0.080 H 
ATOM    121  H   NTO d 869     -15.948  21.340 -18.671  0.00  0.00     0.080 H 
ATOM    122  H   NTO d 869      -4.484  17.551 -17.743  0.00  0.00     0.091 H 
ATOM    123  H   NTO d 869     -21.384  19.357 -19.542  0.00  0.00     0.097 H 
ATOM    124  H   NTO d 869     -23.705  16.285 -21.197  0.00  0.00     0.080 H 
ATOM    125  H   NTO d 869     -24.894  14.997 -21.274  0.00  0.00     0.080 H 
ATOM    126  H   NTO d 869     -19.560  18.107 -24.839  0.00  0.00     0.231 HD
ATOM    127  H   NTO d 869      -4.990  18.382 -20.439  0.00  0.00     0.210 HD
ATOM    128  H   NTO d 869     -22.464  11.234 -13.473  0.00  0.00     0.231 HD
ATOM    129  H   NTO d 869     -20.627  15.351 -17.247  0.00  0.00     0.210 HD
ATOM    130  H   NTO d 869     -19.907  18.490 -18.340  0.00  0.00     0.104 H 
ATOM    131  H   NTO d 869      -5.353  20.923 -17.437  0.00  0.00     0.210 HD
ATOM    132  H   NTO d 869      -4.737  15.523 -19.890  0.00  0.00     0.080 H 
ATOM    133  H   NTO d 869      -4.764  15.236 -18.156  0.00  0.00     0.080 H 
ATOM    134  H   NTO d 869     -17.127  16.701 -22.808  0.00  0.00     0.140 HD
ATOM    135  H   NTO d 869     -18.476  19.748 -19.725  0.00  0.00     0.092 H 
ATOM    136  H   NTO d 869      -5.534  21.759 -16.527  0.00  0.00     0.231 HD
ATOM    137  H   NTO d 869     -10.275  17.268 -16.191  0.00  0.00     0.210 HD
ATOM    138  H   NTO d 869     -21.825  15.118 -19.301  0.00  0.00     0.091 H 
ATOM    139  H   NTO d 869      -7.966  19.716 -14.039  0.00  0.00     0.231 HD
ATOM    140  H   NTO d 869      -6.708  16.992 -19.678  0.00  0.00     0.090 H 
ATOM    141  H   NTO d 869      -6.395  19.524 -18.967  0.00  0.00     0.089 H 
ATOM    142  H   NTO d 869     -12.699  19.989 -16.996  0.00  0.00     0.210 HD
ATOM    143  H   NTO d 869     -13.892  19.350 -20.951  0.00  0.00     0.091 H 
ENDROOT
TORSDOF 46
ENDMDL
MODEL 2
REMARK VINA RESULT:      -9.7      1.014      1.047
REMARK  0 active torsions:
REMARK  status: ('A' for Active; 'I' for Inactive)
REMARK       I    between atoms: O4A_2  and  C49_47 
REMARK       I    between atoms: O4A_2  and  S4B_15 
REMARK       I    between atoms: C3F_4  and  N3G_69 
REMARK       I    between atoms: S17_5  and  O16_54 
REMARK       I    between atoms: C5L_6  and  O5M_26 
REMARK       I    between atoms: C4F_7  and  O4G_60 
REMARK       I    between atoms: N1F_9  and  C1E_19 
REMARK       I    between atoms: N1F_9  and  S1G_71 
REMARK       I    between atoms: O5J_11  and  S5H_38 
REMARK       I    between atoms: C3L_12  and  O3M_62 
REMARK       I    between atoms: C29_13  and  O2A_90 
REMARK       I    between atoms: S3B_14  and  O3A_85 
REMARK       I    between atoms: C20_18  and  O1L_72 
REMARK       I    between atoms: O3J_20  and  S3H_80 
REMARK       I    between atoms: C31_23  and  C33_44 
REMARK       I    between atoms: C46_25  and  O47_33 
REMARK       I    between atoms: O5M_26  and  C5N_35 
REMARK       I    between atoms: C51_28  and  C53_48 
REMARK       I    between atoms: C5F_29  and  N5G_43 
REMARK       I    between atoms: C59_30  and  O5A_59 
REMARK       I    between atoms: C21_31  and  C23_64 
REMARK       I    between atoms: C26_32  and  O27_76 
REMARK       I    between atoms: O1J_34  and  S1G_71 
REMARK       I    between atoms: O3K_36  and  S3H_80 
REMARK       I    between atoms: O5I_37  and  S5H_38 
REMARK       I    between atoms: S5H_38  and  O5K_53 
REMARK       I    between atoms: S5H_38  and  N5G_43 
REMARK       I    between atoms: C39_39  and  O3A_85 
REMARK       I    between atoms: C1K_40  and  O1L_72 
REMARK       I    between atoms: C2C_41  and  O2D_45 
REMARK       I    between atoms: C33_44  and  O34_74 
REMARK       I    between atoms: O2D_45  and  C30_91 
REMARK       I    between atoms: C12_46  and  O10_51 
REMARK       I    between atoms: C53_48  and  O54_57 
REMARK       I    between atoms: O3I_50  and  S3H_80 
REMARK       I    between atoms: O16_54  and  C15_68 
REMARK       I    between atoms: C43_56  and  C41_65 
REMARK       I    between atoms: O54_57  and  S55_58 
REMARK       I    between atoms: O4G_60  and  C50_77 
REMARK       I    between atoms: O3M_62  and  C40_70 
REMARK       I    between atoms: O1C_67  and  C1B_86 
REMARK       I    between atoms: C15_68  and  C13_83 
REMARK       I    between atoms: N3G_69  and  S3H_80 
REMARK       I    between atoms: S1G_71  and  O1H_75 
REMARK       I    between atoms: S1G_71  and  O1I_82 
REMARK       I    between atoms: O34_74  and  S35_81 
ROOT
ATOM      1  O42 NTO d 869     -20.484  17.567 -19.033  0.00  0.00    -0.340 OA
ATOM      2  O4A NTO d 869     -22.779  20.152 -20.283  0.00  0.00    -0.244 OA
ATOM      3  O32 NTO d 869     -16.831  20.823 -20.341  0.00  0.00    -0.349 OA
ATOM      4  C3F NTO d 869     -16.567  19.204 -22.104  0.00  0.00     0.083 C 
ATOM      5  S17 NTO d 869      -6.494  12.873 -20.512  0.00  0.00     0.251 S 
ATOM      6  C5L NTO d 869     -24.604  14.336 -17.136  0.00  0.00     0.149 C 
ATOM      7  C4F NTO d 869     -21.750  18.147 -19.383  0.00  0.00     0.161 C 
ATOM      8  O14 NTO d 869      -7.355  16.278 -18.459  0.00  0.00    -0.349 OA
ATOM      9  N1F NTO d 869      -7.650  19.656 -17.011  0.00  0.00    -0.210 NA
ATOM     10  O37 NTO d 869     -14.078  23.130 -17.198  0.00  0.00    -0.572 OA
ATOM     11  O5J NTO d 869     -22.909  11.963 -16.037  0.00  0.00    -0.296 OA
ATOM     12  C3L NTO d 869     -17.561  19.935 -21.203  0.00  0.00     0.150 C 
ATOM     13  C29 NTO d 869     -12.270  18.295 -17.838  0.00  0.00     0.110 C 
ATOM     14  S3B NTO d 869     -14.956  16.252 -22.016  0.00  0.00     0.252 S 
ATOM     15  S4B NTO d 869     -23.381  21.240 -19.578  0.00  0.00     0.252 S 
ATOM     16  O24 NTO d 869     -10.558  16.942 -22.052  0.00  0.00    -0.646 OA
ATOM     17  O45 NTO d 869     -17.566  17.310 -18.762  0.00  0.00    -0.646 OA
ATOM     18  C20 NTO d 869     -10.118  17.872 -19.012  0.00  0.00     0.103 C 
ATOM     19  C1E NTO d 869      -6.959  18.458 -17.505  0.00  0.00     0.081 C 
ATOM     20  O3J NTO d 869     -18.125  18.809 -25.451  0.00  0.00    -0.296 OA
ATOM     21  O38 NTO d 869     -13.477  24.133 -19.355  0.00  0.00    -0.572 OA
ATOM     22  O18 NTO d 869      -6.340  12.187 -19.188  0.00  0.00    -0.572 OA
ATOM     23  C31 NTO d 869     -15.996  20.087 -19.433  0.00  0.00     0.091 C 
ATOM     24  O52 NTO d 869     -24.706  14.742 -18.510  0.00  0.00    -0.349 OA
ATOM     25  C46 NTO d 869     -20.357  20.004 -20.331  0.00  0.00     0.094 C 
ATOM     26  O5M NTO d 869     -25.652  14.880 -16.324  0.00  0.00    -0.364 OA
ATOM     27  O3D NTO d 869     -13.919  15.564 -22.852  0.00  0.00    -0.572 OA
ATOM     28  C51 NTO d 869     -24.423  16.137 -18.707  0.00  0.00     0.091 C 
ATOM     29  C5F NTO d 869     -23.226  14.660 -16.556  0.00  0.00     0.081 C 
ATOM     30  C59 NTO d 869     -22.884  16.136 -16.766  0.00  0.00     0.083 C 
ATOM     31  C21 NTO d 869     -10.753  18.490 -20.249  0.00  0.00     0.152 C 
ATOM     32  C26 NTO d 869     -10.759  18.528 -17.790  0.00  0.00     0.092 C 
ATOM     33  O47 NTO d 869     -20.283  21.420 -20.525  0.00  0.00    -0.390 OA
ATOM     34  O1J NTO d 869      -7.530  21.487 -15.240  0.00  0.00    -0.296 OA
ATOM     35  C5N NTO d 869     -26.815  14.057 -16.456  0.00  0.00     0.007 C 
ATOM     36  O3K NTO d 869     -18.019  20.684 -23.898  0.00  0.00    -0.296 OA
ATOM     37  O5I NTO d 869     -21.070  12.985 -14.783  0.00  0.00    -0.296 OA
ATOM     38  S5H NTO d 869     -22.561  12.860 -14.887  0.00  0.00     0.156 S 
ATOM     39  C39 NTO d 869     -15.667  18.351 -21.207  0.00  0.00     0.108 C 
ATOM     40  C1K NTO d 869      -8.015  17.464 -17.989  0.00  0.00     0.150 C 
ATOM     41  C2C NTO d 869     -12.852  18.800 -19.161  0.00  0.00     0.160 C 
ATOM     42  O19 NTO d 869      -5.192  12.835 -21.256  0.00  0.00    -0.572 OA
ATOM     43  N5G NTO d 869     -23.204  14.341 -15.121  0.00  0.00    -0.210 NA
ATOM     44  C33 NTO d 869     -15.262  21.064 -18.510  0.00  0.00     0.067 C 
ATOM     45  O2D NTO d 869     -14.246  18.455 -19.213  0.00  0.00    -0.348 OA
ATOM     46  C12 NTO d 869      -5.469  17.576 -19.312  0.00  0.00     0.089 C 
ATOM     47  C49 NTO d 869     -21.639  19.663 -19.572  0.00  0.00     0.134 C 
ATOM     48  C53 NTO d 869     -24.535  16.414 -20.208  0.00  0.00     0.067 C 
ATOM     49  O4D NTO d 869     -22.552  22.477 -19.757  0.00  0.00    -0.572 OA
ATOM     50  O3I NTO d 869     -19.726  18.948 -23.602  0.00  0.00    -0.296 OA
ATOM     51  O10 NTO d 869      -4.812  17.936 -20.530  0.00  0.00    -0.390 OA
ATOM     52  O1A NTO d 869      -7.554  12.178 -21.311  0.00  0.00    -0.572 OA
ATOM     53  O5K NTO d 869     -23.108  12.264 -13.624  0.00  0.00    -0.296 OA
ATOM     54  O16 NTO d 869      -6.886  14.234 -20.299  0.00  0.00    -0.254 OA
ATOM     55  O56 NTO d 869     -22.392  16.265 -22.850  0.00  0.00    -0.572 OA
ATOM     56  C43 NTO d 869     -18.343  17.833 -17.932  0.00  0.00     0.206 C 
ATOM     57  O54 NTO d 869     -23.663  15.551 -20.940  0.00  0.00    -0.254 OA
ATOM     58  S55 NTO d 869     -23.636  15.578 -22.372  0.00  0.00     0.251 S 
ATOM     59  O5A NTO d 869     -21.533  16.378 -16.363  0.00  0.00    -0.391 OA
ATOM     60  O4G NTO d 869     -22.762  17.887 -18.399  0.00  0.00    -0.348 OA
ATOM     61  O3C NTO d 869     -16.309  15.995 -22.609  0.00  0.00    -0.572 OA
ATOM     62  O3M NTO d 869     -18.220  18.933 -20.416  0.00  0.00    -0.348 OA
ATOM     63  O44 NTO d 869     -18.151  17.819 -16.688  0.00  0.00    -0.646 OA
ATOM     64  C23 NTO d 869     -10.044  17.928 -21.472  0.00  0.00     0.206 C 
ATOM     65  C41 NTO d 869     -19.586  18.534 -18.459  0.00  0.00     0.152 C 
ATOM     66  O22 NTO d 869     -12.166  18.220 -20.283  0.00  0.00    -0.340 OA
ATOM     67  O1C NTO d 869      -5.008  19.690 -18.230  0.00  0.00    -0.391 OA
ATOM     68  C15 NTO d 869      -5.905  15.246 -20.064  0.00  0.00     0.067 C 
ATOM     69  N3G NTO d 869     -17.294  18.360 -23.070  0.00  0.00    -0.210 NA
ATOM     70  C40 NTO d 869     -19.153  19.541 -19.514  0.00  0.00     0.103 C 
ATOM     71  S1G NTO d 869      -6.847  20.240 -15.719  0.00  0.00     0.156 S 
ATOM     72  O1L NTO d 869      -8.704  18.109 -19.069  0.00  0.00    -0.348 OA
ATOM     73  O57 NTO d 869     -24.837  16.322 -22.875  0.00  0.00    -0.572 OA
ATOM     74  O34 NTO d 869     -14.389  21.926 -19.246  0.00  0.00    -0.254 OA
ATOM     75  O1H NTO d 869      -5.432  20.547 -16.109  0.00  0.00    -0.296 OA
ATOM     76  O27 NTO d 869     -10.232  17.948 -16.593  0.00  0.00    -0.390 OA
ATOM     77  C50 NTO d 869     -23.014  16.482 -18.248  0.00  0.00     0.095 C 
ATOM     78  O3E NTO d 869     -14.918  15.704 -20.619  0.00  0.00    -0.572 OA
ATOM     79  O25 NTO d 869      -8.971  18.470 -21.825  0.00  0.00    -0.646 OA
ATOM     80  S3H NTO d 869     -18.310  19.217 -24.019  0.00  0.00     0.156 S 
ATOM     81  S35 NTO d 869     -13.534  22.858 -18.569  0.00  0.00     0.251 S 
ATOM     82  O1I NTO d 869      -6.859  19.212 -14.625  0.00  0.00    -0.296 OA
ATOM     83  C13 NTO d 869      -6.566  16.556 -19.627  0.00  0.00     0.090 C 
ATOM     84  O58 NTO d 869     -23.664  14.171 -22.887  0.00  0.00    -0.572 OA
ATOM     85  O3A NTO d 869     -14.694  17.659 -21.999  0.00  0.00    -0.247 OA
ATOM     86  C1B NTO d 869      -6.063  18.839 -18.684  0.00  0.00     0.083 C 
ATOM     87  O4C NTO d 869     -23.479  20.903 -18.119  0.00  0.00    -0.572 OA
ATOM     88  O4E NTO d 869     -24.758  21.466 -20.126  0.00  0.00    -0.572 OA
ATOM     89  O36 NTO d 869     -12.152  22.289 -18.450  0.00  0.00    -0.572 OA
ATOM     90  O2A NTO d 869     -12.890  18.983 -16.750  0.00  0.00    -0.388 OA
ATOM     91  C30 NTO d 869     -14.969  19.241 -20.174  0.00  0.00     0.096 C 
ATOM     92  H   NTO d 869     -15.973  19.900 -22.660  0.00  0.00     0.076 H 
ATOM     93  H   NTO d 869     -24.723  13.274 -17.122  0.00  0.00     0.131 H 
ATOM     94  H   NTO d 869     -22.034  17.684 -20.305  0.00  0.00     0.133 H 
ATOM     95  H   NTO d 869      -8.603  19.414 -16.741  0.00  0.00     0.140 HD
ATOM     96  H   NTO d 869     -22.523  11.085 -15.891  0.00  0.00     0.231 HD
ATOM     97  H   NTO d 869     -18.270  20.501 -21.770  0.00  0.00     0.131 H 
ATOM     98  H   NTO d 869     -12.460  17.246 -17.760  0.00  0.00     0.094 H 
ATOM     99  H   NTO d 869     -10.275  16.816 -18.957  0.00  0.00     0.092 H 
ATOM    100  H   NTO d 869      -6.364  18.028 -16.726  0.00  0.00     0.076 H 
ATOM    101  H   NTO d 869     -18.728  19.318 -26.014  0.00  0.00     0.231 HD
ATOM    102  H   NTO d 869     -16.625  19.433 -18.867  0.00  0.00     0.090 H 
ATOM    103  H   NTO d 869     -20.359  19.513 -21.281  0.00  0.00     0.091 H 
ATOM    104  H   NTO d 869     -25.112  16.728 -18.139  0.00  0.00     0.090 H 
ATOM    105  H   NTO d 869     -22.493  14.068 -17.063  0.00  0.00     0.076 H 
ATOM    106  H   NTO d 869     -23.554  16.736 -16.186  0.00  0.00     0.089 H 
ATOM    107  H   NTO d 869     -10.644  19.554 -20.232  0.00  0.00     0.104 H 
ATOM    108  H   NTO d 869     -10.546  19.577 -17.796  0.00  0.00     0.091 H 
ATOM    109  H   NTO d 869     -20.281  21.864 -19.662  0.00  0.00     0.210 HD
ATOM    110  H   NTO d 869      -7.522  22.151 -15.947  0.00  0.00     0.231 HD
ATOM    111  H   NTO d 869     -27.605  14.455 -15.853  0.00  0.00     0.066 H 
ATOM    112  H   NTO d 869     -26.588  13.063 -16.134  0.00  0.00     0.066 H 
ATOM    113  H   NTO d 869     -27.124  14.038 -17.481  0.00  0.00     0.066 H 
ATOM    114  H   NTO d 869     -18.628  21.182 -24.465  0.00  0.00     0.231 HD
ATOM    115  H   NTO d 869     -20.681  12.107 -14.644  0.00  0.00     0.231 HD
ATOM    116  H   NTO d 869     -16.270  17.630 -20.696  0.00  0.00     0.092 H 
ATOM    117  H   NTO d 869      -8.697  17.184 -17.213  0.00  0.00     0.131 H 
ATOM    118  H   NTO d 869     -12.729  19.861 -19.213  0.00  0.00     0.133 H 
ATOM    119  H   NTO d 869     -24.157  14.357 -14.757  0.00  0.00     0.140 HD
ATOM    120  H   NTO d 869     -14.686  20.507 -17.802  0.00  0.00     0.080 H 
ATOM    121  H   NTO d 869     -15.993  21.670 -18.015  0.00  0.00     0.080 H 
ATOM    122  H   NTO d 869      -4.780  17.138 -18.621  0.00  0.00     0.091 H 
ATOM    123  H   NTO d 869     -21.606  20.131 -18.610  0.00  0.00     0.097 H 
ATOM    124  H   NTO d 869     -24.267  17.432 -20.400  0.00  0.00     0.080 H 
ATOM    125  H   NTO d 869     -25.543  16.235 -20.521  0.00  0.00     0.080 H 
ATOM    126  H   NTO d 869     -20.331  19.456 -24.165  0.00  0.00     0.231 HD
ATOM    127  H   NTO d 869      -5.455  18.330 -21.139  0.00  0.00     0.210 HD
ATOM    128  H   NTO d 869     -22.723  11.384 -13.490  0.00  0.00     0.231 HD
ATOM    129  H   NTO d 869     -20.934  15.831 -16.894  0.00  0.00     0.210 HD
ATOM    130  H   NTO d 869     -20.096  19.036 -17.664  0.00  0.00     0.104 H 
ATOM    131  H   NTO d 869      -5.385  20.489 -17.832  0.00  0.00     0.210 HD
ATOM    132  H   NTO d 869      -5.353  15.415 -20.965  0.00  0.00     0.080 H 
ATOM    133  H   NTO d 869      -5.252  14.914 -19.283  0.00  0.00     0.080 H 
ATOM    134  H   NTO d 869     -17.837  17.667 -22.553  0.00  0.00     0.140 HD
ATOM    135  H   NTO d 869     -18.704  20.373 -19.014  0.00  0.00     0.092 H 
ATOM    136  H   NTO d 869      -5.430  21.212 -16.815  0.00  0.00     0.231 HD
ATOM    137  H   NTO d 869     -10.423  16.997 -16.583  0.00  0.00     0.210 HD
ATOM    138  H   NTO d 869     -22.316  15.929 -18.841  0.00  0.00     0.091 H 
ATOM    139  H   NTO d 869      -7.775  19.016 -14.376  0.00  0.00     0.231 HD
ATOM    140  H   NTO d 869      -7.193  16.958 -20.394  0.00  0.00     0.090 H 
ATOM    141  H   NTO d 869      -6.647  19.357 -19.416  0.00  0.00     0.089 H 
ATOM    142  H   NTO d 869     -12.713  19.934 -16.825  0.00  0.00     0.210 HD
ATOM    143  H   NTO d 869     -14.280  19.869 -20.700  0.00  0.00     0.091 H 
ENDROOT
TORSDOF 46
ENDMDL
MODEL 3
REMARK VINA RESULT:      -9.3      3.924      5.461
REMARK  0 active torsions:
REMARK  status: ('A' for Active; 'I' for Inactive)
REMARK       I    between atoms: O4A_2  and  C49_47 
REMARK       I    between atoms: O4A_2  and  S4B_15 
REMARK       I    between atoms: C3F_4  and  N3G_69 
REMARK       I    between atoms: S17_5  and  O16_54 
REMARK       I    between atoms: C5L_6  and  O5M_26 
REMARK       I    between atoms: C4F_7  and  O4G_60 
REMARK       I    between atoms: N1F_9  and  C1E_19 
REMARK       I    between atoms: N1F_9  and  S1G_71 
REMARK       I    between atoms: O5J_11  and  S5H_38 
REMARK       I    between atoms: C3L_12  and  O3M_62 
REMARK       I    between atoms: C29_13  and  O2A_90 
REMARK       I    between atoms: S3B_14  and  O3A_85 
REMARK       I    between atoms: C20_18  and  O1L_72 
REMARK       I    between atoms: O3J_20  and  S3H_80 
REMARK       I    between atoms: C31_23  and  C33_44 
REMARK       I    between atoms: C46_25  and  O47_33 
REMARK       I    between atoms: O5M_26  and  C5N_35 
REMARK       I    between atoms: C51_28  and  C53_48 
REMARK       I    between atoms: C5F_29  and  N5G_43 
REMARK       I    between atoms: C59_30  and  O5A_59 
REMARK       I    between atoms: C21_31  and  C23_64 
REMARK       I    between atoms: C26_32  and  O27_76 
REMARK       I    between atoms: O1J_34  and  S1G_71 
REMARK       I    between atoms: O3K_36  and  S3H_80 
REMARK       I    between atoms: O5I_37  and  S5H_38 
REMARK       I    between atoms: S5H_38  and  O5K_53 
REMARK       I    between atoms: S5H_38  and  N5G_43 
REMARK       I    between atoms: C39_39  and  O3A_85 
REMARK       I    between atoms: C1K_40  and  O1L_72 
REMARK       I    between atoms: C2C_41  and  O2D_45 
REMARK       I    between atoms: C33_44  and  O34_74 
REMARK       I    between atoms: O2D_45  and  C30_91 
REMARK       I    between atoms: C12_46  and  O10_51 
REMARK       I    between atoms: C53_48  and  O54_57 
REMARK       I    between atoms: O3I_50  and  S3H_80 
REMARK       I    between atoms: O16_54  and  C15_68 
REMARK       I    between atoms: C43_56  and  C41_65 
REMARK       I    between atoms: O54_57  and  S55_58 
REMARK       I    between atoms: O4G_60  and  C50_77 
REMARK       I    between atoms: O3M_62  and  C40_70 
REMARK       I    between atoms: O1C_67  and  C1B_86 
REMARK       I    between atoms: C15_68  and  C13_83 
REMARK       I    between atoms: N3G_69  and  S3H_80 
REMARK       I    between atoms: S1G_71  and  O1H_75 
REMARK       I    between atoms: S1G_71  and  O1I_82 
REMARK       I    between atoms: O34_74  and  S35_81 
ROOT
ATOM      1  O42 NTO d 869     -17.807  19.426 -19.235  0.00  0.00    -0.340 OA
ATOM      2  O4A NTO d 869     -20.767  20.873 -20.863  0.00  0.00    -0.244 OA
ATOM      3  O32 NTO d 869     -15.571  20.094 -23.731  0.00  0.00    -0.349 OA
ATOM      4  C3F NTO d 869     -15.842  17.702 -23.777  0.00  0.00     0.083 C 
ATOM      5  S17 NTO d 869      -5.231  12.250 -22.449  0.00  0.00     0.251 S 
ATOM      6  C5L NTO d 869     -20.214  19.269 -14.217  0.00  0.00     0.149 C 
ATOM      7  C4F NTO d 869     -19.172  19.857 -19.343  0.00  0.00     0.161 C 
ATOM      8  O14 NTO d 869      -5.633  16.223 -23.227  0.00  0.00    -0.349 OA
ATOM      9  N1F NTO d 869      -5.782  19.651 -24.576  0.00  0.00    -0.210 NA
ATOM     10  O37 NTO d 869     -12.120  23.292 -24.532  0.00  0.00    -0.572 OA
ATOM     11  O5J NTO d 869     -17.885  17.990 -12.588  0.00  0.00    -0.296 OA
ATOM     12  C3L NTO d 869     -16.458  19.032 -23.344  0.00  0.00     0.150 C 
ATOM     13  C29 NTO d 869     -10.063  19.073 -22.292  0.00  0.00     0.110 C 
ATOM     14  S3B NTO d 869     -13.931  15.347 -22.323  0.00  0.00     0.252 S 
ATOM     15  S4B NTO d 869     -21.168  22.243 -20.952  0.00  0.00     0.252 S 
ATOM     16  O24 NTO d 869     -10.115  14.912 -24.573  0.00  0.00    -0.646 OA
ATOM     17  O45 NTO d 869     -15.045  18.831 -20.057  0.00  0.00    -0.646 OA
ATOM     18  C20 NTO d 869      -8.573  17.539 -23.563  0.00  0.00     0.103 C 
ATOM     19  C1E NTO d 869      -5.197  18.329 -24.319  0.00  0.00     0.081 C 
ATOM     20  O3J NTO d 869     -18.592  15.473 -24.898  0.00  0.00    -0.296 OA
ATOM     21  O38 NTO d 869     -12.642  22.416 -26.765  0.00  0.00    -0.572 OA
ATOM     22  O18 NTO d 869      -4.433  12.631 -21.238  0.00  0.00    -0.572 OA
ATOM     23  C31 NTO d 869     -14.333  20.018 -23.008  0.00  0.00     0.091 C 
ATOM     24  O52 NTO d 869     -20.946  18.645 -15.284  0.00  0.00    -0.349 OA
ATOM     25  C46 NTO d 869     -18.600  20.242 -21.754  0.00  0.00     0.094 C 
ATOM     26  O5M NTO d 869     -20.888  20.417 -13.687  0.00  0.00    -0.364 OA
ATOM     27  O3D NTO d 869     -13.256  14.082 -22.763  0.00  0.00    -0.572 OA
ATOM     28  C51 NTO d 869     -20.982  19.440 -16.481  0.00  0.00     0.091 C 
ATOM     29  C5F NTO d 869     -18.784  19.609 -14.641  0.00  0.00     0.081 C 
ATOM     30  C59 NTO d 869     -18.784  20.440 -15.925  0.00  0.00     0.083 C 
ATOM     31  C21 NTO d 869      -9.754  17.267 -24.481  0.00  0.00     0.152 C 
ATOM     32  C26 NTO d 869      -8.725  18.961 -23.026  0.00  0.00     0.092 C 
ATOM     33  O47 NTO d 869     -18.824  21.096 -22.880  0.00  0.00    -0.390 OA
ATOM     34  O1J NTO d 869      -5.195  22.120 -24.825  0.00  0.00    -0.296 OA
ATOM     35  C5N NTO d 869     -21.864  19.983 -12.734  0.00  0.00     0.007 C 
ATOM     36  O3K NTO d 869     -18.117  17.829 -25.303  0.00  0.00    -0.296 OA
ATOM     37  O5I NTO d 869     -15.861  19.186 -13.273  0.00  0.00    -0.296 OA
ATOM     38  S5H NTO d 869     -17.220  19.332 -12.655  0.00  0.00     0.156 S 
ATOM     39  C39 NTO d 869     -14.534  17.523 -23.006  0.00  0.00     0.108 C 
ATOM     40  C1K NTO d 869      -6.200  17.514 -23.502  0.00  0.00     0.150 C 
ATOM     41  C2C NTO d 869     -11.217  18.652 -23.206  0.00  0.00     0.160 C 
ATOM     42  O19 NTO d 869      -4.376  11.454 -23.389  0.00  0.00    -0.572 OA
ATOM     43  N5G NTO d 869     -18.111  20.352 -13.565  0.00  0.00    -0.210 NA
ATOM     44  C33 NTO d 869     -13.430  21.185 -23.421  0.00  0.00     0.067 C 
ATOM     45  O2D NTO d 869     -12.435  18.657 -22.443  0.00  0.00    -0.348 OA
ATOM     46  C12 NTO d 869      -4.499  16.177 -25.390  0.00  0.00     0.089 C 
ATOM     47  C49 NTO d 869     -19.375  20.777 -20.550  0.00  0.00     0.134 C 
ATOM     48  C53 NTO d 869     -21.757  18.642 -17.532  0.00  0.00     0.067 C 
ATOM     49  O4D NTO d 869     -20.683  22.827 -22.246  0.00  0.00    -0.572 OA
ATOM     50  O3I NTO d 869     -19.263  17.151 -23.243  0.00  0.00    -0.296 OA
ATOM     51  O10 NTO d 869      -4.479  15.472 -26.633  0.00  0.00    -0.390 OA
ATOM     52  O1A NTO d 869      -6.415  11.435 -22.026  0.00  0.00    -0.572 OA
ATOM     53  O5K NTO d 869     -17.087  19.878 -11.264  0.00  0.00    -0.296 OA
ATOM     54  O16 NTO d 869      -5.692  13.436 -23.106  0.00  0.00    -0.254 OA
ATOM     55  O56 NTO d 869     -20.935  16.309 -19.872  0.00  0.00    -0.572 OA
ATOM     56  C43 NTO d 869     -15.466  19.922 -19.609  0.00  0.00     0.206 C 
ATOM     57  O54 NTO d 869     -21.159  17.358 -17.722  0.00  0.00    -0.254 OA
ATOM     58  S55 NTO d 869     -21.745  16.401 -18.613  0.00  0.00     0.251 S 
ATOM     59  O5A NTO d 869     -17.441  20.608 -16.388  0.00  0.00    -0.391 OA
ATOM     60  O4G NTO d 869     -19.623  20.546 -18.168  0.00  0.00    -0.348 OA
ATOM     61  O3C NTO d 869     -15.354  15.039 -21.962  0.00  0.00    -0.572 OA
ATOM     62  O3M NTO d 869     -16.568  18.992 -21.915  0.00  0.00    -0.348 OA
ATOM     63  O44 NTO d 869     -14.766  20.716 -18.928  0.00  0.00    -0.646 OA
ATOM     64  C23 NTO d 869      -9.555  15.897 -25.111  0.00  0.00     0.206 C 
ATOM     65  C41 NTO d 869     -16.903  20.314 -19.917  0.00  0.00     0.152 C 
ATOM     66  O22 NTO d 869     -10.992  17.342 -23.753  0.00  0.00    -0.340 OA
ATOM     67  O1C NTO d 869      -3.939  18.310 -26.385  0.00  0.00    -0.391 OA
ATOM     68  C15 NTO d 869      -4.864  14.110 -24.056  0.00  0.00     0.067 C 
ATOM     69  N3G NTO d 869     -16.777  16.600 -23.485  0.00  0.00    -0.210 NA
ATOM     70  C40 NTO d 869     -17.110  20.223 -21.422  0.00  0.00     0.103 C 
ATOM     71  S1G NTO d 869      -4.603  20.775 -24.522  0.00  0.00     0.156 S 
ATOM     72  O1L NTO d 869      -7.367  17.379 -24.324  0.00  0.00    -0.348 OA
ATOM     73  O57 NTO d 869     -23.141  16.831 -18.952  0.00  0.00    -0.572 OA
ATOM     74  O34 NTO d 869     -13.086  21.117 -24.808  0.00  0.00    -0.254 OA
ATOM     75  O1H NTO d 869      -3.548  20.440 -25.533  0.00  0.00    -0.296 OA
ATOM     76  O27 NTO d 869      -7.663  19.255 -22.114  0.00  0.00    -0.390 OA
ATOM     77  C50 NTO d 869     -19.578  19.707 -17.005  0.00  0.00     0.095 C 
ATOM     78  O3E NTO d 869     -13.226  15.898 -21.118  0.00  0.00    -0.572 OA
ATOM     79  O25 NTO d 869      -8.824  15.821 -26.127  0.00  0.00    -0.646 OA
ATOM     80  S3H NTO d 869     -18.213  16.770 -24.245  0.00  0.00     0.156 S 
ATOM     81  S35 NTO d 869     -12.173  22.059 -25.386  0.00  0.00     0.251 S 
ATOM     82  O1I NTO d 869      -4.000  20.792 -23.147  0.00  0.00    -0.296 OA
ATOM     83  C13 NTO d 869      -5.462  15.467 -24.436  0.00  0.00     0.090 C 
ATOM     84  O58 NTO d 869     -21.780  15.064 -17.938  0.00  0.00    -0.572 OA
ATOM     85  O3A NTO d 869     -13.897  16.299 -23.391  0.00  0.00    -0.247 OA
ATOM     86  C1B NTO d 869      -4.950  17.617 -25.649  0.00  0.00     0.083 C 
ATOM     87  O4C NTO d 869     -20.589  23.013 -19.801  0.00  0.00    -0.572 OA
ATOM     88  O4E NTO d 869     -22.663  22.312 -20.890  0.00  0.00    -0.572 OA
ATOM     89  O36 NTO d 869     -10.803  21.456 -25.471  0.00  0.00    -0.572 OA
ATOM     90  O2A NTO d 869     -10.258  20.422 -21.866  0.00  0.00    -0.388 OA
ATOM     91  C30 NTO d 869     -13.603  18.709 -23.278  0.00  0.00     0.096 C 
ATOM     92  H   NTO d 869     -15.649  17.696 -24.830  0.00  0.00     0.076 H 
ATOM     93  H   NTO d 869     -20.158  18.551 -13.426  0.00  0.00     0.131 H 
ATOM     94  H   NTO d 869     -19.748  18.963 -19.465  0.00  0.00     0.133 H 
ATOM     95  H   NTO d 869      -6.484  19.858 -23.866  0.00  0.00     0.140 HD
ATOM     96  H   NTO d 869     -17.349  17.390 -12.046  0.00  0.00     0.231 HD
ATOM     97  H   NTO d 869     -17.415  19.193 -23.796  0.00  0.00     0.131 H 
ATOM     98  H   NTO d 869     -10.046  18.422 -21.442  0.00  0.00     0.094 H 
ATOM     99  H   NTO d 869      -8.534  16.862 -22.736  0.00  0.00     0.092 H 
ATOM    100  H   NTO d 869      -4.273  18.431 -23.790  0.00  0.00     0.076 H 
ATOM    101  H   NTO d 869     -19.445  15.575 -25.349  0.00  0.00     0.231 HD
ATOM    102  H   NTO d 869     -14.560  20.069 -21.964  0.00  0.00     0.090 H 
ATOM    103  H   NTO d 869     -18.931  19.252 -21.986  0.00  0.00     0.091 H 
ATOM    104  H   NTO d 869     -21.444  20.382 -16.274  0.00  0.00     0.090 H 
ATOM    105  H   NTO d 869     -18.257  18.698 -14.828  0.00  0.00     0.076 H 
ATOM    106  H   NTO d 869     -19.226  21.394 -15.724  0.00  0.00     0.089 H 
ATOM    107  H   NTO d 869      -9.806  18.009 -25.252  0.00  0.00     0.104 H 
ATOM    108  H   NTO d 869      -8.692  19.655 -23.840  0.00  0.00     0.091 H 
ATOM    109  H   NTO d 869     -18.523  21.994 -22.669  0.00  0.00     0.210 HD
ATOM    110  H   NTO d 869      -5.584  22.109 -25.713  0.00  0.00     0.231 HD
ATOM    111  H   NTO d 869     -22.373  20.834 -12.332  0.00  0.00     0.066 H 
ATOM    112  H   NTO d 869     -21.378  19.452 -11.942  0.00  0.00     0.066 H 
ATOM    113  H   NTO d 869     -22.570  19.339 -13.214  0.00  0.00     0.066 H 
ATOM    114  H   NTO d 869     -18.974  17.921 -25.747  0.00  0.00     0.231 HD
ATOM    115  H   NTO d 869     -15.326  18.581 -12.736  0.00  0.00     0.231 HD
ATOM    116  H   NTO d 869     -14.750  17.482 -21.958  0.00  0.00     0.092 H 
ATOM    117  H   NTO d 869      -6.440  17.981 -22.569  0.00  0.00     0.131 H 
ATOM    118  H   NTO d 869     -11.285  19.341 -24.021  0.00  0.00     0.133 H 
ATOM    119  H   NTO d 869     -18.812  20.803 -12.977  0.00  0.00     0.140 HD
ATOM    120  H   NTO d 869     -12.533  21.153 -22.839  0.00  0.00     0.080 H 
ATOM    121  H   NTO d 869     -13.963  22.097 -23.252  0.00  0.00     0.080 H 
ATOM    122  H   NTO d 869      -3.526  16.195 -24.945  0.00  0.00     0.091 H 
ATOM    123  H   NTO d 869     -19.008  21.753 -20.308  0.00  0.00     0.097 H 
ATOM    124  H   NTO d 869     -21.747  19.176 -18.458  0.00  0.00     0.080 H 
ATOM    125  H   NTO d 869     -22.764  18.509 -17.194  0.00  0.00     0.080 H 
ATOM    126  H   NTO d 869     -20.117  17.253 -23.693  0.00  0.00     0.231 HD
ATOM    127  H   NTO d 869      -5.369  15.469 -27.017  0.00  0.00     0.210 HD
ATOM    128  H   NTO d 869     -16.557  19.268 -10.727  0.00  0.00     0.231 HD
ATOM    129  H   NTO d 869     -17.050  19.740 -16.567  0.00  0.00     0.210 HD
ATOM    130  H   NTO d 869     -17.097  21.312 -19.583  0.00  0.00     0.104 H 
ATOM    131  H   NTO d 869      -4.226  19.222 -26.549  0.00  0.00     0.210 HD
ATOM    132  H   NTO d 869      -4.776  13.507 -24.935  0.00  0.00     0.080 H 
ATOM    133  H   NTO d 869      -3.901  14.272 -23.616  0.00  0.00     0.080 H 
ATOM    134  H   NTO d 869     -16.942  16.571 -22.478  0.00  0.00     0.140 HD
ATOM    135  H   NTO d 869     -16.619  21.058 -21.875  0.00  0.00     0.092 H 
ATOM    136  H   NTO d 869      -3.942  20.430 -26.419  0.00  0.00     0.231 HD
ATOM    137  H   NTO d 869      -7.690  18.628 -21.373  0.00  0.00     0.210 HD
ATOM    138  H   NTO d 869     -19.123  18.772 -17.257  0.00  0.00     0.091 H 
ATOM    139  H   NTO d 869      -4.686  21.010 -22.496  0.00  0.00     0.231 HD
ATOM    140  H   NTO d 869      -6.407  15.359 -24.927  0.00  0.00     0.090 H 
ATOM    141  H   NTO d 869      -5.858  17.606 -26.216  0.00  0.00     0.089 H 
ATOM    142  H   NTO d 869     -10.272  21.007 -22.639  0.00  0.00     0.210 HD
ATOM    143  H   NTO d 869     -13.302  18.656 -24.303  0.00  0.00     0.091 H 
ENDROOT
TORSDOF 46
ENDMDL
MODEL 4
REMARK VINA RESULT:      -8.9      3.454     13.716
REMARK  0 active torsions:
REMARK  status: ('A' for Active; 'I' for Inactive)
REMARK       I    between atoms: O4A_2  and  C49_47 
REMARK       I    between atoms: O4A_2  and  S4B_15 
REMARK       I    between atoms: C3F_4  and  N3G_69 
REMARK       I    between atoms: S17_5  and  O16_54 
REMARK       I    between atoms: C5L_6  and  O5M_26 
REMARK       I    between atoms: C4F_7  and  O4G_60 
REMARK       I    between atoms: N1F_9  and  C1E_19 
REMARK       I    between atoms: N1F_9  and  S1G_71 
REMARK       I    between atoms: O5J_11  and  S5H_38 
REMARK       I    between atoms: C3L_12  and  O3M_62 
REMARK       I    between atoms: C29_13  and  O2A_90 
REMARK       I    between atoms: S3B_14  and  O3A_85 
REMARK       I    between atoms: C20_18  and  O1L_72 
REMARK       I    between atoms: O3J_20  and  S3H_80 
REMARK       I    between atoms: C31_23  and  C33_44 
REMARK       I    between atoms: C46_25  and  O47_33 
REMARK       I    between atoms: O5M_26  and  C5N_35 
REMARK       I    between atoms: C51_28  and  C53_48 
REMARK       I    between atoms: C5F_29  and  N5G_43 
REMARK       I    between atoms: C59_30  and  O5A_59 
REMARK       I    between atoms: C21_31  and  C23_64 
REMARK       I    between atoms: C26_32  and  O27_76 
REMARK       I    between atoms: O1J_34  and  S1G_71 
REMARK       I    between atoms: O3K_36  and  S3H_80 
REMARK       I    between atoms: O5I_37  and  S5H_38 
REMARK       I    between atoms: S5H_38  and  O5K_53 
REMARK       I    between atoms: S5H_38  and  N5G_43 
REMARK       I    between atoms: C39_39  and  O3A_85 
REMARK       I    between atoms: C1K_40  and  O1L_72 
REMARK       I    between atoms: C2C_41  and  O2D_45 
REMARK       I    between atoms: C33_44  and  O34_74 
REMARK       I    between atoms: O2D_45  and  C30_91 
REMARK       I    between atoms: C12_46  and  O10_51 
REMARK       I    between atoms: C53_48  and  O54_57 
REMARK       I    between atoms: O3I_50  and  S3H_80 
REMARK       I    between atoms: O16_54  and  C15_68 
REMARK       I    between atoms: C43_56  and  C41_65 
REMARK       I    between atoms: O54_57  and  S55_58 
REMARK       I    between atoms: O4G_60  and  C50_77 
REMARK       I    between atoms: O3M_62  and  C40_70 
REMARK       I    between atoms: O1C_67  and  C1B_86 
REMARK       I    between atoms: C15_68  and  C13_83 
REMARK       I    between atoms: N3G_69  and  S3H_80 
REMARK       I    between atoms: S1G_71  and  O1H_75 
REMARK       I    between atoms: S1G_71  and  O1I_82 
REMARK       I    between atoms: O34_74  and  S35_81 
ROOT
ATOM      1  O42 NTO d 869     -10.994  19.102 -19.983  0.00  0.00    -0.340 OA
ATOM      2  O4A NTO d 869      -8.427  21.331 -18.586  0.00  0.00    -0.244 OA
ATOM      3  O32 NTO d 869     -13.970  21.005 -16.353  0.00  0.00    -0.349 OA
ATOM      4  C3F NTO d 869     -13.577  18.815 -15.433  0.00  0.00     0.083 C 
ATOM      5  S17 NTO d 869     -23.503  12.107 -16.170  0.00  0.00     0.251 S 
ATOM      6  C5L NTO d 869      -7.791  17.519 -24.254  0.00  0.00     0.149 C 
ATOM      7  C4F NTO d 869      -9.691  19.691 -19.851  0.00  0.00     0.161 C 
ATOM      8  O14 NTO d 869     -23.458  16.127 -16.794  0.00  0.00    -0.349 OA
ATOM      9  N1F NTO d 869     -23.725  19.804 -16.729  0.00  0.00    -0.210 NA
ATOM     10  O37 NTO d 869     -17.681  23.886 -17.199  0.00  0.00    -0.572 OA
ATOM     11  O5J NTO d 869      -9.745  15.517 -25.626  0.00  0.00    -0.296 OA
ATOM     12  C3L NTO d 869     -12.974  19.979 -16.219  0.00  0.00     0.150 C 
ATOM     13  C29 NTO d 869     -19.101  18.959 -18.067  0.00  0.00     0.110 C 
ATOM     14  S3B NTO d 869     -15.088  15.912 -16.209  0.00  0.00     0.252 S 
ATOM     15  S4B NTO d 869      -8.123  22.686 -18.932  0.00  0.00     0.252 S 
ATOM     16  O24 NTO d 869     -19.191  15.849 -14.483  0.00  0.00    -0.646 OA
ATOM     17  O45 NTO d 869     -13.815  18.522 -19.384  0.00  0.00    -0.646 OA
ATOM     18  C20 NTO d 869     -20.692  17.793 -16.550  0.00  0.00     0.103 C 
ATOM     19  C1E NTO d 869     -24.185  18.417 -16.581  0.00  0.00     0.081 C 
ATOM     20  O3J NTO d 869     -10.927  17.414 -13.241  0.00  0.00    -0.296 OA
ATOM     21  O38 NTO d 869     -17.483  23.881 -14.753  0.00  0.00    -0.572 OA
ATOM     22  O18 NTO d 869     -24.112  11.964 -17.533  0.00  0.00    -0.572 OA
ATOM     23  C31 NTO d 869     -15.067  20.553 -17.163  0.00  0.00     0.091 C 
ATOM     24  O52 NTO d 869      -7.209  17.379 -22.947  0.00  0.00    -0.349 OA
ATOM     25  C46 NTO d 869     -10.672  20.806 -17.830  0.00  0.00     0.094 C 
ATOM     26  O5M NTO d 869      -7.104  18.487 -25.058  0.00  0.00    -0.364 OA
ATOM     27  O3D NTO d 869     -15.755  14.805 -15.447  0.00  0.00    -0.572 OA
ATOM     28  C51 NTO d 869      -7.416  18.531 -22.113  0.00  0.00     0.091 C 
ATOM     29  C5F NTO d 869      -9.288  17.824 -24.173  0.00  0.00     0.081 C 
ATOM     30  C59 NTO d 869      -9.544  19.036 -23.276  0.00  0.00     0.083 C 
ATOM     31  C21 NTO d 869     -19.664  17.980 -15.445  0.00  0.00     0.152 C 
ATOM     32  C26 NTO d 869     -20.533  18.956 -17.528  0.00  0.00     0.092 C 
ATOM     33  O47 NTO d 869     -10.684  22.010 -17.058  0.00  0.00    -0.390 OA
ATOM     34  O1J NTO d 869     -24.483  22.130 -17.447  0.00  0.00    -0.296 OA
ATOM     35  C5N NTO d 869      -5.963  17.865 -25.658  0.00  0.00     0.007 C 
ATOM     36  O3K NTO d 869     -11.594  19.700 -13.759  0.00  0.00    -0.296 OA
ATOM     37  O5I NTO d 869     -11.918  16.645 -25.684  0.00  0.00    -0.296 OA
ATOM     38  S5H NTO d 869     -10.487  16.721 -26.125  0.00  0.00     0.156 S 
ATOM     39  C39 NTO d 869     -14.729  18.243 -16.261  0.00  0.00     0.108 C 
ATOM     40  C1K NTO d 869     -23.017  17.488 -16.917  0.00  0.00     0.150 C 
ATOM     41  C2C NTO d 869     -18.092  19.002 -16.917  0.00  0.00     0.160 C 
ATOM     42  O19 NTO d 869     -24.455  11.587 -15.134  0.00  0.00    -0.572 OA
ATOM     43  N5G NTO d 869      -9.815  18.079 -25.521  0.00  0.00    -0.210 NA
ATOM     44  C33 NTO d 869     -16.090  21.684 -17.312  0.00  0.00     0.067 C 
ATOM     45  O2D NTO d 869     -16.767  18.882 -17.462  0.00  0.00    -0.348 OA
ATOM     46  C12 NTO d 869     -24.928  16.692 -14.926  0.00  0.00     0.089 C 
ATOM     47  C49 NTO d 869      -9.740  20.983 -19.030  0.00  0.00     0.134 C 
ATOM     48  C53 NTO d 869      -6.780  18.226 -20.755  0.00  0.00     0.067 C 
ATOM     49  O4D NTO d 869      -8.846  23.616 -18.004  0.00  0.00    -0.572 OA
ATOM     50  O3I NTO d 869     -10.089  18.495 -15.274  0.00  0.00    -0.296 OA
ATOM     51  O10 NTO d 869     -25.112  16.453 -13.529  0.00  0.00    -0.390 OA
ATOM     52  O1A NTO d 869     -22.222  11.331 -16.116  0.00  0.00    -0.572 OA
ATOM     53  O5K NTO d 869     -10.420  16.745 -27.623  0.00  0.00    -0.296 OA
ATOM     54  O16 NTO d 869     -23.223  13.489 -15.917  0.00  0.00    -0.254 OA
ATOM     55  O56 NTO d 869      -7.842  16.749 -17.877  0.00  0.00    -0.572 OA
ATOM     56  C43 NTO d 869     -13.388  19.436 -20.126  0.00  0.00     0.206 C 
ATOM     57  O54 NTO d 869      -7.328  17.026 -20.207  0.00  0.00    -0.254 OA
ATOM     58  S55 NTO d 869      -6.843  16.498 -18.967  0.00  0.00     0.251 S 
ATOM     59  O5A NTO d 869     -10.953  19.202 -23.086  0.00  0.00    -0.391 OA
ATOM     60  O4G NTO d 869      -9.093  19.986 -21.122  0.00  0.00    -0.348 OA
ATOM     61  O3C NTO d 869     -13.610  15.659 -16.243  0.00  0.00    -0.572 OA
ATOM     62  O3M NTO d 869     -12.629  19.469 -17.514  0.00  0.00    -0.348 OA
ATOM     63  O44 NTO d 869     -14.010  19.870 -21.130  0.00  0.00    -0.646 OA
ATOM     64  C23 NTO d 869     -19.886  16.890 -14.407  0.00  0.00     0.206 C 
ATOM     65  C41 NTO d 869     -12.045  20.064 -19.786  0.00  0.00     0.152 C 
ATOM     66  O22 NTO d 869     -18.329  17.938 -15.980  0.00  0.00    -0.340 OA
ATOM     67  O1C NTO d 869     -25.762  18.961 -14.830  0.00  0.00    -0.391 OA
ATOM     68  C15 NTO d 869     -24.233  14.349 -15.386  0.00  0.00     0.067 C 
ATOM     69  N3G NTO d 869     -12.546  17.789 -15.191  0.00  0.00    -0.210 NA
ATOM     70  C40 NTO d 869     -12.084  20.512 -18.331  0.00  0.00     0.103 C 
ATOM     71  S1G NTO d 869     -24.940  20.706 -17.334  0.00  0.00     0.156 S 
ATOM     72  O1L NTO d 869     -21.995  17.769 -15.951  0.00  0.00    -0.348 OA
ATOM     73  O57 NTO d 869      -5.548  17.167 -18.616  0.00  0.00    -0.572 OA
ATOM     74  O34 NTO d 869     -16.652  22.053 -16.049  0.00  0.00    -0.254 OA
ATOM     75  O1H NTO d 869     -26.126  20.620 -16.420  0.00  0.00    -0.296 OA
ATOM     76  O27 NTO d 869     -21.446  18.805 -18.619  0.00  0.00    -0.390 OA
ATOM     77  C50 NTO d 869      -8.899  18.803 -21.911  0.00  0.00     0.095 C 
ATOM     78  O3E NTO d 869     -15.616  15.941 -17.613  0.00  0.00    -0.572 OA
ATOM     79  O25 NTO d 869     -20.768  17.084 -13.537  0.00  0.00    -0.646 OA
ATOM     80  S3H NTO d 869     -11.266  18.363 -14.353  0.00  0.00     0.156 S 
ATOM     81  S35 NTO d 869     -17.699  23.029 -15.968  0.00  0.00     0.251 S 
ATOM     82  O1I NTO d 869     -25.309  20.190 -18.694  0.00  0.00    -0.296 OA
ATOM     83  C13 NTO d 869     -23.782  15.812 -15.430  0.00  0.00     0.090 C 
ATOM     84  O58 NTO d 869      -6.622  15.023 -19.116  0.00  0.00    -0.572 OA
ATOM     85  O3A NTO d 869     -15.351  17.160 -15.559  0.00  0.00    -0.247 OA
ATOM     86  C1B NTO d 869     -24.606  18.175 -15.131  0.00  0.00     0.083 C 
ATOM     87  O4C NTO d 869      -8.547  22.951 -20.347  0.00  0.00    -0.572 OA
ATOM     88  O4E NTO d 869      -6.644  22.893 -18.813  0.00  0.00    -0.572 OA
ATOM     89  O36 NTO d 869     -19.028  22.344 -15.861  0.00  0.00    -0.572 OA
ATOM     90  O2A NTO d 869     -18.916  20.097 -18.911  0.00  0.00    -0.388 OA
ATOM     91  C30 NTO d 869     -15.757  19.341 -16.551  0.00  0.00     0.096 C 
ATOM     92  H   NTO d 869     -13.940  19.145 -14.481  0.00  0.00     0.076 H 
ATOM     93  H   NTO d 869      -7.675  16.574 -24.742  0.00  0.00     0.131 H 
ATOM     94  H   NTO d 869      -9.094  18.961 -19.347  0.00  0.00     0.133 H 
ATOM     95  H   NTO d 869     -22.929  19.833 -17.366  0.00  0.00     0.140 HD
ATOM     96  H   NTO d 869     -10.150  14.713 -25.989  0.00  0.00     0.231 HD
ATOM     97  H   NTO d 869     -12.115  20.387 -15.729  0.00  0.00     0.131 H 
ATOM     98  H   NTO d 869     -18.942  18.061 -18.628  0.00  0.00     0.094 H 
ATOM     99  H   NTO d 869     -20.556  16.875 -17.084  0.00  0.00     0.092 H 
ATOM    100  H   NTO d 869     -25.014  18.231 -17.231  0.00  0.00     0.076 H 
ATOM    101  H   NTO d 869     -10.167  17.756 -12.745  0.00  0.00     0.231 HD
ATOM    102  H   NTO d 869     -14.675  20.271 -18.117  0.00  0.00     0.090 H 
ATOM    103  H   NTO d 869     -10.328  19.995 -17.223  0.00  0.00     0.091 H 
ATOM    104  H   NTO d 869      -6.979  19.392 -22.575  0.00  0.00     0.090 H 
ATOM    105  H   NTO d 869      -9.787  16.978 -23.749  0.00  0.00     0.076 H 
ATOM    106  H   NTO d 869      -9.130  19.907 -23.738  0.00  0.00     0.089 H 
ATOM    107  H   NTO d 869     -19.781  18.939 -14.985  0.00  0.00     0.104 H 
ATOM    108  H   NTO d 869     -20.739  19.877 -17.022  0.00  0.00     0.091 H 
ATOM    109  H   NTO d 869     -10.996  22.745 -17.609  0.00  0.00     0.210 HD
ATOM    110  H   NTO d 869     -24.244  22.464 -16.567  0.00  0.00     0.231 HD
ATOM    111  H   NTO d 869      -5.443  18.580 -26.261  0.00  0.00     0.066 H 
ATOM    112  H   NTO d 869      -6.282  17.047 -26.269  0.00  0.00     0.066 H 
ATOM    113  H   NTO d 869      -5.310  17.503 -24.891  0.00  0.00     0.066 H 
ATOM    114  H   NTO d 869     -10.828  20.031 -13.265  0.00  0.00     0.231 HD
ATOM    115  H   NTO d 869     -12.323  15.838 -26.040  0.00  0.00     0.231 HD
ATOM    116  H   NTO d 869     -14.341  17.874 -17.187  0.00  0.00     0.092 H 
ATOM    117  H   NTO d 869     -22.654  17.635 -17.913  0.00  0.00     0.131 H 
ATOM    118  H   NTO d 869     -18.197  19.929 -16.396  0.00  0.00     0.133 H 
ATOM    119  H   NTO d 869      -9.054  18.379 -26.130  0.00  0.00     0.140 HD
ATOM    120  H   NTO d 869     -16.875  21.359 -17.961  0.00  0.00     0.080 H 
ATOM    121  H   NTO d 869     -15.588  22.538 -17.718  0.00  0.00     0.080 H 
ATOM    122  H   NTO d 869     -25.814  16.452 -15.475  0.00  0.00     0.091 H 
ATOM    123  H   NTO d 869     -10.117  21.772 -19.646  0.00  0.00     0.097 H 
ATOM    124  H   NTO d 869      -6.971  19.038 -20.086  0.00  0.00     0.080 H 
ATOM    125  H   NTO d 869      -5.725  18.098 -20.886  0.00  0.00     0.080 H 
ATOM    126  H   NTO d 869      -9.328  18.836 -14.779  0.00  0.00     0.231 HD
ATOM    127  H   NTO d 869     -24.297  16.678 -13.052  0.00  0.00     0.210 HD
ATOM    128  H   NTO d 869     -10.820  15.935 -27.977  0.00  0.00     0.231 HD
ATOM    129  H   NTO d 869     -11.319  18.408 -22.667  0.00  0.00     0.210 HD
ATOM    130  H   NTO d 869     -11.856  20.904 -20.420  0.00  0.00     0.104 H 
ATOM    131  H   NTO d 869     -25.557  19.900 -14.960  0.00  0.00     0.210 HD
ATOM    132  H   NTO d 869     -24.430  14.074 -14.371  0.00  0.00     0.080 H 
ATOM    133  H   NTO d 869     -25.118  14.246 -15.979  0.00  0.00     0.080 H 
ATOM    134  H   NTO d 869     -12.217  17.439 -16.091  0.00  0.00     0.140 HD
ATOM    135  H   NTO d 869     -12.688  21.392 -18.271  0.00  0.00     0.092 H 
ATOM    136  H   NTO d 869     -25.883  20.954 -15.543  0.00  0.00     0.231 HD
ATOM    137  H   NTO d 869     -21.263  17.971 -19.081  0.00  0.00     0.210 HD
ATOM    138  H   NTO d 869      -9.336  17.965 -21.409  0.00  0.00     0.091 H 
ATOM    139  H   NTO d 869     -24.540  20.248 -19.281  0.00  0.00     0.231 HD
ATOM    140  H   NTO d 869     -22.926  15.980 -14.811  0.00  0.00     0.090 H 
ATOM    141  H   NTO d 869     -23.805  18.457 -14.481  0.00  0.00     0.089 H 
ATOM    142  H   NTO d 869     -19.061  20.907 -18.398  0.00  0.00     0.210 HD
ATOM    143  H   NTO d 869     -16.218  19.606 -15.622  0.00  0.00     0.091 H 
ENDROOT
TORSDOF 46
ENDMDL
MODEL 5
REMARK VINA RESULT:      -8.7      2.137      2.616
REMARK  0 active torsions:
REMARK  status: ('A' for Active; 'I' for Inactive)
REMARK       I    between atoms: O4A_2  and  C49_47 
REMARK       I    between atoms: O4A_2  and  S4B_15 
REMARK       I    between atoms: C3F_4  and  N3G_69 
REMARK       I    between atoms: S17_5  and  O16_54 
REMARK       I    between atoms: C5L_6  and  O5M_26 
REMARK       I    between atoms: C4F_7  and  O4G_60 
REMARK       I    between atoms: N1F_9  and  C1E_19 
REMARK       I    between atoms: N1F_9  and  S1G_71 
REMARK       I    between atoms: O5J_11  and  S5H_38 
REMARK       I    between atoms: C3L_12  and  O3M_62 
REMARK       I    between atoms: C29_13  and  O2A_90 
REMARK       I    between atoms: S3B_14  and  O3A_85 
REMARK       I    between atoms: C20_18  and  O1L_72 
REMARK       I    between atoms: O3J_20  and  S3H_80 
REMARK       I    between atoms: C31_23  and  C33_44 
REMARK       I    between atoms: C46_25  and  O47_33 
REMARK       I    between atoms: O5M_26  and  C5N_35 
REMARK       I    between atoms: C51_28  and  C53_48 
REMARK       I    between atoms: C5F_29  and  N5G_43 
REMARK       I    between atoms: C59_30  and  O5A_59 
REMARK       I    between atoms: C21_31  and  C23_64 
REMARK       I    between atoms: C26_32  and  O27_76 
REMARK       I    between atoms: O1J_34  and  S1G_71 
REMARK       I    between atoms: O3K_36  and  S3H_80 
REMARK       I    between atoms: O5I_37  and  S5H_38 
REMARK       I    between atoms: S5H_38  and  O5K_53 
REMARK       I    between atoms: S5H_38  and  N5G_43 
REMARK       I    between atoms: C39_39  and  O3A_85 
REMARK       I    between atoms: C1K_40  and  O1L_72 
REMARK       I    between atoms: C2C_41  and  O2D_45 
REMARK       I    between atoms: C33_44  and  O34_74 
REMARK       I    between atoms: O2D_45  and  C30_91 
REMARK       I    between atoms: C12_46  and  O10_51 
REMARK       I    between atoms: C53_48  and  O54_57 
REMARK       I    between atoms: O3I_50  and  S3H_80 
REMARK       I    between atoms: O16_54  and  C15_68 
REMARK       I    between atoms: C43_56  and  C41_65 
REMARK       I    between atoms: O54_57  and  S55_58 
REMARK       I    between atoms: O4G_60  and  C50_77 
REMARK       I    between atoms: O3M_62  and  C40_70 
REMARK       I    between atoms: O1C_67  and  C1B_86 
REMARK       I    between atoms: C15_68  and  C13_83 
REMARK       I    between atoms: N3G_69  and  S3H_80 
REMARK       I    between atoms: S1G_71  and  O1H_75 
REMARK       I    between atoms: S1G_71  and  O1I_82 
REMARK       I    between atoms: O34_74  and  S35_81 
ROOT
ATOM      1  O42 NTO d 869     -19.818  17.952 -16.619  0.00  0.00    -0.340 OA
ATOM      2  O4A NTO d 869     -22.331  20.343 -17.833  0.00  0.00    -0.244 OA
ATOM      3  O32 NTO d 869     -16.463  21.106 -18.729  0.00  0.00    -0.349 OA
ATOM      4  C3F NTO d 869     -16.373  19.307 -20.327  0.00  0.00     0.083 C 
ATOM      5  S17 NTO d 869      -5.987  13.363 -19.377  0.00  0.00     0.251 S 
ATOM      6  C5L NTO d 869     -23.563  14.881 -13.870  0.00  0.00     0.149 C 
ATOM      7  C4F NTO d 869     -21.135  18.468 -16.863  0.00  0.00     0.161 C 
ATOM      8  O14 NTO d 869      -6.688  16.959 -17.607  0.00  0.00    -0.349 OA
ATOM      9  N1F NTO d 869      -6.902  20.471 -16.505  0.00  0.00    -0.210 NA
ATOM     10  O37 NTO d 869     -13.408  23.792 -16.233  0.00  0.00    -0.572 OA
ATOM     11  O5J NTO d 869     -21.670  12.673 -12.751  0.00  0.00    -0.296 OA
ATOM     12  C3L NTO d 869     -17.267  20.115 -19.389  0.00  0.00     0.150 C 
ATOM     13  C29 NTO d 869     -11.546  18.948 -16.578  0.00  0.00     0.110 C 
ATOM     14  S3B NTO d 869     -14.673  16.410 -20.131  0.00  0.00     0.252 S 
ATOM     15  S4B NTO d 869     -22.874  21.493 -17.177  0.00  0.00     0.252 S 
ATOM     16  O24 NTO d 869     -10.338  17.167 -20.808  0.00  0.00    -0.646 OA
ATOM     17  O45 NTO d 869     -16.883  17.776 -16.700  0.00  0.00    -0.646 OA
ATOM     18  C20 NTO d 869      -9.547  18.435 -17.967  0.00  0.00     0.103 C 
ATOM     19  C1E NTO d 869      -6.243  19.238 -16.952  0.00  0.00     0.081 C 
ATOM     20  O3J NTO d 869     -18.328  18.517 -23.383  0.00  0.00    -0.296 OA
ATOM     21  O38 NTO d 869     -13.116  24.561 -18.545  0.00  0.00    -0.572 OA
ATOM     22  O18 NTO d 869      -5.647  12.830 -18.018  0.00  0.00    -0.572 OA
ATOM     23  C31 NTO d 869     -15.497  20.489 -17.863  0.00  0.00     0.091 C 
ATOM     24  O52 NTO d 869     -23.851  15.131 -15.256  0.00  0.00    -0.349 OA
ATOM     25  C46 NTO d 869     -19.932  20.233 -18.177  0.00  0.00     0.094 C 
ATOM     26  O5M NTO d 869     -24.517  15.494 -12.993  0.00  0.00    -0.364 OA
ATOM     27  O3D NTO d 869     -13.728  15.652 -21.015  0.00  0.00    -0.572 OA
ATOM     28  C51 NTO d 869     -23.638  16.501 -15.636  0.00  0.00     0.091 C 
ATOM     29  C5F NTO d 869     -22.133  15.291 -13.511  0.00  0.00     0.081 C 
ATOM     30  C59 NTO d 869     -21.867  16.740 -13.921  0.00  0.00     0.083 C 
ATOM     31  C21 NTO d 869     -10.352  18.901 -19.171  0.00  0.00     0.152 C 
ATOM     32  C26 NTO d 869     -10.048  19.211 -16.750  0.00  0.00     0.092 C 
ATOM     33  O47 NTO d 869     -19.927  21.620 -18.529  0.00  0.00    -0.390 OA
ATOM     34  O1J NTO d 869      -6.617  22.488 -14.971  0.00  0.00    -0.296 OA
ATOM     35  C5N NTO d 869     -25.661  14.641 -12.885  0.00  0.00     0.007 C 
ATOM     36  O3K NTO d 869     -18.085  20.554 -22.067  0.00  0.00    -0.296 OA
ATOM     37  O5I NTO d 869     -19.720  13.859 -11.862  0.00  0.00    -0.296 OA
ATOM     38  S5H NTO d 869     -21.207  13.698 -11.759  0.00  0.00     0.156 S 
ATOM     39  C39 NTO d 869     -15.341  18.574 -19.468  0.00  0.00     0.108 C 
ATOM     40  C1K NTO d 869      -7.320  18.178 -17.186  0.00  0.00     0.150 C 
ATOM     41  C2C NTO d 869     -12.305  19.294 -17.862  0.00  0.00     0.160 C 
ATOM     42  O19 NTO d 869      -4.789  13.266 -20.274  0.00  0.00    -0.572 OA
ATOM     43  N5G NTO d 869     -21.921  15.133 -12.065  0.00  0.00    -0.210 NA
ATOM     44  C33 NTO d 869     -14.683  21.574 -17.152  0.00  0.00     0.067 C 
ATOM     45  O2D NTO d 869     -13.683  18.921 -17.696  0.00  0.00    -0.348 OA
ATOM     46  C12 NTO d 869      -4.966  18.187 -18.831  0.00  0.00     0.089 C 
ATOM     47  C49 NTO d 869     -21.097  19.956 -17.226  0.00  0.00     0.134 C 
ATOM     48  C53 NTO d 869     -23.947  16.608 -17.131  0.00  0.00     0.067 C 
ATOM     49  O4D NTO d 869     -22.112  22.716 -17.593  0.00  0.00    -0.572 OA
ATOM     50  O3I NTO d 869     -19.687  18.832 -21.369  0.00  0.00    -0.296 OA
ATOM     51  O10 NTO d 869      -4.479  18.421 -20.154  0.00  0.00    -0.390 OA
ATOM     52  O1A NTO d 869      -7.118  12.566 -19.952  0.00  0.00    -0.572 OA
ATOM     53  O5K NTO d 869     -21.572  13.235 -10.379  0.00  0.00    -0.296 OA
ATOM     54  O16 NTO d 869      -6.392  14.733 -19.262  0.00  0.00    -0.254 OA
ATOM     55  O56 NTO d 869     -22.152  16.204 -19.996  0.00  0.00    -0.572 OA
ATOM     56  C43 NTO d 869     -17.565  18.375 -15.838  0.00  0.00     0.206 C 
ATOM     57  O54 NTO d 869     -23.148  15.684 -17.872  0.00  0.00    -0.254 OA
ATOM     58  S55 NTO d 869     -23.303  15.553 -19.290  0.00  0.00     0.251 S 
ATOM     59  O5A NTO d 869     -20.484  17.048 -13.724  0.00  0.00    -0.391 OA
ATOM     60  O4G NTO d 869     -22.006  18.301 -15.735  0.00  0.00    -0.348 OA
ATOM     61  O3C NTO d 869     -16.082  16.066 -20.513  0.00  0.00    -0.572 OA
ATOM     62  O3M NTO d 869     -17.791  19.196 -18.421  0.00  0.00    -0.348 OA
ATOM     63  O44 NTO d 869     -17.217  18.502 -14.635  0.00  0.00    -0.646 OA
ATOM     64  C23 NTO d 869      -9.786  18.219 -20.408  0.00  0.00     0.206 C 
ATOM     65  C41 NTO d 869     -18.885  18.992 -16.273  0.00  0.00     0.152 C 
ATOM     66  O22 NTO d 869     -11.749  18.605 -18.994  0.00  0.00    -0.340 OA
ATOM     67  O1C NTO d 869      -4.438  20.414 -18.050  0.00  0.00    -0.391 OA
ATOM     68  C15 NTO d 869      -5.421  15.780 -19.265  0.00  0.00     0.067 C 
ATOM     69  N3G NTO d 869     -17.189  18.349 -21.095  0.00  0.00    -0.210 NA
ATOM     70  C40 NTO d 869     -18.620  19.884 -17.477  0.00  0.00     0.103 C 
ATOM     71  S1G NTO d 869      -5.962  21.207 -15.397  0.00  0.00     0.156 S 
ATOM     72  O1L NTO d 869      -8.160  18.688 -18.231  0.00  0.00    -0.348 OA
ATOM     73  O57 NTO d 869     -24.581  16.216 -19.711  0.00  0.00    -0.572 OA
ATOM     74  O34 NTO d 869     -13.936  22.364 -18.083  0.00  0.00    -0.254 OA
ATOM     75  O1H NTO d 869      -4.618  21.494 -15.997  0.00  0.00    -0.296 OA
ATOM     76  O27 NTO d 869      -9.357  18.776 -15.576  0.00  0.00    -0.390 OA
ATOM     77  C50 NTO d 869     -22.194  16.918 -15.403  0.00  0.00     0.095 C 
ATOM     78  O3E NTO d 869     -14.441  16.021 -18.700  0.00  0.00    -0.572 OA
ATOM     79  O25 NTO d 869      -8.784  18.737 -20.953  0.00  0.00    -0.646 OA
ATOM     80  S3H NTO d 869     -18.343  19.078 -21.992  0.00  0.00     0.156 S 
ATOM     81  S35 NTO d 869     -13.033  23.380 -17.626  0.00  0.00     0.251 S 
ATOM     82  O1I NTO d 869      -5.803  20.306 -14.207  0.00  0.00    -0.296 OA
ATOM     83  C13 NTO d 869      -6.061  17.120 -18.890  0.00  0.00     0.090 C 
ATOM     84  O58 NTO d 869     -23.352  14.097 -19.644  0.00  0.00    -0.572 OA
ATOM     85  O3A NTO d 869     -14.455  17.815 -20.299  0.00  0.00    -0.247 OA
ATOM     86  C1B NTO d 869      -5.515  19.501 -18.270  0.00  0.00     0.083 C 
ATOM     87  O4C NTO d 869     -22.776  21.317 -15.690  0.00  0.00    -0.572 OA
ATOM     88  O4E NTO d 869     -24.314  21.633 -17.564  0.00  0.00    -0.572 OA
ATOM     89  O36 NTO d 869     -11.630  22.851 -17.625  0.00  0.00    -0.572 OA
ATOM     90  O2A NTO d 869     -12.044  19.741 -15.499  0.00  0.00    -0.388 OA
ATOM     91  C30 NTO d 869     -14.546  19.584 -18.635  0.00  0.00     0.096 C 
ATOM     92  H   NTO d 869     -15.876  19.947 -21.027  0.00  0.00     0.076 H 
ATOM     93  H   NTO d 869     -23.646  13.825 -13.727  0.00  0.00     0.131 H 
ATOM     94  H   NTO d 869     -21.519  17.902 -17.686  0.00  0.00     0.133 H 
ATOM     95  H   NTO d 869      -7.805  20.244 -16.089  0.00  0.00     0.140 HD
ATOM     96  H   NTO d 869     -21.241  11.823 -12.562  0.00  0.00     0.231 HD
ATOM     97  H   NTO d 869     -18.060  20.604 -19.918  0.00  0.00     0.131 H 
ATOM     98  H   NTO d 869     -11.692  17.910 -16.364  0.00  0.00     0.094 H 
ATOM     99  H   NTO d 869      -9.662  17.388 -17.779  0.00  0.00     0.092 H 
ATOM    100  H   NTO d 869      -5.541  18.906 -16.215  0.00  0.00     0.076 H 
ATOM    101  H   NTO d 869     -19.013  18.951 -23.915  0.00  0.00     0.231 HD
ATOM    102  H   NTO d 869     -16.029  19.891 -17.153  0.00  0.00     0.090 H 
ATOM    103  H   NTO d 869     -20.038  19.640 -19.061  0.00  0.00     0.091 H 
ATOM    104  H   NTO d 869     -24.267  17.138 -15.051  0.00  0.00     0.090 H 
ATOM    105  H   NTO d 869     -21.453  14.659 -14.042  0.00  0.00     0.076 H 
ATOM    106  H   NTO d 869     -22.477  17.389 -13.327  0.00  0.00     0.089 H 
ATOM    107  H   NTO d 869     -10.275  19.963 -19.283  0.00  0.00     0.104 H 
ATOM    108  H   NTO d 869      -9.871  20.256 -16.896  0.00  0.00     0.091 H 
ATOM    109  H   NTO d 869     -19.830  22.156 -17.727  0.00  0.00     0.210 HD
ATOM    110  H   NTO d 869      -6.719  23.070 -15.740  0.00  0.00     0.231 HD
ATOM    111  H   NTO d 869     -26.380  15.090 -12.232  0.00  0.00     0.066 H 
ATOM    112  H   NTO d 869     -25.364  13.692 -12.491  0.00  0.00     0.066 H 
ATOM    113  H   NTO d 869     -26.096  14.504 -13.854  0.00  0.00     0.066 H 
ATOM    114  H   NTO d 869     -18.776  20.976 -22.602  0.00  0.00     0.231 HD
ATOM    115  H   NTO d 869     -19.290  13.008 -11.680  0.00  0.00     0.231 HD
ATOM    116  H   NTO d 869     -15.851  17.903 -18.809  0.00  0.00     0.092 H 
ATOM    117  H   NTO d 869      -7.889  17.974 -16.303  0.00  0.00     0.131 H 
ATOM    118  H   NTO d 869     -12.222  20.345 -18.043  0.00  0.00     0.133 H 
ATOM    119  H   NTO d 869     -22.820  15.172 -11.585  0.00  0.00     0.140 HD
ATOM    120  H   NTO d 869     -14.005  21.109 -16.469  0.00  0.00     0.080 H 
ATOM    121  H   NTO d 869     -15.364  22.219 -16.636  0.00  0.00     0.080 H 
ATOM    122  H   NTO d 869      -4.182  17.839 -18.192  0.00  0.00     0.091 H 
ATOM    123  H   NTO d 869     -20.957  20.528 -16.332  0.00  0.00     0.097 H 
ATOM    124  H   NTO d 869     -23.737  17.602 -17.464  0.00  0.00     0.080 H 
ATOM    125  H   NTO d 869     -24.980  16.378 -17.290  0.00  0.00     0.080 H 
ATOM    126  H   NTO d 869     -20.373  19.265 -21.900  0.00  0.00     0.231 HD
ATOM    127  H   NTO d 869      -5.206  18.734 -20.715  0.00  0.00     0.210 HD
ATOM    128  H   NTO d 869     -21.145  12.382 -10.201  0.00  0.00     0.231 HD
ATOM    129  H   NTO d 869     -19.940  16.456 -14.266  0.00  0.00     0.210 HD
ATOM    130  H   NTO d 869     -19.306  19.570 -15.477  0.00  0.00     0.104 H 
ATOM    131  H   NTO d 869      -4.786  21.247 -17.695  0.00  0.00     0.210 HD
ATOM    132  H   NTO d 869      -4.993  15.859 -20.243  0.00  0.00     0.080 H 
ATOM    133  H   NTO d 869      -4.665  15.548 -18.544  0.00  0.00     0.080 H 
ATOM    134  H   NTO d 869     -17.641  17.708 -20.442  0.00  0.00     0.140 HD
ATOM    135  H   NTO d 869     -18.138  20.774 -17.131  0.00  0.00     0.092 H 
ATOM    136  H   NTO d 869      -4.725  22.077 -16.765  0.00  0.00     0.231 HD
ATOM    137  H   NTO d 869      -9.515  17.828 -15.439  0.00  0.00     0.210 HD
ATOM    138  H   NTO d 869     -21.559  16.314 -16.017  0.00  0.00     0.091 H 
ATOM    139  H   NTO d 869      -6.674  20.124 -13.822  0.00  0.00     0.231 HD
ATOM    140  H   NTO d 869      -6.793  17.423 -19.609  0.00  0.00     0.090 H 
ATOM    141  H   NTO d 869      -6.203  19.925 -18.972  0.00  0.00     0.089 H 
ATOM    142  H   NTO d 869     -11.908  20.681 -15.698  0.00  0.00     0.210 HD
ATOM    143  H   NTO d 869     -13.949  20.161 -19.310  0.00  0.00     0.091 H 
ENDROOT
TORSDOF 46
ENDMDL
MODEL 6
REMARK VINA RESULT:      -8.7      3.285     14.216
REMARK  0 active torsions:
REMARK  status: ('A' for Active; 'I' for Inactive)
REMARK       I    between atoms: O4A_2  and  C49_47 
REMARK       I    between atoms: O4A_2  and  S4B_15 
REMARK       I    between atoms: C3F_4  and  N3G_69 
REMARK       I    between atoms: S17_5  and  O16_54 
REMARK       I    between atoms: C5L_6  and  O5M_26 
REMARK       I    between atoms: C4F_7  and  O4G_60 
REMARK       I    between atoms: N1F_9  and  C1E_19 
REMARK       I    between atoms: N1F_9  and  S1G_71 
REMARK       I    between atoms: O5J_11  and  S5H_38 
REMARK       I    between atoms: C3L_12  and  O3M_62 
REMARK       I    between atoms: C29_13  and  O2A_90 
REMARK       I    between atoms: S3B_14  and  O3A_85 
REMARK       I    between atoms: C20_18  and  O1L_72 
REMARK       I    between atoms: O3J_20  and  S3H_80 
REMARK       I    between atoms: C31_23  and  C33_44 
REMARK       I    between atoms: C46_25  and  O47_33 
REMARK       I    between atoms: O5M_26  and  C5N_35 
REMARK       I    between atoms: C51_28  and  C53_48 
REMARK       I    between atoms: C5F_29  and  N5G_43 
REMARK       I    between atoms: C59_30  and  O5A_59 
REMARK       I    between atoms: C21_31  and  C23_64 
REMARK       I    between atoms: C26_32  and  O27_76 
REMARK       I    between atoms: O1J_34  and  S1G_71 
REMARK       I    between atoms: O3K_36  and  S3H_80 
REMARK       I    between atoms: O5I_37  and  S5H_38 
REMARK       I    between atoms: S5H_38  and  O5K_53 
REMARK       I    between atoms: S5H_38  and  N5G_43 
REMARK       I    between atoms: C39_39  and  O3A_85 
REMARK       I    between atoms: C1K_40  and  O1L_72 
REMARK       I    between atoms: C2C_41  and  O2D_45 
REMARK       I    between atoms: C33_44  and  O34_74 
REMARK       I    between atoms: O2D_45  and  C30_91 
REMARK       I    between atoms: C12_46  and  O10_51 
REMARK       I    between atoms: C53_48  and  O54_57 
REMARK       I    between atoms: O3I_50  and  S3H_80 
REMARK       I    between atoms: O16_54  and  C15_68 
REMARK       I    between atoms: C43_56  and  C41_65 
REMARK       I    between atoms: O54_57  and  S55_58 
REMARK       I    between atoms: O4G_60  and  C50_77 
REMARK       I    between atoms: O3M_62  and  C40_70 
REMARK       I    between atoms: O1C_67  and  C1B_86 
REMARK       I    between atoms: C15_68  and  C13_83 
REMARK       I    between atoms: N3G_69  and  S3H_80 
REMARK       I    between atoms: S1G_71  and  O1H_75 
REMARK       I    between atoms: S1G_71  and  O1I_82 
REMARK       I    between atoms: O34_74  and  S35_81 
ROOT
ATOM      1  O42 NTO d 869      -9.002  18.056 -22.662  0.00  0.00    -0.340 OA
ATOM      2  O4A NTO d 869      -6.984  20.782 -24.081  0.00  0.00    -0.244 OA
ATOM      3  O32 NTO d 869     -12.969  20.862 -24.092  0.00  0.00    -0.349 OA
ATOM      4  C3F NTO d 869     -13.067  21.223 -21.713  0.00  0.00     0.083 C 
ATOM      5  S17 NTO d 869     -22.438  15.414 -16.967  0.00  0.00     0.251 S 
ATOM      6  C5L NTO d 869      -4.572  14.835 -21.656  0.00  0.00     0.149 C 
ATOM      7  C4F NTO d 869      -7.802  18.770 -22.997  0.00  0.00     0.161 C 
ATOM      8  O14 NTO d 869     -21.930  15.969 -20.966  0.00  0.00    -0.349 OA
ATOM      9  N1F NTO d 869     -21.982  16.946 -24.521  0.00  0.00    -0.210 NA
ATOM     10  O37 NTO d 869     -15.943  19.653 -27.624  0.00  0.00    -0.572 OA
ATOM     11  O5J NTO d 869      -6.015  12.398 -20.356  0.00  0.00    -0.296 OA
ATOM     12  C3L NTO d 869     -12.153  21.033 -22.922  0.00  0.00     0.150 C 
ATOM     13  C29 NTO d 869     -17.246  17.046 -23.316  0.00  0.00     0.110 C 
ATOM     14  S3B NTO d 869     -14.367  19.224 -19.340  0.00  0.00     0.252 S 
ATOM     15  S4B NTO d 869      -6.496  20.942 -25.416  0.00  0.00     0.252 S 
ATOM     16  O24 NTO d 869     -18.812  19.398 -19.503  0.00  0.00    -0.646 OA
ATOM     17  O45 NTO d 869     -11.878  17.498 -22.397  0.00  0.00    -0.646 OA
ATOM     18  C20 NTO d 869     -19.345  17.566 -22.084  0.00  0.00     0.103 C 
ATOM     19  C1E NTO d 869     -22.546  16.547 -23.225  0.00  0.00     0.081 C 
ATOM     20  O3J NTO d 869     -11.478  23.698 -19.447  0.00  0.00    -0.296 OA
ATOM     21  O38 NTO d 869     -16.644  21.924 -27.014  0.00  0.00    -0.572 OA
ATOM     22  O18 NTO d 869     -22.520  13.943 -17.244  0.00  0.00    -0.572 OA
ATOM     23  C31 NTO d 869     -13.724  19.642 -24.016  0.00  0.00     0.091 C 
ATOM     24  O52 NTO d 869      -4.512  16.169 -21.125  0.00  0.00    -0.349 OA
ATOM     25  C46 NTO d 869      -9.378  20.573 -23.742  0.00  0.00     0.094 C 
ATOM     26  O5M NTO d 869      -3.585  14.603 -22.669  0.00  0.00    -0.364 OA
ATOM     27  O3D NTO d 869     -15.329  19.386 -18.201  0.00  0.00    -0.572 OA
ATOM     28  C51 NTO d 869      -4.937  17.169 -22.067  0.00  0.00     0.091 C 
ATOM     29  C5F NTO d 869      -5.976  14.493 -22.159  0.00  0.00     0.081 C 
ATOM     30  C59 NTO d 869      -6.467  15.550 -23.151  0.00  0.00     0.083 C 
ATOM     31  C21 NTO d 869     -18.776  18.957 -21.846  0.00  0.00     0.152 C 
ATOM     32  C26 NTO d 869     -18.774  17.056 -23.406  0.00  0.00     0.092 C 
ATOM     33  O47 NTO d 869      -9.597  21.596 -24.718  0.00  0.00    -0.390 OA
ATOM     34  O1J NTO d 869     -22.288  16.684 -27.038  0.00  0.00    -0.296 OA
ATOM     35  C5N NTO d 869      -2.343  14.272 -22.039  0.00  0.00     0.007 C 
ATOM     36  O3K NTO d 869     -11.774  23.636 -21.865  0.00  0.00    -0.296 OA
ATOM     37  O5I NTO d 869      -7.948  11.931 -21.785  0.00  0.00    -0.296 OA
ATOM     38  S5H NTO d 869      -6.453  12.031 -21.742  0.00  0.00     0.156 S 
ATOM     39  C39 NTO d 869     -13.874  19.936 -21.535  0.00  0.00     0.108 C 
ATOM     40  C1K NTO d 869     -21.394  16.377 -22.234  0.00  0.00     0.150 C 
ATOM     41  C2C NTO d 869     -16.720  18.432 -22.932  0.00  0.00     0.160 C 
ATOM     42  O19 NTO d 869     -23.730  15.890 -16.371  0.00  0.00    -0.572 OA
ATOM     43  N5G NTO d 869      -5.964  13.171 -22.802  0.00  0.00    -0.210 NA
ATOM     44  C33 NTO d 869     -14.554  19.477 -25.293  0.00  0.00     0.067 C 
ATOM     45  O2D NTO d 869     -15.298  18.348 -22.742  0.00  0.00    -0.348 OA
ATOM     46  C12 NTO d 869     -23.939  17.320 -21.294  0.00  0.00     0.089 C 
ATOM     47  C49 NTO d 869      -8.067  19.849 -24.052  0.00  0.00     0.134 C 
ATOM     48  C53 NTO d 869      -4.854  18.522 -21.357  0.00  0.00     0.067 C 
ATOM     49  O4D NTO d 869      -7.448  21.794 -26.201  0.00  0.00    -0.572 OA
ATOM     50  O3I NTO d 869      -9.898  22.439 -20.834  0.00  0.00    -0.296 OA
ATOM     51  O10 NTO d 869     -24.630  18.454 -20.764  0.00  0.00    -0.390 OA
ATOM     52  O1A NTO d 869     -21.313  15.677 -16.014  0.00  0.00    -0.572 OA
ATOM     53  O5K NTO d 869      -5.847  10.708 -22.107  0.00  0.00    -0.296 OA
ATOM     54  O16 NTO d 869     -22.187  16.115 -18.191  0.00  0.00    -0.254 OA
ATOM     55  O56 NTO d 869      -6.971  20.361 -19.426  0.00  0.00    -0.572 OA
ATOM     56  C43 NTO d 869     -11.158  17.222 -23.383  0.00  0.00     0.206 C 
ATOM     57  O54 NTO d 869      -5.634  18.505 -20.160  0.00  0.00    -0.254 OA
ATOM     58  S55 NTO d 869      -5.663  19.641 -19.288  0.00  0.00     0.251 S 
ATOM     59  O5A NTO d 869      -7.836  15.297 -23.482  0.00  0.00    -0.391 OA
ATOM     60  O4G NTO d 869      -6.769  17.904 -23.488  0.00  0.00    -0.348 OA
ATOM     61  O3C NTO d 869     -12.994  19.615 -18.879  0.00  0.00    -0.572 OA
ATOM     62  O3M NTO d 869     -11.394  19.840 -22.685  0.00  0.00    -0.348 OA
ATOM     63  O44 NTO d 869     -11.347  16.228 -24.131  0.00  0.00    -0.646 OA
ATOM     64  C23 NTO d 869     -19.424  19.521 -20.590  0.00  0.00     0.206 C 
ATOM     65  C41 NTO d 869      -9.994  18.148 -23.700  0.00  0.00     0.152 C 
ATOM     66  O22 NTO d 869     -17.343  18.907 -21.728  0.00  0.00    -0.340 OA
ATOM     67  O1C NTO d 869     -24.614  17.751 -23.577  0.00  0.00    -0.391 OA
ATOM     68  C15 NTO d 869     -23.267  16.494 -19.047  0.00  0.00     0.067 C 
ATOM     69  N3G NTO d 869     -12.258  21.503 -20.513  0.00  0.00    -0.210 NA
ATOM     70  C40 NTO d 869     -10.528  19.570 -23.794  0.00  0.00     0.103 C 
ATOM     71  S1G NTO d 869     -22.839  16.243 -25.715  0.00  0.00     0.156 S 
ATOM     72  O1L NTO d 869     -20.775  17.666 -22.120  0.00  0.00    -0.348 OA
ATOM     73  O57 NTO d 869      -4.545  20.572 -19.650  0.00  0.00    -0.572 OA
ATOM     74  O34 NTO d 869     -15.512  20.531 -25.437  0.00  0.00    -0.254 OA
ATOM     75  O1H NTO d 869     -24.278  16.649 -25.599  0.00  0.00    -0.296 OA
ATOM     76  O27 NTO d 869     -19.238  15.726 -23.657  0.00  0.00    -0.390 OA
ATOM     77  C50 NTO d 869      -6.373  16.932 -22.508  0.00  0.00     0.095 C 
ATOM     78  O3E NTO d 869     -14.349  17.789 -19.779  0.00  0.00    -0.572 OA
ATOM     79  O25 NTO d 869     -20.547  20.065 -20.707  0.00  0.00    -0.646 OA
ATOM     80  S3H NTO d 869     -11.335  22.842 -20.671  0.00  0.00     0.156 S 
ATOM     81  S35 NTO d 869     -16.456  20.523 -26.515  0.00  0.00     0.251 S 
ATOM     82  O1I NTO d 869     -22.723  14.752 -25.596  0.00  0.00    -0.296 OA
ATOM     83  C13 NTO d 869     -22.743  17.005 -20.392  0.00  0.00     0.090 C 
ATOM     84  O58 NTO d 869      -5.492  19.175 -17.874  0.00  0.00    -0.572 OA
ATOM     85  O3A NTO d 869     -14.771  20.065 -20.426  0.00  0.00    -0.247 OA
ATOM     86  C1B NTO d 869     -23.477  17.648 -22.717  0.00  0.00     0.083 C 
ATOM     87  O4C NTO d 869      -6.363  19.597 -26.068  0.00  0.00    -0.572 OA
ATOM     88  O4E NTO d 869      -5.150  21.598 -25.360  0.00  0.00    -0.572 OA
ATOM     89  O36 NTO d 869     -17.773  19.989 -26.036  0.00  0.00    -0.572 OA
ATOM     90  O2A NTO d 869     -16.701  16.659 -24.578  0.00  0.00    -0.388 OA
ATOM     91  C30 NTO d 869     -14.660  19.633 -22.815  0.00  0.00     0.096 C 
ATOM     92  H   NTO d 869     -13.729  22.051 -21.861  0.00  0.00     0.076 H 
ATOM     93  H   NTO d 869      -4.345  14.174 -20.847  0.00  0.00     0.131 H 
ATOM     94  H   NTO d 869      -7.472  19.224 -22.086  0.00  0.00     0.133 H 
ATOM     95  H   NTO d 869     -21.009  16.645 -24.576  0.00  0.00     0.140 HD
ATOM     96  H   NTO d 869      -6.309  11.715 -19.732  0.00  0.00     0.231 HD
ATOM     97  H   NTO d 869     -11.505  21.873 -23.067  0.00  0.00     0.131 H 
ATOM     98  H   NTO d 869     -16.950  16.348 -22.562  0.00  0.00     0.094 H 
ATOM     99  H   NTO d 869     -19.080  16.878 -21.308  0.00  0.00     0.092 H 
ATOM    100  H   NTO d 869     -23.094  15.633 -23.327  0.00  0.00     0.076 H 
ATOM    101  H   NTO d 869     -10.930  24.493 -19.542  0.00  0.00     0.231 HD
ATOM    102  H   NTO d 869     -13.031  18.834 -23.910  0.00  0.00     0.090 H 
ATOM    103  H   NTO d 869      -9.326  21.013 -22.769  0.00  0.00     0.091 H 
ATOM    104  H   NTO d 869      -4.312  17.133 -22.935  0.00  0.00     0.090 H 
ATOM    105  H   NTO d 869      -6.644  14.478 -21.324  0.00  0.00     0.076 H 
ATOM    106  H   NTO d 869      -5.862  15.510 -24.032  0.00  0.00     0.089 H 
ATOM    107  H   NTO d 869     -18.994  19.595 -22.677  0.00  0.00     0.104 H 
ATOM    108  H   NTO d 869     -19.093  17.696 -24.202  0.00  0.00     0.091 H 
ATOM    109  H   NTO d 869      -9.644  21.195 -25.601  0.00  0.00     0.210 HD
ATOM    110  H   NTO d 869     -22.364  17.648 -27.115  0.00  0.00     0.231 HD
ATOM    111  H   NTO d 869      -1.599  14.096 -22.787  0.00  0.00     0.066 H 
ATOM    112  H   NTO d 869      -2.468  13.390 -21.446  0.00  0.00     0.066 H 
ATOM    113  H   NTO d 869      -2.035  15.082 -21.411  0.00  0.00     0.066 H 
ATOM    114  H   NTO d 869     -11.220  24.428 -21.949  0.00  0.00     0.231 HD
ATOM    115  H   NTO d 869      -8.245  11.254 -21.157  0.00  0.00     0.231 HD
ATOM    116  H   NTO d 869     -13.201  19.127 -21.339  0.00  0.00     0.092 H 
ATOM    117  H   NTO d 869     -20.687  15.640 -22.554  0.00  0.00     0.131 H 
ATOM    118  H   NTO d 869     -16.951  19.121 -23.716  0.00  0.00     0.133 H 
ATOM    119  H   NTO d 869      -5.018  12.957 -23.116  0.00  0.00     0.140 HD
ATOM    120  H   NTO d 869     -15.070  18.541 -25.254  0.00  0.00     0.080 H 
ATOM    121  H   NTO d 869     -13.889  19.512 -26.132  0.00  0.00     0.080 H 
ATOM    122  H   NTO d 869     -24.579  16.464 -21.328  0.00  0.00     0.091 H 
ATOM    123  H   NTO d 869      -8.148  19.384 -25.012  0.00  0.00     0.097 H 
ATOM    124  H   NTO d 869      -5.226  19.285 -22.009  0.00  0.00     0.080 H 
ATOM    125  H   NTO d 869      -3.833  18.720 -21.104  0.00  0.00     0.080 H 
ATOM    126  H   NTO d 869      -9.349  23.233 -20.928  0.00  0.00     0.231 HD
ATOM    127  H   NTO d 869     -24.031  19.216 -20.744  0.00  0.00     0.210 HD
ATOM    128  H   NTO d 869      -6.140  10.033 -21.475  0.00  0.00     0.231 HD
ATOM    129  H   NTO d 869      -8.375  15.336 -22.677  0.00  0.00     0.210 HD
ATOM    130  H   NTO d 869      -9.538  17.869 -24.627  0.00  0.00     0.104 H 
ATOM    131  H   NTO d 869     -24.320  17.959 -24.478  0.00  0.00     0.210 HD
ATOM    132  H   NTO d 869     -23.833  17.269 -18.574  0.00  0.00     0.080 H 
ATOM    133  H   NTO d 869     -23.882  15.635 -19.223  0.00  0.00     0.080 H 
ATOM    134  H   NTO d 869     -11.646  20.705 -20.338  0.00  0.00     0.140 HD
ATOM    135  H   NTO d 869     -11.060  19.665 -24.717  0.00  0.00     0.092 H 
ATOM    136  H   NTO d 869     -24.350  17.613 -25.677  0.00  0.00     0.231 HD
ATOM    137  H   NTO d 869     -18.951  15.142 -22.937  0.00  0.00     0.210 HD
ATOM    138  H   NTO d 869      -7.012  17.009 -21.653  0.00  0.00     0.091 H 
ATOM    139  H   NTO d 869     -21.790  14.494 -25.672  0.00  0.00     0.231 HD
ATOM    140  H   NTO d 869     -22.160  17.895 -20.277  0.00  0.00     0.090 H 
ATOM    141  H   NTO d 869     -22.949  18.579 -22.712  0.00  0.00     0.089 H 
ATOM    142  H   NTO d 869     -16.973  17.295 -25.257  0.00  0.00     0.210 HD
ATOM    143  H   NTO d 869     -15.409  20.389 -22.921  0.00  0.00     0.091 H 
ENDROOT
TORSDOF 46
ENDMDL
MODEL 7
REMARK VINA RESULT:      -8.0      2.601     13.811
REMARK  0 active torsions:
REMARK  status: ('A' for Active; 'I' for Inactive)
REMARK       I    between atoms: O4A_2  and  C49_47 
REMARK       I    between atoms: O4A_2  and  S4B_15 
REMARK       I    between atoms: C3F_4  and  N3G_69 
REMARK       I    between atoms: S17_5  and  O16_54 
REMARK       I    between atoms: C5L_6  and  O5M_26 
REMARK       I    between atoms: C4F_7  and  O4G_60 
REMARK       I    between atoms: N1F_9  and  C1E_19 
REMARK       I    between atoms: N1F_9  and  S1G_71 
REMARK       I    between atoms: O5J_11  and  S5H_38 
REMARK       I    between atoms: C3L_12  and  O3M_62 
REMARK       I    between atoms: C29_13  and  O2A_90 
REMARK       I    between atoms: S3B_14  and  O3A_85 
REMARK       I    between atoms: C20_18  and  O1L_72 
REMARK       I    between atoms: O3J_20  and  S3H_80 
REMARK       I    between atoms: C31_23  and  C33_44 
REMARK       I    between atoms: C46_25  and  O47_33 
REMARK       I    between atoms: O5M_26  and  C5N_35 
REMARK       I    between atoms: C51_28  and  C53_48 
REMARK       I    between atoms: C5F_29  and  N5G_43 
REMARK       I    between atoms: C59_30  and  O5A_59 
REMARK       I    between atoms: C21_31  and  C23_64 
REMARK       I    between atoms: C26_32  and  O27_76 
REMARK       I    between atoms: O1J_34  and  S1G_71 
REMARK       I    between atoms: O3K_36  and  S3H_80 
REMARK       I    between atoms: O5I_37  and  S5H_38 
REMARK       I    between atoms: S5H_38  and  O5K_53 
REMARK       I    between atoms: S5H_38  and  N5G_43 
REMARK       I    between atoms: C39_39  and  O3A_85 
REMARK       I    between atoms: C1K_40  and  O1L_72 
REMARK       I    between atoms: C2C_41  and  O2D_45 
REMARK       I    between atoms: C33_44  and  O34_74 
REMARK       I    between atoms: O2D_45  and  C30_91 
REMARK       I    between atoms: C12_46  and  O10_51 
REMARK       I    between atoms: C53_48  and  O54_57 
REMARK       I    between atoms: O3I_50  and  S3H_80 
REMARK       I    between atoms: O16_54  and  C15_68 
REMARK       I    between atoms: C43_56  and  C41_65 
REMARK       I    between atoms: O54_57  and  S55_58 
REMARK       I    between atoms: O4G_60  and  C50_77 
REMARK       I    between atoms: O3M_62  and  C40_70 
REMARK       I    between atoms: O1C_67  and  C1B_86 
REMARK       I    between atoms: C15_68  and  C13_83 
REMARK       I    between atoms: N3G_69  and  S3H_80 
REMARK       I    between atoms: S1G_71  and  O1H_75 
REMARK       I    between atoms: S1G_71  and  O1I_82 
REMARK       I    between atoms: O34_74  and  S35_81 
ROOT
ATOM      1  O42 NTO d 869     -10.907  18.743 -19.800  0.00  0.00    -0.340 OA
ATOM      2  O4A NTO d 869      -9.299  22.034 -20.110  0.00  0.00    -0.244 OA
ATOM      3  O32 NTO d 869     -15.232  21.375 -19.666  0.00  0.00    -0.349 OA
ATOM      4  C3F NTO d 869     -15.087  20.737 -17.349  0.00  0.00     0.083 C 
ATOM      5  S17 NTO d 869     -23.335  12.408 -14.766  0.00  0.00     0.251 S 
ATOM      6  C5L NTO d 869      -6.138  15.961 -20.522  0.00  0.00     0.149 C 
ATOM      7  C4F NTO d 869      -9.817  19.673 -19.895  0.00  0.00     0.161 C 
ATOM      8  O14 NTO d 869     -23.336  14.578 -18.207  0.00  0.00    -0.349 OA
ATOM      9  N1F NTO d 869     -23.876  16.885 -21.032  0.00  0.00    -0.210 NA
ATOM     10  O37 NTO d 869     -18.479  21.329 -23.164  0.00  0.00    -0.572 OA
ATOM     11  O5J NTO d 869      -7.213  13.049 -20.241  0.00  0.00    -0.296 OA
ATOM     12  C3L NTO d 869     -14.304  21.162 -18.590  0.00  0.00     0.150 C 
ATOM     13  C29 NTO d 869     -19.059  17.075 -20.229  0.00  0.00     0.110 C 
ATOM     14  S3B NTO d 869     -15.935  17.811 -15.923  0.00  0.00     0.252 S 
ATOM     15  S4B NTO d 869      -8.982  22.775 -21.292  0.00  0.00     0.252 S 
ATOM     16  O24 NTO d 869     -20.368  17.487 -15.686  0.00  0.00    -0.646 OA
ATOM     17  O45 NTO d 869     -13.677  17.777 -19.586  0.00  0.00    -0.646 OA
ATOM     18  C20 NTO d 869     -21.038  16.794 -18.748  0.00  0.00     0.103 C 
ATOM     19  C1E NTO d 869     -24.253  15.933 -19.979  0.00  0.00     0.081 C 
ATOM     20  O3J NTO d 869     -13.461  22.270 -14.384  0.00  0.00    -0.296 OA
ATOM     21  O38 NTO d 869     -19.293  23.060 -21.626  0.00  0.00    -0.572 OA
ATOM     22  O18 NTO d 869     -23.325  11.174 -15.616  0.00  0.00    -0.572 OA
ATOM     23  C31 NTO d 869     -15.869  20.145 -20.046  0.00  0.00     0.091 C 
ATOM     24  O52 NTO d 869      -6.129  16.966 -19.495  0.00  0.00    -0.349 OA
ATOM     25  C46 NTO d 869     -11.613  21.414 -19.720  0.00  0.00     0.094 C 
ATOM     26  O5M NTO d 869      -5.257  16.278 -21.607  0.00  0.00    -0.364 OA
ATOM     27  O3D NTO d 869     -16.770  17.382 -14.753  0.00  0.00    -0.572 OA
ATOM     28  C51 NTO d 869      -6.740  18.198 -19.910  0.00  0.00     0.091 C 
ATOM     29  C5F NTO d 869      -7.556  15.680 -21.021  0.00  0.00     0.081 C 
ATOM     30  C59 NTO d 869      -8.244  16.976 -21.453  0.00  0.00     0.083 C 
ATOM     31  C21 NTO d 869     -20.564  18.031 -18.000  0.00  0.00     0.152 C 
ATOM     32  C26 NTO d 869     -20.582  16.932 -20.200  0.00  0.00     0.092 C 
ATOM     33  O47 NTO d 869     -12.026  22.708 -20.171  0.00  0.00    -0.390 OA
ATOM     34  O1J NTO d 869     -24.445  17.620 -23.406  0.00  0.00    -0.296 OA
ATOM     35  C5N NTO d 869      -3.928  15.877 -21.258  0.00  0.00     0.007 C 
ATOM     36  O3K NTO d 869     -14.026  23.147 -16.586  0.00  0.00    -0.296 OA
ATOM     37  O5I NTO d 869      -9.252  12.961 -21.596  0.00  0.00    -0.296 OA
ATOM     38  S5H NTO d 869      -7.775  13.218 -21.622  0.00  0.00     0.156 S 
ATOM     39  C39 NTO d 869     -15.758  19.398 -17.659  0.00  0.00     0.108 C 
ATOM     40  C1K NTO d 869     -22.985  15.524 -19.229  0.00  0.00     0.150 C 
ATOM     41  C2C NTO d 869     -18.609  18.243 -19.348  0.00  0.00     0.160 C 
ATOM     42  O19 NTO d 869     -24.585  12.442 -13.937  0.00  0.00    -0.572 OA
ATOM     43  N5G NTO d 869      -7.508  14.739 -22.150  0.00  0.00    -0.210 NA
ATOM     44  C33 NTO d 869     -16.822  20.406 -21.216  0.00  0.00     0.067 C 
ATOM     45  O2D NTO d 869     -17.173  18.266 -19.310  0.00  0.00    -0.348 OA
ATOM     46  C12 NTO d 869     -25.475  15.689 -17.809  0.00  0.00     0.089 C 
ATOM     47  C49 NTO d 869     -10.290  21.043 -20.391  0.00  0.00     0.134 C 
ATOM     48  C53 NTO d 869      -6.690  19.153 -18.714  0.00  0.00     0.067 C 
ATOM     49  O4D NTO d 869     -10.086  23.747 -21.588  0.00  0.00    -0.572 OA
ATOM     50  O3I NTO d 869     -11.951  21.878 -16.273  0.00  0.00    -0.296 OA
ATOM     51  O10 NTO d 869     -26.193  16.421 -16.812  0.00  0.00    -0.390 OA
ATOM     52  O1A NTO d 869     -22.134  12.402 -13.870  0.00  0.00    -0.572 OA
ATOM     53  O5K NTO d 869      -7.106  12.238 -22.540  0.00  0.00    -0.296 OA
ATOM     54  O16 NTO d 869     -23.285  13.566 -15.607  0.00  0.00    -0.254 OA
ATOM     55  O56 NTO d 869      -8.719  19.786 -16.054  0.00  0.00    -0.572 OA
ATOM     56  C43 NTO d 869     -13.054  18.010 -20.647  0.00  0.00     0.206 C 
ATOM     57  O54 NTO d 869      -7.324  18.561 -17.579  0.00  0.00    -0.254 OA
ATOM     58  S55 NTO d 869      -7.348  19.238 -16.317  0.00  0.00     0.251 S 
ATOM     59  O5A NTO d 869      -9.616  16.711 -21.761  0.00  0.00    -0.391 OA
ATOM     60  O4G NTO d 869      -8.778  19.211 -20.770  0.00  0.00    -0.348 OA
ATOM     61  O3C NTO d 869     -14.556  18.149 -15.439  0.00  0.00    -0.572 OA
ATOM     62  O3M NTO d 869     -13.426  20.077 -18.918  0.00  0.00    -0.348 OA
ATOM     63  O44 NTO d 869     -13.244  17.384 -21.722  0.00  0.00    -0.646 OA
ATOM     64  C23 NTO d 869     -21.109  17.960 -16.581  0.00  0.00     0.206 C 
ATOM     65  C41 NTO d 869     -12.015  19.121 -20.636  0.00  0.00     0.152 C 
ATOM     66  O22 NTO d 869     -19.128  18.115 -18.014  0.00  0.00    -0.340 OA
ATOM     67  O1C NTO d 869     -26.440  16.914 -19.658  0.00  0.00    -0.391 OA
ATOM     68  C15 NTO d 869     -24.484  14.120 -16.153  0.00  0.00     0.067 C 
ATOM     69  N3G NTO d 869     -14.171  20.609 -16.200  0.00  0.00    -0.210 NA
ATOM     70  C40 NTO d 869     -12.674  20.383 -20.098  0.00  0.00     0.103 C 
ATOM     71  S1G NTO d 869     -24.803  16.621 -22.346  0.00  0.00     0.156 S 
ATOM     72  O1L NTO d 869     -22.466  16.724 -18.639  0.00  0.00    -0.348 OA
ATOM     73  O57 NTO d 869      -6.360  20.366 -16.342  0.00  0.00    -0.572 OA
ATOM     74  O34 NTO d 869     -17.875  21.302 -20.845  0.00  0.00    -0.254 OA
ATOM     75  O1H NTO d 869     -26.248  16.766 -21.972  0.00  0.00    -0.296 OA
ATOM     76  O27 NTO d 869     -20.959  15.769 -20.942  0.00  0.00    -0.390 OA
ATOM     77  C50 NTO d 869      -8.193  17.984 -20.307  0.00  0.00     0.095 C 
ATOM     78  O3E NTO d 869     -15.847  16.687 -16.913  0.00  0.00    -0.572 OA
ATOM     79  O25 NTO d 869     -22.280  18.362 -16.385  0.00  0.00    -0.646 OA
ATOM     80  S3H NTO d 869     -13.388  22.001 -15.858  0.00  0.00     0.156 S 
ATOM     81  S35 NTO d 869     -18.933  21.611 -21.762  0.00  0.00     0.251 S 
ATOM     82  O1I NTO d 869     -24.549  15.234 -22.859  0.00  0.00    -0.296 OA
ATOM     83  C13 NTO d 869     -24.162  15.189 -17.202  0.00  0.00     0.090 C 
ATOM     84  O58 NTO d 869      -6.978  18.269 -15.235  0.00  0.00    -0.572 OA
ATOM     85  O3A NTO d 869     -16.530  18.960 -16.535  0.00  0.00    -0.247 OA
ATOM     86  C1B NTO d 869     -25.208  16.615 -18.999  0.00  0.00     0.083 C 
ATOM     87  O4C NTO d 869      -8.813  21.833 -22.447  0.00  0.00    -0.572 OA
ATOM     88  O4E NTO d 869      -7.698  23.514 -21.066  0.00  0.00    -0.572 OA
ATOM     89  O36 NTO d 869     -20.137  20.773 -21.454  0.00  0.00    -0.572 OA
ATOM     90  O2A NTO d 869     -18.630  17.297 -21.574  0.00  0.00    -0.388 OA
ATOM     91  C30 NTO d 869     -16.657  19.540 -18.892  0.00  0.00     0.096 C 
ATOM     92  H   NTO d 869     -15.828  21.466 -17.096  0.00  0.00     0.076 H 
ATOM     93  H   NTO d 869      -5.765  15.064 -20.074  0.00  0.00     0.131 H 
ATOM     94  H   NTO d 869      -9.424  19.760 -18.904  0.00  0.00     0.133 H 
ATOM     95  H   NTO d 869     -22.894  16.754 -21.275  0.00  0.00     0.140 HD
ATOM     96  H   NTO d 869      -7.376  12.143 -19.934  0.00  0.00     0.231 HD
ATOM     97  H   NTO d 869     -13.750  22.062 -18.422  0.00  0.00     0.131 H 
ATOM     98  H   NTO d 869     -18.620  16.175 -19.852  0.00  0.00     0.094 H 
ATOM     99  H   NTO d 869     -20.630  15.891 -18.344  0.00  0.00     0.092 H 
ATOM    100  H   NTO d 869     -24.730  15.077 -20.409  0.00  0.00     0.076 H 
ATOM    101  H   NTO d 869     -12.996  23.096 -14.182  0.00  0.00     0.231 HD
ATOM    102  H   NTO d 869     -15.103  19.455 -20.330  0.00  0.00     0.090 H 
ATOM    103  H   NTO d 869     -11.487  21.430 -18.658  0.00  0.00     0.091 H 
ATOM    104  H   NTO d 869      -6.219  18.591 -20.757  0.00  0.00     0.090 H 
ATOM    105  H   NTO d 869      -8.121  15.248 -20.221  0.00  0.00     0.076 H 
ATOM    106  H   NTO d 869      -7.742  17.367 -22.313  0.00  0.00     0.089 H 
ATOM    107  H   NTO d 869     -20.928  18.917 -18.477  0.00  0.00     0.104 H 
ATOM    108  H   NTO d 869     -21.042  17.793 -20.637  0.00  0.00     0.091 H 
ATOM    109  H   NTO d 869     -12.140  22.693 -21.134  0.00  0.00     0.210 HD
ATOM    110  H   NTO d 869     -24.610  18.517 -23.075  0.00  0.00     0.231 HD
ATOM    111  H   NTO d 869      -3.262  16.109 -22.063  0.00  0.00     0.066 H 
ATOM    112  H   NTO d 869      -3.910  14.823 -21.074  0.00  0.00     0.066 H 
ATOM    113  H   NTO d 869      -3.618  16.398 -20.376  0.00  0.00     0.066 H 
ATOM    114  H   NTO d 869     -13.553  23.967 -16.375  0.00  0.00     0.231 HD
ATOM    115  H   NTO d 869      -9.417  12.058 -21.282  0.00  0.00     0.231 HD
ATOM    116  H   NTO d 869     -15.001  18.668 -17.861  0.00  0.00     0.092 H 
ATOM    117  H   NTO d 869     -22.260  15.070 -19.873  0.00  0.00     0.131 H 
ATOM    118  H   NTO d 869     -18.986  19.155 -19.760  0.00  0.00     0.133 H 
ATOM    119  H   NTO d 869      -6.589  14.787 -22.590  0.00  0.00     0.140 HD
ATOM    120  H   NTO d 869     -17.251  19.477 -21.529  0.00  0.00     0.080 H 
ATOM    121  H   NTO d 869     -16.264  20.856 -22.010  0.00  0.00     0.080 H 
ATOM    122  H   NTO d 869     -26.042  14.847 -18.146  0.00  0.00     0.091 H 
ATOM    123  H   NTO d 869     -10.441  20.996 -21.449  0.00  0.00     0.097 H 
ATOM    124  H   NTO d 869      -7.196  20.060 -18.967  0.00  0.00     0.080 H 
ATOM    125  H   NTO d 869      -5.668  19.356 -18.474  0.00  0.00     0.080 H 
ATOM    126  H   NTO d 869     -11.484  22.704 -16.071  0.00  0.00     0.231 HD
ATOM    127  H   NTO d 869     -25.661  17.178 -16.522  0.00  0.00     0.210 HD
ATOM    128  H   NTO d 869      -7.268  11.336 -22.222  0.00  0.00     0.231 HD
ATOM    129  H   NTO d 869     -10.061  16.357 -20.976  0.00  0.00     0.210 HD
ATOM    130  H   NTO d 869     -11.646  19.295 -21.625  0.00  0.00     0.104 H 
ATOM    131  H   NTO d 869     -26.270  17.500 -20.412  0.00  0.00     0.210 HD
ATOM    132  H   NTO d 869     -25.055  14.565 -15.365  0.00  0.00     0.080 H 
ATOM    133  H   NTO d 869     -25.041  13.336 -16.623  0.00  0.00     0.080 H 
ATOM    134  H   NTO d 869     -13.480  19.889 -16.412  0.00  0.00     0.140 HD
ATOM    135  H   NTO d 869     -13.313  20.774 -20.861  0.00  0.00     0.092 H 
ATOM    136  H   NTO d 869     -26.408  17.663 -21.642  0.00  0.00     0.231 HD
ATOM    137  H   NTO d 869     -20.544  14.985 -20.549  0.00  0.00     0.210 HD
ATOM    138  H   NTO d 869      -8.734  17.632 -19.453  0.00  0.00     0.091 H 
ATOM    139  H   NTO d 869     -23.613  15.145 -23.100  0.00  0.00     0.231 HD
ATOM    140  H   NTO d 869     -23.646  16.022 -16.773  0.00  0.00     0.090 H 
ATOM    141  H   NTO d 869     -24.763  17.522 -18.648  0.00  0.00     0.089 H 
ATOM    142  H   NTO d 869     -19.031  18.114 -21.910  0.00  0.00     0.210 HD
ATOM    143  H   NTO d 869     -17.474  20.177 -18.625  0.00  0.00     0.091 H 
ENDROOT
TORSDOF 46
ENDMDL
MODEL 8
REMARK VINA RESULT:      -7.9      3.113     14.123
REMARK  0 active torsions:
REMARK  status: ('A' for Active; 'I' for Inactive)
REMARK       I    between atoms: O4A_2  and  C49_47 
REMARK       I    between atoms: O4A_2  and  S4B_15 
REMARK       I    between atoms: C3F_4  and  N3G_69 
REMARK       I    between atoms: S17_5  and  O16_54 
REMARK       I    between atoms: C5L_6  and  O5M_26 
REMARK       I    between atoms: C4F_7  and  O4G_60 
REMARK       I    between atoms: N1F_9  and  C1E_19 
REMARK       I    between atoms: N1F_9  and  S1G_71 
REMARK       I    between atoms: O5J_11  and  S5H_38 
REMARK       I    between atoms: C3L_12  and  O3M_62 
REMARK       I    between atoms: C29_13  and  O2A_90 
REMARK       I    between atoms: S3B_14  and  O3A_85 
REMARK       I    between atoms: C20_18  and  O1L_72 
REMARK       I    between atoms: O3J_20  and  S3H_80 
REMARK       I    between atoms: C31_23  and  C33_44 
REMARK       I    between atoms: C46_25  and  O47_33 
REMARK       I    between atoms: O5M_26  and  C5N_35 
REMARK       I    between atoms: C51_28  and  C53_48 
REMARK       I    between atoms: C5F_29  and  N5G_43 
REMARK       I    between atoms: C59_30  and  O5A_59 
REMARK       I    between atoms: C21_31  and  C23_64 
REMARK       I    between atoms: C26_32  and  O27_76 
REMARK       I    between atoms: O1J_34  and  S1G_71 
REMARK       I    between atoms: O3K_36  and  S3H_80 
REMARK       I    between atoms: O5I_37  and  S5H_38 
REMARK       I    between atoms: S5H_38  and  O5K_53 
REMARK       I    between atoms: S5H_38  and  N5G_43 
REMARK       I    between atoms: C39_39  and  O3A_85 
REMARK       I    between atoms: C1K_40  and  O1L_72 
REMARK       I    between atoms: C2C_41  and  O2D_45 
REMARK       I    between atoms: C33_44  and  O34_74 
REMARK       I    between atoms: O2D_45  and  C30_91 
REMARK       I    between atoms: C12_46  and  O10_51 
REMARK       I    between atoms: C53_48  and  O54_57 
REMARK       I    between atoms: O3I_50  and  S3H_80 
REMARK       I    between atoms: O16_54  and  C15_68 
REMARK       I    between atoms: C43_56  and  C41_65 
REMARK       I    between atoms: O54_57  and  S55_58 
REMARK       I    between atoms: O4G_60  and  C50_77 
REMARK       I    between atoms: O3M_62  and  C40_70 
REMARK       I    between atoms: O1C_67  and  C1B_86 
REMARK       I    between atoms: C15_68  and  C13_83 
REMARK       I    between atoms: N3G_69  and  S3H_80 
REMARK       I    between atoms: S1G_71  and  O1H_75 
REMARK       I    between atoms: S1G_71  and  O1I_82 
REMARK       I    between atoms: O34_74  and  S35_81 
ROOT
ATOM      1  O42 NTO d 869     -10.991  18.539 -22.413  0.00  0.00    -0.340 OA
ATOM      2  O4A NTO d 869      -9.329  21.630 -23.505  0.00  0.00    -0.244 OA
ATOM      3  O32 NTO d 869     -15.255  20.866 -23.849  0.00  0.00    -0.349 OA
ATOM      4  C3F NTO d 869     -15.512  21.011 -21.458  0.00  0.00     0.083 C 
ATOM      5  S17 NTO d 869     -24.145  13.565 -17.703  0.00  0.00     0.251 S 
ATOM      6  C5L NTO d 869      -6.191  15.903 -21.405  0.00  0.00     0.149 C 
ATOM      7  C4F NTO d 869      -9.894  19.441 -22.625  0.00  0.00     0.161 C 
ATOM      8  O14 NTO d 869     -23.542  14.516 -21.613  0.00  0.00    -0.349 OA
ATOM      9  N1F NTO d 869     -23.575  15.767 -25.081  0.00  0.00    -0.210 NA
ATOM     10  O37 NTO d 869     -17.860  19.546 -27.624  0.00  0.00    -0.572 OA
ATOM     11  O5J NTO d 869      -7.321  13.188 -20.376  0.00  0.00    -0.296 OA
ATOM     12  C3L NTO d 869     -14.526  21.053 -22.625  0.00  0.00     0.150 C 
ATOM     13  C29 NTO d 869     -18.964  16.434 -23.607  0.00  0.00     0.110 C 
ATOM     14  S3B NTO d 869     -16.613  18.659 -19.321  0.00  0.00     0.252 S 
ATOM     15  S4B NTO d 869      -8.809  21.968 -24.794  0.00  0.00     0.252 S 
ATOM     16  O24 NTO d 869     -21.025  18.217 -19.721  0.00  0.00    -0.646 OA
ATOM     17  O45 NTO d 869     -13.765  17.561 -22.354  0.00  0.00    -0.646 OA
ATOM     18  C20 NTO d 869     -21.168  16.548 -22.459  0.00  0.00     0.103 C 
ATOM     19  C1E NTO d 869     -24.133  15.186 -23.854  0.00  0.00     0.081 C 
ATOM     20  O3J NTO d 869     -14.403  23.489 -18.926  0.00  0.00    -0.296 OA
ATOM     21  O38 NTO d 869     -18.910  21.638 -26.885  0.00  0.00    -0.572 OA
ATOM     22  O18 NTO d 869     -24.000  12.125 -18.095  0.00  0.00    -0.572 OA
ATOM     23  C31 NTO d 869     -15.828  19.550 -23.908  0.00  0.00     0.091 C 
ATOM     24  O52 NTO d 869      -6.349  17.184 -20.772  0.00  0.00    -0.349 OA
ATOM     25  C46 NTO d 869     -11.680  21.059 -23.319  0.00  0.00     0.094 C 
ATOM     26  O5M NTO d 869      -5.135  15.898 -22.374  0.00  0.00    -0.364 OA
ATOM     27  O3D NTO d 869     -17.639  18.589 -18.229  0.00  0.00    -0.572 OA
ATOM     28  C51 NTO d 869      -6.871  18.188 -21.657  0.00  0.00     0.091 C 
ATOM     29  C5F NTO d 869      -7.506  15.410 -22.011  0.00  0.00     0.081 C 
ATOM     30  C59 NTO d 869      -8.100  16.465 -22.946  0.00  0.00     0.083 C 
ATOM     31  C21 NTO d 869     -20.820  17.981 -22.085  0.00  0.00     0.152 C 
ATOM     32  C26 NTO d 869     -20.471  16.235 -23.782  0.00  0.00     0.092 C 
ATOM     33  O47 NTO d 869     -12.000  22.118 -24.226  0.00  0.00    -0.390 OA
ATOM     34  O1J NTO d 869     -23.726  15.674 -27.625  0.00  0.00    -0.296 OA
ATOM     35  C5N NTO d 869      -3.889  15.694 -21.702  0.00  0.00     0.007 C 
ATOM     36  O3K NTO d 869     -14.577  23.587 -21.354  0.00  0.00    -0.296 OA
ATOM     37  O5I NTO d 869      -9.100  12.573 -21.944  0.00  0.00    -0.296 OA
ATOM     38  S5H NTO d 869      -7.638  12.879 -21.809  0.00  0.00     0.156 S 
ATOM     39  C39 NTO d 869     -16.130  19.613 -21.424  0.00  0.00     0.108 C 
ATOM     40  C1K NTO d 869     -23.015  15.099 -22.814  0.00  0.00     0.150 C 
ATOM     41  C2C NTO d 869     -18.662  17.843 -23.090  0.00  0.00     0.160 C 
ATOM     42  O19 NTO d 869     -25.517  13.803 -17.147  0.00  0.00    -0.572 OA
ATOM     43  N5G NTO d 869      -7.273  14.160 -22.750  0.00  0.00    -0.210 NA
ATOM     44  C33 NTO d 869     -16.566  19.376 -25.239  0.00  0.00     0.067 C 
ATOM     45  O2D NTO d 869     -17.253  17.946 -22.827  0.00  0.00    -0.348 OA
ATOM     46  C12 NTO d 869     -25.709  15.592 -21.952  0.00  0.00     0.089 C 
ATOM     47  C49 NTO d 869     -10.265  20.555 -23.608  0.00  0.00     0.134 C 
ATOM     48  C53 NTO d 869      -7.018  19.476 -20.844  0.00  0.00     0.067 C 
ATOM     49  O4D NTO d 869      -9.838  22.740 -25.566  0.00  0.00    -0.572 OA
ATOM     50  O3I NTO d 869     -12.596  22.585 -20.312  0.00  0.00    -0.296 OA
ATOM     51  O10 NTO d 869     -26.580  16.569 -21.377  0.00  0.00    -0.390 OA
ATOM     52  O1A NTO d 869     -23.113  13.904 -16.671  0.00  0.00    -0.572 OA
ATOM     53  O5K NTO d 869      -6.831  11.689 -22.238  0.00  0.00    -0.296 OA
ATOM     54  O16 NTO d 869     -23.943  14.393 -18.854  0.00  0.00    -0.254 OA
ATOM     55  O56 NTO d 869      -9.465  20.831 -18.903  0.00  0.00    -0.572 OA
ATOM     56  C43 NTO d 869     -12.968  17.472 -23.316  0.00  0.00     0.206 C 
ATOM     57  O54 NTO d 869      -7.840  19.250 -19.698  0.00  0.00    -0.254 OA
ATOM     58  S55 NTO d 869      -8.073  20.294 -18.745  0.00  0.00     0.251 S 
ATOM     59  O5A NTO d 869      -9.401  16.050 -23.372  0.00  0.00    -0.391 OA
ATOM     60  O4G NTO d 869      -8.724  18.773 -23.120  0.00  0.00    -0.348 OA
ATOM     61  O3C NTO d 869     -15.334  19.200 -18.755  0.00  0.00    -0.572 OA
ATOM     62  O3M NTO d 869     -13.613  19.963 -22.436  0.00  0.00    -0.348 OA
ATOM     63  O44 NTO d 869     -12.978  16.526 -24.146  0.00  0.00    -0.646 OA
ATOM     64  C23 NTO d 869     -21.598  18.342 -20.829  0.00  0.00     0.206 C 
ATOM     65  C41 NTO d 869     -11.938  18.576 -23.496  0.00  0.00     0.152 C 
ATOM     66  O22 NTO d 869     -19.401  18.124 -21.890  0.00  0.00    -0.340 OA
ATOM     67  O1C NTO d 869     -26.336  16.111 -24.230  0.00  0.00    -0.391 OA
ATOM     68  C15 NTO d 869     -25.027  14.685 -19.739  0.00  0.00     0.067 C 
ATOM     69  N3G NTO d 869     -14.806  21.302 -20.197  0.00  0.00    -0.210 NA
ATOM     70  C40 NTO d 869     -12.669  19.911 -23.511  0.00  0.00     0.103 C 
ATOM     71  S1G NTO d 869     -24.267  15.052 -26.372  0.00  0.00     0.156 S 
ATOM     72  O1L NTO d 869     -22.595  16.449 -22.568  0.00  0.00    -0.348 OA
ATOM     73  O57 NTO d 869      -7.087  21.400 -18.972  0.00  0.00    -0.572 OA
ATOM     74  O34 NTO d 869     -17.659  20.292 -25.356  0.00  0.00    -0.254 OA
ATOM     75  O1H NTO d 869     -25.753  15.239 -26.307  0.00  0.00    -0.296 OA
ATOM     76  O27 NTO d 869     -20.725  14.879 -24.158  0.00  0.00    -0.390 OA
ATOM     77  C50 NTO d 869      -8.237  17.789 -22.196  0.00  0.00     0.095 C 
ATOM     78  O3E NTO d 869     -16.367  17.282 -19.865  0.00  0.00    -0.572 OA
ATOM     79  O25 NTO d 869     -22.782  18.730 -20.968  0.00  0.00    -0.646 OA
ATOM     80  S3H NTO d 869     -14.082  22.767 -20.201  0.00  0.00     0.156 S 
ATOM     81  S35 NTO d 869     -18.543  20.241 -26.484  0.00  0.00     0.251 S 
ATOM     82  O1I NTO d 869     -23.940  13.587 -26.359  0.00  0.00    -0.296 OA
ATOM     83  C13 NTO d 869     -24.523  15.375 -21.010  0.00  0.00     0.090 C 
ATOM     84  O58 NTO d 869      -7.901  19.741 -17.363  0.00  0.00    -0.572 OA
ATOM     85  O3A NTO d 869     -17.086  19.522 -20.361  0.00  0.00    -0.247 OA
ATOM     86  C1B NTO d 869     -25.236  16.099 -23.317  0.00  0.00     0.083 C 
ATOM     87  O4C NTO d 869      -8.453  20.714 -25.538  0.00  0.00    -0.572 OA
ATOM     88  O4E NTO d 869      -7.577  22.801 -24.613  0.00  0.00    -0.572 OA
ATOM     89  O36 NTO d 869     -19.789  19.489 -26.121  0.00  0.00    -0.572 OA
ATOM     90  O2A NTO d 869     -18.311  16.234 -24.861  0.00  0.00    -0.388 OA
ATOM     91  C30 NTO d 869     -16.805  19.309 -22.766  0.00  0.00     0.096 C 
ATOM     92  H   NTO d 869     -16.279  21.747 -21.581  0.00  0.00     0.076 H 
ATOM     93  H   NTO d 869      -5.907  15.216 -20.636  0.00  0.00     0.131 H 
ATOM     94  H   NTO d 869      -9.675  19.859 -21.665  0.00  0.00     0.133 H 
ATOM     95  H   NTO d 869     -22.568  15.612 -25.104  0.00  0.00     0.140 HD
ATOM     96  H   NTO d 869      -7.541  12.421 -19.823  0.00  0.00     0.231 HD
ATOM     97  H   NTO d 869     -14.001  21.985 -22.669  0.00  0.00     0.131 H 
ATOM     98  H   NTO d 869     -18.603  15.724 -22.892  0.00  0.00     0.094 H 
ATOM     99  H   NTO d 869     -20.842  15.843 -21.724  0.00  0.00     0.092 H 
ATOM    100  H   NTO d 869     -24.537  14.215 -24.055  0.00  0.00     0.076 H 
ATOM    101  H   NTO d 869     -13.972  24.358 -18.929  0.00  0.00     0.231 HD
ATOM    102  H   NTO d 869     -15.030  18.842 -23.824  0.00  0.00     0.090 H 
ATOM    103  H   NTO d 869     -11.736  21.419 -22.314  0.00  0.00     0.091 H 
ATOM    104  H   NTO d 869      -6.210  18.313 -22.489  0.00  0.00     0.090 H 
ATOM    105  H   NTO d 869      -8.202  15.231 -21.218  0.00  0.00     0.076 H 
ATOM    106  H   NTO d 869      -7.456  16.584 -23.792  0.00  0.00     0.089 H 
ATOM    107  H   NTO d 869     -21.090  18.649 -22.876  0.00  0.00     0.104 H 
ATOM    108  H   NTO d 869     -20.843  16.888 -24.544  0.00  0.00     0.091 H 
ATOM    109  H   NTO d 869     -11.948  21.789 -25.138  0.00  0.00     0.210 HD
ATOM    110  H   NTO d 869     -23.938  16.621 -27.633  0.00  0.00     0.231 HD
ATOM    111  H   NTO d 869      -3.094  15.688 -22.418  0.00  0.00     0.066 H 
ATOM    112  H   NTO d 869      -3.911  14.757 -21.186  0.00  0.00     0.066 H 
ATOM    113  H   NTO d 869      -3.730  16.485 -20.998  0.00  0.00     0.066 H 
ATOM    114  H   NTO d 869     -14.141  24.453 -21.347  0.00  0.00     0.231 HD
ATOM    115  H   NTO d 869      -9.323  11.811 -21.386  0.00  0.00     0.231 HD
ATOM    116  H   NTO d 869     -15.356  18.894 -21.252  0.00  0.00     0.092 H 
ATOM    117  H   NTO d 869     -22.195  14.498 -23.148  0.00  0.00     0.131 H 
ATOM    118  H   NTO d 869     -18.955  18.556 -23.832  0.00  0.00     0.133 H 
ATOM    119  H   NTO d 869      -6.293  14.109 -23.025  0.00  0.00     0.140 HD
ATOM    120  H   NTO d 869     -16.942  18.377 -25.300  0.00  0.00     0.080 H 
ATOM    121  H   NTO d 869     -15.877  19.574 -26.033  0.00  0.00     0.080 H 
ATOM    122  H   NTO d 869     -26.217  14.660 -22.086  0.00  0.00     0.091 H 
ATOM    123  H   NTO d 869     -10.234  20.164 -24.604  0.00  0.00     0.097 H 
ATOM    124  H   NTO d 869      -7.467  20.230 -21.456  0.00  0.00     0.080 H 
ATOM    125  H   NTO d 869      -6.049  19.795 -20.520  0.00  0.00     0.080 H 
ATOM    126  H   NTO d 869     -12.164  23.454 -20.315  0.00  0.00     0.231 HD
ATOM    127  H   NTO d 869     -26.100  17.404 -21.265  0.00  0.00     0.210 HD
ATOM    128  H   NTO d 869      -7.051  10.930 -21.676  0.00  0.00     0.231 HD
ATOM    129  H   NTO d 869      -9.976  15.946 -22.598  0.00  0.00     0.210 HD
ATOM    130  H   NTO d 869     -11.405  18.442 -24.414  0.00  0.00     0.104 H 
ATOM    131  H   NTO d 869     -26.036  16.432 -25.094  0.00  0.00     0.210 HD
ATOM    132  H   NTO d 869     -25.720  15.331 -19.242  0.00  0.00     0.080 H 
ATOM    133  H   NTO d 869     -25.502  13.766 -20.013  0.00  0.00     0.080 H 
ATOM    134  H   NTO d 869     -14.094  20.586 -20.048  0.00  0.00     0.140 HD
ATOM    135  H   NTO d 869     -13.166  20.006 -24.454  0.00  0.00     0.092 H 
ATOM    136  H   NTO d 869     -25.960  16.187 -26.315  0.00  0.00     0.231 HD
ATOM    137  H   NTO d 869     -20.389  14.283 -23.470  0.00  0.00     0.210 HD
ATOM    138  H   NTO d 869      -8.918  17.704 -21.375  0.00  0.00     0.091 H 
ATOM    139  H   NTO d 869     -22.978  13.470 -26.402  0.00  0.00     0.231 HD
ATOM    140  H   NTO d 869     -24.081  16.326 -20.795  0.00  0.00     0.090 H 
ATOM    141  H   NTO d 869     -24.850  17.091 -23.211  0.00  0.00     0.089 H 
ATOM    142  H   NTO d 869     -18.642  16.879 -25.505  0.00  0.00     0.210 HD
ATOM    143  H   NTO d 869     -17.651  19.958 -22.857  0.00  0.00     0.091 H 
ENDROOT
TORSDOF 46
ENDMDL
MODEL 9
REMARK VINA RESULT:      -7.8      3.784     13.643
REMARK  0 active torsions:
REMARK  status: ('A' for Active; 'I' for Inactive)
REMARK       I    between atoms: O4A_2  and  C49_47 
REMARK       I    between atoms: O4A_2  and  S4B_15 
REMARK       I    between atoms: C3F_4  and  N3G_69 
REMARK       I    between atoms: S17_5  and  O16_54 
REMARK       I    between atoms: C5L_6  and  O5M_26 
REMARK       I    between atoms: C4F_7  and  O4G_60 
REMARK       I    between atoms: N1F_9  and  C1E_19 
REMARK       I    between atoms: N1F_9  and  S1G_71 
REMARK       I    between atoms: O5J_11  and  S5H_38 
REMARK       I    between atoms: C3L_12  and  O3M_62 
REMARK       I    between atoms: C29_13  and  O2A_90 
REMARK       I    between atoms: S3B_14  and  O3A_85 
REMARK       I    between atoms: C20_18  and  O1L_72 
REMARK       I    between atoms: O3J_20  and  S3H_80 
REMARK       I    between atoms: C31_23  and  C33_44 
REMARK       I    between atoms: C46_25  and  O47_33 
REMARK       I    between atoms: O5M_26  and  C5N_35 
REMARK       I    between atoms: C51_28  and  C53_48 
REMARK       I    between atoms: C5F_29  and  N5G_43 
REMARK       I    between atoms: C59_30  and  O5A_59 
REMARK       I    between atoms: C21_31  and  C23_64 
REMARK       I    between atoms: C26_32  and  O27_76 
REMARK       I    between atoms: O1J_34  and  S1G_71 
REMARK       I    between atoms: O3K_36  and  S3H_80 
REMARK       I    between atoms: O5I_37  and  S5H_38 
REMARK       I    between atoms: S5H_38  and  O5K_53 
REMARK       I    between atoms: S5H_38  and  N5G_43 
REMARK       I    between atoms: C39_39  and  O3A_85 
REMARK       I    between atoms: C1K_40  and  O1L_72 
REMARK       I    between atoms: C2C_41  and  O2D_45 
REMARK       I    between atoms: C33_44  and  O34_74 
REMARK       I    between atoms: O2D_45  and  C30_91 
REMARK       I    between atoms: C12_46  and  O10_51 
REMARK       I    between atoms: C53_48  and  O54_57 
REMARK       I    between atoms: O3I_50  and  S3H_80 
REMARK       I    between atoms: O16_54  and  C15_68 
REMARK       I    between atoms: C43_56  and  C41_65 
REMARK       I    between atoms: O54_57  and  S55_58 
REMARK       I    between atoms: O4G_60  and  C50_77 
REMARK       I    between atoms: O3M_62  and  C40_70 
REMARK       I    between atoms: O1C_67  and  C1B_86 
REMARK       I    between atoms: C15_68  and  C13_83 
REMARK       I    between atoms: N3G_69  and  S3H_80 
REMARK       I    between atoms: S1G_71  and  O1H_75 
REMARK       I    between atoms: S1G_71  and  O1I_82 
REMARK       I    between atoms: O34_74  and  S35_81 
ROOT
ATOM      1  O42 NTO d 869      -8.747  17.834 -22.858  0.00  0.00    -0.340 OA
ATOM      2  O4A NTO d 869      -7.610  20.055 -25.556  0.00  0.00    -0.244 OA
ATOM      3  O32 NTO d 869     -13.062  20.473 -23.123  0.00  0.00    -0.349 OA
ATOM      4  C3F NTO d 869     -12.183  21.360 -21.064  0.00  0.00     0.083 C 
ATOM      5  S17 NTO d 869     -18.510  17.300 -11.706  0.00  0.00     0.251 S 
ATOM      6  C5L NTO d 869      -4.170  14.669 -23.062  0.00  0.00     0.149 C 
ATOM      7  C4F NTO d 869      -7.824  18.385 -23.808  0.00  0.00     0.161 C 
ATOM      8  O14 NTO d 869     -19.722  16.920 -15.571  0.00  0.00    -0.349 OA
ATOM      9  N1F NTO d 869     -21.278  17.082 -18.910  0.00  0.00    -0.210 NA
ATOM     10  O37 NTO d 869     -17.177  18.680 -24.746  0.00  0.00    -0.572 OA
ATOM     11  O5J NTO d 869      -4.845  12.670 -20.770  0.00  0.00    -0.296 OA
ATOM     12  C3L NTO d 869     -11.843  20.853 -22.465  0.00  0.00     0.150 C 
ATOM     13  C29 NTO d 869     -16.476  17.177 -19.816  0.00  0.00     0.110 C 
ATOM     14  S3B NTO d 869     -12.303  20.017 -17.982  0.00  0.00     0.252 S 
ATOM     15  S4B NTO d 869      -7.723  19.885 -26.972  0.00  0.00     0.252 S 
ATOM     16  O24 NTO d 869     -16.422  20.404 -16.337  0.00  0.00    -0.646 OA
ATOM     17  O45 NTO d 869     -11.231  17.515 -21.315  0.00  0.00    -0.646 OA
ATOM     18  C20 NTO d 869     -17.898  18.077 -17.983  0.00  0.00     0.103 C 
ATOM     19  C1E NTO d 869     -21.240  17.014 -17.444  0.00  0.00     0.081 C 
ATOM     20  O3J NTO d 869      -9.903  24.182 -20.277  0.00  0.00    -0.296 OA
ATOM     21  O38 NTO d 869     -17.656  21.066 -24.433  0.00  0.00    -0.572 OA
ATOM     22  O18 NTO d 869     -18.639  15.811 -11.584  0.00  0.00    -0.572 OA
ATOM     23  C31 NTO d 869     -13.668  19.346 -22.470  0.00  0.00     0.091 C 
ATOM     24  O52 NTO d 869      -3.951  16.082 -22.920  0.00  0.00    -0.349 OA
ATOM     25  C46 NTO d 869      -9.639  20.064 -24.226  0.00  0.00     0.094 C 
ATOM     26  O5M NTO d 869      -3.680  14.162 -24.310  0.00  0.00    -0.364 OA
ATOM     27  O3D NTO d 869     -12.715  20.484 -16.617  0.00  0.00    -0.572 OA
ATOM     28  C51 NTO d 869      -4.767  16.870 -23.802  0.00  0.00     0.091 C 
ATOM     29  C5F NTO d 869      -5.641  14.305 -22.852  0.00  0.00     0.081 C 
ATOM     30  C59 NTO d 869      -6.540  15.140 -23.764  0.00  0.00     0.083 C 
ATOM     31  C21 NTO d 869     -17.339  19.451 -18.321  0.00  0.00     0.152 C 
ATOM     32  C26 NTO d 869     -17.904  17.254 -19.270  0.00  0.00     0.092 C 
ATOM     33  O47 NTO d 869     -10.283  20.855 -25.229  0.00  0.00    -0.390 OA
ATOM     34  O1J NTO d 869     -22.586  16.284 -20.948  0.00  0.00    -0.296 OA
ATOM     35  C5N NTO d 869      -2.277  13.909 -24.189  0.00  0.00     0.007 C 
ATOM     36  O3K NTO d 869     -11.169  23.600 -22.276  0.00  0.00    -0.296 OA
ATOM     37  O5I NTO d 869      -7.175  12.008 -21.131  0.00  0.00    -0.296 OA
ATOM     38  S5H NTO d 869      -5.801  12.029 -21.731  0.00  0.00     0.156 S 
ATOM     39  C39 NTO d 869     -12.791  20.193 -20.284  0.00  0.00     0.108 C 
ATOM     40  C1K NTO d 869     -19.775  17.004 -17.004  0.00  0.00     0.150 C 
ATOM     41  C2C NTO d 869     -15.896  18.581 -20.007  0.00  0.00     0.160 C 
ATOM     42  O19 NTO d 869     -19.458  17.969 -10.756  0.00  0.00    -0.572 OA
ATOM     43  N5G NTO d 869      -5.841  12.874 -23.125  0.00  0.00    -0.210 NA
ATOM     44  C33 NTO d 869     -14.943  18.949 -23.219  0.00  0.00     0.067 C 
ATOM     45  O2D NTO d 869     -14.520  18.460 -20.406  0.00  0.00    -0.348 OA
ATOM     46  C12 NTO d 869     -21.741  18.277 -15.341  0.00  0.00     0.089 C 
ATOM     47  C49 NTO d 869      -8.545  19.216 -24.874  0.00  0.00     0.134 C 
ATOM     48  C53 NTO d 869      -4.454  18.340 -23.516  0.00  0.00     0.067 C 
ATOM     49  O4D NTO d 869      -8.949  20.595 -27.467  0.00  0.00    -0.572 OA
ATOM     50  O3I NTO d 869      -8.987  22.558 -21.866  0.00  0.00    -0.296 OA
ATOM     51  O10 NTO d 869     -22.197  19.537 -14.846  0.00  0.00    -0.390 OA
ATOM     52  O1A NTO d 869     -17.103  17.703 -11.387  0.00  0.00    -0.572 OA
ATOM     53  O5K NTO d 869      -5.346  10.625 -22.003  0.00  0.00    -0.296 OA
ATOM     54  O16 NTO d 869     -18.816  17.695 -13.049  0.00  0.00    -0.254 OA
ATOM     55  O56 NTO d 869      -5.658  20.681 -21.356  0.00  0.00    -0.572 OA
ATOM     56  C43 NTO d 869     -10.973  16.985 -22.419  0.00  0.00     0.206 C 
ATOM     57  O54 NTO d 869      -4.668  18.635 -22.135  0.00  0.00    -0.254 OA
ATOM     58  S55 NTO d 869      -4.381  19.936 -21.609  0.00  0.00     0.251 S 
ATOM     59  O5A NTO d 869      -7.912  14.900 -23.437  0.00  0.00    -0.391 OA
ATOM     60  O4G NTO d 869      -7.050  17.374 -24.470  0.00  0.00    -0.348 OA
ATOM     61  O3C NTO d 869     -10.881  20.422 -18.228  0.00  0.00    -0.572 OA
ATOM     62  O3M NTO d 869     -11.006  19.701 -22.297  0.00  0.00    -0.348 OA
ATOM     63  O44 NTO d 869     -11.413  15.861 -22.777  0.00  0.00    -0.646 OA
ATOM     64  C23 NTO d 869     -17.433  20.317 -17.074  0.00  0.00     0.206 C 
ATOM     65  C41 NTO d 869     -10.082  17.748 -23.387  0.00  0.00     0.152 C 
ATOM     66  O22 NTO d 869     -15.985  19.347 -18.795  0.00  0.00    -0.340 OA
ATOM     67  O1C NTO d 869     -23.316  18.226 -17.177  0.00  0.00    -0.391 OA
ATOM     68  C15 NTO d 869     -20.167  17.934 -13.446  0.00  0.00     0.067 C 
ATOM     69  N3G NTO d 869     -10.963  21.853 -20.401  0.00  0.00    -0.210 NA
ATOM     70  C40 NTO d 869     -10.666  19.142 -23.571  0.00  0.00     0.103 C 
ATOM     71  S1G NTO d 869     -22.523  16.182 -19.453  0.00  0.00     0.156 S 
ATOM     72  O1L NTO d 869     -19.218  18.249 -17.449  0.00  0.00    -0.348 OA
ATOM     73  O57 NTO d 869      -3.551  20.698 -22.599  0.00  0.00    -0.572 OA
ATOM     74  O34 NTO d 869     -15.917  19.997 -23.190  0.00  0.00    -0.254 OA
ATOM     75  O1H NTO d 869     -23.801  16.685 -18.851  0.00  0.00    -0.296 OA
ATOM     76  O27 NTO d 869     -18.375  15.930 -19.000  0.00  0.00    -0.390 OA
ATOM     77  C50 NTO d 869      -6.246  16.624 -23.548  0.00  0.00     0.095 C 
ATOM     78  O3E NTO d 869     -12.409  18.522 -18.053  0.00  0.00    -0.572 OA
ATOM     79  O25 NTO d 869     -18.526  20.885 -16.838  0.00  0.00    -0.646 OA
ATOM     80  S3H NTO d 869     -10.244  23.068 -21.223  0.00  0.00     0.156 S 
ATOM     81  S35 NTO d 869     -17.222  19.803 -23.752  0.00  0.00     0.251 S 
ATOM     82  O1I NTO d 869     -22.306  14.750 -19.059  0.00  0.00    -0.296 OA
ATOM     83  C13 NTO d 869     -20.268  18.103 -14.965  0.00  0.00     0.090 C 
ATOM     84  O58 NTO d 869      -3.622  19.788 -20.325  0.00  0.00    -0.572 OA
ATOM     85  O3A NTO d 869     -13.155  20.617 -18.965  0.00  0.00    -0.247 OA
ATOM     86  C1B NTO d 869     -21.922  18.252 -16.862  0.00  0.00     0.083 C 
ATOM     87  O4C NTO d 869      -7.817  18.424 -27.298  0.00  0.00    -0.572 OA
ATOM     88  O4E NTO d 869      -6.503  20.460 -27.625  0.00  0.00    -0.572 OA
ATOM     89  O36 NTO d 869     -18.200  19.466 -22.667  0.00  0.00    -0.572 OA
ATOM     90  O2A NTO d 869     -16.485  16.488 -21.068  0.00  0.00    -0.388 OA
ATOM     91  C30 NTO d 869     -14.022  19.658 -21.022  0.00  0.00     0.096 C 
ATOM     92  H   NTO d 869     -12.881  22.170 -21.110  0.00  0.00     0.076 H 
ATOM     93  H   NTO d 869      -3.602  14.193 -22.291  0.00  0.00     0.131 H 
ATOM     94  H   NTO d 869      -7.166  19.011 -23.242  0.00  0.00     0.133 H 
ATOM     95  H   NTO d 869     -20.404  16.721 -19.291  0.00  0.00     0.140 HD
ATOM     96  H   NTO d 869      -4.827  12.161 -19.943  0.00  0.00     0.231 HD
ATOM     97  H   NTO d 869     -11.349  21.602 -23.049  0.00  0.00     0.131 H 
ATOM     98  H   NTO d 869     -15.866  16.648 -19.114  0.00  0.00     0.094 H 
ATOM     99  H   NTO d 869     -17.308  17.566 -17.251  0.00  0.00     0.092 H 
ATOM    100  H   NTO d 869     -21.743  16.134 -17.102  0.00  0.00     0.076 H 
ATOM    101  H   NTO d 869      -9.477  24.903 -20.766  0.00  0.00     0.231 HD
ATOM    102  H   NTO d 869     -12.960  18.544 -22.479  0.00  0.00     0.090 H 
ATOM    103  H   NTO d 869      -9.208  20.706 -23.487  0.00  0.00     0.091 H 
ATOM    104  H   NTO d 869      -4.556  16.606 -24.818  0.00  0.00     0.090 H 
ATOM    105  H   NTO d 869      -5.903  14.514 -21.836  0.00  0.00     0.076 H 
ATOM    106  H   NTO d 869      -6.352  14.870 -24.783  0.00  0.00     0.089 H 
ATOM    107  H   NTO d 869     -17.907  19.900 -19.110  0.00  0.00     0.104 H 
ATOM    108  H   NTO d 869     -18.549  17.718 -19.987  0.00  0.00     0.091 H 
ATOM    109  H   NTO d 869     -10.674  20.271 -25.899  0.00  0.00     0.210 HD
ATOM    110  H   NTO d 869     -22.726  17.210 -21.203  0.00  0.00     0.231 HD
ATOM    111  H   NTO d 869      -1.902  13.529 -25.116  0.00  0.00     0.066 H 
ATOM    112  H   NTO d 869      -2.109  13.189 -23.415  0.00  0.00     0.066 H 
ATOM    113  H   NTO d 869      -1.770  14.819 -23.945  0.00  0.00     0.066 H 
ATOM    114  H   NTO d 869     -10.732  24.320 -22.757  0.00  0.00     0.231 HD
ATOM    115  H   NTO d 869      -7.158  11.506 -20.301  0.00  0.00     0.231 HD
ATOM    116  H   NTO d 869     -12.065  19.411 -20.205  0.00  0.00     0.092 H 
ATOM    117  H   NTO d 869     -19.234  16.175 -17.410  0.00  0.00     0.131 H 
ATOM    118  H   NTO d 869     -16.459  19.090 -20.761  0.00  0.00     0.133 H 
ATOM    119  H   NTO d 869      -5.101  12.542 -23.743  0.00  0.00     0.140 HD
ATOM    120  H   NTO d 869     -15.358  18.076 -22.761  0.00  0.00     0.080 H 
ATOM    121  H   NTO d 869     -14.687  18.758 -24.241  0.00  0.00     0.080 H 
ATOM    122  H   NTO d 869     -22.303  17.473 -14.914  0.00  0.00     0.091 H 
ATOM    123  H   NTO d 869      -8.995  18.553 -25.584  0.00  0.00     0.097 H 
ATOM    124  H   NTO d 869      -5.093  18.959 -24.111  0.00  0.00     0.080 H 
ATOM    125  H   NTO d 869      -3.429  18.531 -23.757  0.00  0.00     0.080 H 
ATOM    126  H   NTO d 869      -8.559  23.278 -22.355  0.00  0.00     0.231 HD
ATOM    127  H   NTO d 869     -21.675  20.250 -15.246  0.00  0.00     0.210 HD
ATOM    128  H   NTO d 869      -5.324  10.126 -21.171  0.00  0.00     0.231 HD
ATOM    129  H   NTO d 869      -8.072  15.147 -22.513  0.00  0.00     0.210 HD
ATOM    130  H   NTO d 869     -10.039  17.244 -24.330  0.00  0.00     0.104 H 
ATOM    131  H   NTO d 869     -23.429  18.211 -18.140  0.00  0.00     0.210 HD
ATOM    132  H   NTO d 869     -20.519  18.827 -12.971  0.00  0.00     0.080 H 
ATOM    133  H   NTO d 869     -20.764  17.095 -13.154  0.00  0.00     0.080 H 
ATOM    134  H   NTO d 869     -10.302  21.080 -20.317  0.00  0.00     0.140 HD
ATOM    135  H   NTO d 869     -11.534  19.059 -24.190  0.00  0.00     0.092 H 
ATOM    136  H   NTO d 869     -23.937  17.610 -19.108  0.00  0.00     0.231 HD
ATOM    137  H   NTO d 869     -17.793  15.505 -18.350  0.00  0.00     0.210 HD
ATOM    138  H   NTO d 869      -6.477  16.926 -22.548  0.00  0.00     0.091 H 
ATOM    139  H   NTO d 869     -21.479  14.429 -19.451  0.00  0.00     0.231 HD
ATOM    140  H   NTO d 869     -19.727  18.961 -15.305  0.00  0.00     0.090 H 
ATOM    141  H   NTO d 869     -21.478  19.130 -17.284  0.00  0.00     0.089 H 
ATOM    142  H   NTO d 869     -17.040  16.972 -21.699  0.00  0.00     0.210 HD
ATOM    143  H   NTO d 869     -14.779  20.413 -20.979  0.00  0.00     0.091 H 
ENDROOT
TORSDOF 46
ENDMDL
MODEL 10
REMARK VINA RESULT:      -7.7      1.713      2.040
REMARK  0 active torsions:
REMARK  status: ('A' for Active; 'I' for Inactive)
REMARK       I    between atoms: O4A_2  and  C49_47 
REMARK       I    between atoms: O4A_2  and  S4B_15 
REMARK       I    between atoms: C3F_4  and  N3G_69 
REMARK       I    between atoms: S17_5  and  O16_54 
REMARK       I    between atoms: C5L_6  and  O5M_26 
REMARK       I    between atoms: C4F_7  and  O4G_60 
REMARK       I    between atoms: N1F_9  and  C1E_19 
REMARK       I    between atoms: N1F_9  and  S1G_71 
REMARK       I    between atoms: O5J_11  and  S5H_38 
REMARK       I    between atoms: C3L_12  and  O3M_62 
REMARK       I    between atoms: C29_13  and  O2A_90 
REMARK       I    between atoms: S3B_14  and  O3A_85 
REMARK       I    between atoms: C20_18  and  O1L_72 
REMARK       I    between atoms: O3J_20  and  S3H_80 
REMARK       I    between atoms: C31_23  and  C33_44 
REMARK       I    between atoms: C46_25  and  O47_33 
REMARK       I    between atoms: O5M_26  and  C5N_35 
REMARK       I    between atoms: C51_28  and  C53_48 
REMARK       I    between atoms: C5F_29  and  N5G_43 
REMARK       I    between atoms: C59_30  and  O5A_59 
REMARK       I    between atoms: C21_31  and  C23_64 
REMARK       I    between atoms: C26_32  and  O27_76 
REMARK       I    between atoms: O1J_34  and  S1G_71 
REMARK       I    between atoms: O3K_36  and  S3H_80 
REMARK       I    between atoms: O5I_37  and  S5H_38 
REMARK       I    between atoms: S5H_38  and  O5K_53 
REMARK       I    between atoms: S5H_38  and  N5G_43 
REMARK       I    between atoms: C39_39  and  O3A_85 
REMARK       I    between atoms: C1K_40  and  O1L_72 
REMARK       I    between atoms: C2C_41  and  O2D_45 
REMARK       I    between atoms: C33_44  and  O34_74 
REMARK       I    between atoms: O2D_45  and  C30_91 
REMARK       I    between atoms: C12_46  and  O10_51 
REMARK       I    between atoms: C53_48  and  O54_57 
REMARK       I    between atoms: O3I_50  and  S3H_80 
REMARK       I    between atoms: O16_54  and  C15_68 
REMARK       I    between atoms: C43_56  and  C41_65 
REMARK       I    between atoms: O54_57  and  S55_58 
REMARK       I    between atoms: O4G_60  and  C50_77 
REMARK       I    between atoms: O3M_62  and  C40_70 
REMARK       I    between atoms: O1C_67  and  C1B_86 
REMARK       I    between atoms: C15_68  and  C13_83 
REMARK       I    between atoms: N3G_69  and  S3H_80 
REMARK       I    between atoms: S1G_71  and  O1H_75 
REMARK       I    between atoms: S1G_71  and  O1I_82 
REMARK       I    between atoms: O34_74  and  S35_81 
ROOT
ATOM      1  O42 NTO d 869     -19.698  18.910 -20.656  0.00  0.00    -0.340 OA
ATOM      2  O4A NTO d 869     -21.504  21.498 -22.541  0.00  0.00    -0.244 OA
ATOM      3  O32 NTO d 869     -15.550  21.524 -21.927  0.00  0.00    -0.349 OA
ATOM      4  C3F NTO d 869     -15.291  19.634 -23.397  0.00  0.00     0.083 C 
ATOM      5  S17 NTO d 869      -6.313  12.602 -19.654  0.00  0.00     0.251 S 
ATOM      6  C5L NTO d 869     -24.369  16.461 -18.870  0.00  0.00     0.149 C 
ATOM      7  C4F NTO d 869     -20.836  19.559 -21.243  0.00  0.00     0.161 C 
ATOM      8  O14 NTO d 869      -6.973  16.354 -18.225  0.00  0.00    -0.349 OA
ATOM      9  N1F NTO d 869      -7.010  19.926 -17.315  0.00  0.00    -0.210 NA
ATOM     10  O37 NTO d 869     -12.902  23.985 -18.811  0.00  0.00    -0.572 OA
ATOM     11  O5J NTO d 869     -23.111  14.120 -17.241  0.00  0.00    -0.296 OA
ATOM     12  C3L NTO d 869     -16.282  20.595 -22.742  0.00  0.00     0.150 C 
ATOM     13  C29 NTO d 869     -11.642  18.947 -18.530  0.00  0.00     0.110 C 
ATOM     14  S3B NTO d 869     -14.076  16.579 -22.690  0.00  0.00     0.252 S 
ATOM     15  S4B NTO d 869     -22.043  22.740 -22.078  0.00  0.00     0.252 S 
ATOM     16  O24 NTO d 869      -9.650  16.789 -22.258  0.00  0.00    -0.646 OA
ATOM     17  O45 NTO d 869     -16.882  18.393 -19.979  0.00  0.00    -0.646 OA
ATOM     18  C20 NTO d 869      -9.440  18.125 -19.347  0.00  0.00     0.103 C 
ATOM     19  C1E NTO d 869      -6.421  18.601 -17.544  0.00  0.00     0.081 C 
ATOM     20  O3J NTO d 869     -16.503  18.895 -26.828  0.00  0.00    -0.296 OA
ATOM     21  O38 NTO d 869     -11.946  24.575 -20.993  0.00  0.00    -0.572 OA
ATOM     22  O18 NTO d 869      -6.393  12.115 -18.238  0.00  0.00    -0.572 OA
ATOM     23  C31 NTO d 869     -14.918  20.853 -20.826  0.00  0.00     0.091 C 
ATOM     24  O52 NTO d 869     -24.267  16.659 -20.290  0.00  0.00    -0.349 OA
ATOM     25  C46 NTO d 869     -19.128  21.091 -22.256  0.00  0.00     0.094 C 
ATOM     26  O5M NTO d 869     -25.426  17.230 -18.284  0.00  0.00    -0.364 OA
ATOM     27  O3D NTO d 869     -13.044  15.665 -23.281  0.00  0.00    -0.572 OA
ATOM     28  C51 NTO d 869     -23.794  17.969 -20.642  0.00  0.00     0.091 C 
ATOM     29  C5F NTO d 869     -23.035  16.724 -18.169  0.00  0.00     0.081 C 
ATOM     30  C59 NTO d 869     -22.493  18.106 -18.538  0.00  0.00     0.083 C 
ATOM     31  C21 NTO d 869      -9.853  18.608 -20.729  0.00  0.00     0.152 C 
ATOM     32  C26 NTO d 869     -10.128  19.025 -18.321  0.00  0.00     0.092 C 
ATOM     33  O47 NTO d 869     -18.860  22.445 -22.635  0.00  0.00    -0.390 OA
ATOM     34  O1J NTO d 869      -6.865  21.985 -15.818  0.00  0.00    -0.296 OA
ATOM     35  C5N NTO d 869     -26.660  16.523 -18.448  0.00  0.00     0.007 C 
ATOM     36  O3K NTO d 869     -16.342  20.964 -25.552  0.00  0.00    -0.296 OA
ATOM     37  O5I NTO d 869     -21.313  15.124 -15.917  0.00  0.00    -0.296 OA
ATOM     38  S5H NTO d 869     -22.786  15.142 -16.193  0.00  0.00     0.156 S 
ATOM     39  C39 NTO d 869     -14.609  18.840 -22.282  0.00  0.00     0.108 C 
ATOM     40  C1K NTO d 869      -7.531  17.660 -18.015  0.00  0.00     0.150 C 
ATOM     41  C2C NTO d 869     -12.005  19.301 -19.975  0.00  0.00     0.160 C 
ATOM     42  O19 NTO d 869      -4.951  12.314 -20.212  0.00  0.00    -0.572 OA
ATOM     43  N5G NTO d 869     -23.213  16.629 -16.713  0.00  0.00    -0.210 NA
ATOM     44  C33 NTO d 869     -14.177  21.878 -19.962  0.00  0.00     0.067 C 
ATOM     45  O2D NTO d 869     -13.417  19.100 -20.156  0.00  0.00    -0.348 OA
ATOM     46  C12 NTO d 869      -4.859  17.299 -19.003  0.00  0.00     0.089 C 
ATOM     47  C49 NTO d 869     -20.520  21.008 -21.627  0.00  0.00     0.134 C 
ATOM     48  C53 NTO d 869     -23.703  18.022 -22.169  0.00  0.00     0.067 C 
ATOM     49  O4D NTO d 869     -21.053  23.840 -22.320  0.00  0.00    -0.572 OA
ATOM     50  O3I NTO d 869     -18.272  19.484 -25.238  0.00  0.00    -0.296 OA
ATOM     51  O10 NTO d 869      -4.031  17.396 -20.164  0.00  0.00    -0.390 OA
ATOM     52  O1A NTO d 869      -7.355  11.907 -20.476  0.00  0.00    -0.572 OA
ATOM     53  O5K NTO d 869     -23.540  14.808 -14.940  0.00  0.00    -0.296 OA
ATOM     54  O16 NTO d 869      -6.557  14.013 -19.686  0.00  0.00    -0.254 OA
ATOM     55  O56 NTO d 869     -21.314  17.244 -24.466  0.00  0.00    -0.572 OA
ATOM     56  C43 NTO d 869     -17.677  19.116 -19.337  0.00  0.00     0.206 C 
ATOM     57  O54 NTO d 869     -22.868  16.970 -22.654  0.00  0.00    -0.254 OA
ATOM     58  S55 NTO d 869     -22.679  16.773 -24.060  0.00  0.00     0.251 S 
ATOM     59  O5A NTO d 869     -21.175  18.264 -18.003  0.00  0.00    -0.391 OA
ATOM     60  O4G NTO d 869     -21.975  19.561 -20.371  0.00  0.00    -0.348 OA
ATOM     61  O3C NTO d 869     -15.376  16.376 -23.410  0.00  0.00    -0.572 OA
ATOM     62  O3M NTO d 869     -17.143  19.802 -21.914  0.00  0.00    -0.348 OA
ATOM     63  O44 NTO d 869     -17.628  19.274 -18.090  0.00  0.00    -0.646 OA
ATOM     64  C23 NTO d 869      -9.087  17.793 -21.760  0.00  0.00     0.206 C 
ATOM     65  C41 NTO d 869     -18.757  19.854 -20.113  0.00  0.00     0.152 C 
ATOM     66  O22 NTO d 869     -11.275  18.486 -20.906  0.00  0.00    -0.340 OA
ATOM     67  O1C NTO d 869      -4.265  19.494 -18.177  0.00  0.00    -0.391 OA
ATOM     68  C15 NTO d 869      -5.491  14.940 -19.470  0.00  0.00     0.067 C 
ATOM     69  N3G NTO d 869     -16.004  18.733 -24.321  0.00  0.00    -0.210 NA
ATOM     70  C40 NTO d 869     -18.089  20.636 -21.234  0.00  0.00     0.103 C 
ATOM     71  S1G NTO d 869      -6.291  20.614 -16.025  0.00  0.00     0.156 S 
ATOM     72  O1L NTO d 869      -8.011  18.200 -19.254  0.00  0.00    -0.348 OA
ATOM     73  O57 NTO d 869     -23.715  17.552 -24.813  0.00  0.00    -0.572 OA
ATOM     74  O34 NTO d 869     -13.127  22.520 -20.693  0.00  0.00    -0.254 OA
ATOM     75  O1H NTO d 869      -4.815  20.708 -16.270  0.00  0.00    -0.296 OA
ATOM     76  O27 NTO d 869      -9.813  18.584 -16.997  0.00  0.00    -0.390 OA
ATOM     77  C50 NTO d 869     -22.414  18.231 -20.059  0.00  0.00     0.095 C 
ATOM     78  O3E NTO d 869     -14.260  16.251 -21.238  0.00  0.00    -0.572 OA
ATOM     79  O25 NTO d 869      -7.922  18.159 -22.045  0.00  0.00    -0.646 OA
ATOM     80  S3H NTO d 869     -16.795  19.536 -25.504  0.00  0.00     0.156 S 
ATOM     81  S35 NTO d 869     -12.246  23.450 -20.049  0.00  0.00     0.251 S 
ATOM     82  O1I NTO d 869      -6.550  19.774 -14.809  0.00  0.00    -0.296 OA
ATOM     83  C13 NTO d 869      -6.030  16.364 -19.309  0.00  0.00     0.090 C 
ATOM     84  O58 NTO d 869     -22.821  15.314 -24.373  0.00  0.00    -0.572 OA
ATOM     85  O3A NTO d 869     -13.646  17.937 -22.837  0.00  0.00    -0.247 OA
ATOM     86  C1B NTO d 869      -5.359  18.700 -18.639  0.00  0.00     0.083 C 
ATOM     87  O4C NTO d 869     -22.344  22.643 -20.611  0.00  0.00    -0.572 OA
ATOM     88  O4E NTO d 869     -23.311  23.021 -22.824  0.00  0.00    -0.572 OA
ATOM     89  O36 NTO d 869     -10.966  22.764 -19.675  0.00  0.00    -0.572 OA
ATOM     90  O2A NTO d 869     -12.289  19.855 -17.637  0.00  0.00    -0.388 OA
ATOM     91  C30 NTO d 869     -13.926  19.800 -21.302  0.00  0.00     0.096 C 
ATOM     92  H   NTO d 869     -14.558  20.170 -23.964  0.00  0.00     0.076 H 
ATOM     93  H   NTO d 869     -24.618  15.431 -18.723  0.00  0.00     0.131 H 
ATOM     94  H   NTO d 869     -21.070  18.992 -22.120  0.00  0.00     0.133 H 
ATOM     95  H   NTO d 869      -8.010  19.830 -17.138  0.00  0.00     0.140 HD
ATOM     96  H   NTO d 869     -22.855  13.239 -16.925  0.00  0.00     0.231 HD
ATOM     97  H   NTO d 869     -16.849  21.139 -23.470  0.00  0.00     0.131 H 
ATOM     98  H   NTO d 869     -11.967  17.948 -18.331  0.00  0.00     0.094 H 
ATOM     99  H   NTO d 869      -9.731  17.112 -19.165  0.00  0.00     0.092 H 
ATOM    100  H   NTO d 869      -5.974  18.236 -16.643  0.00  0.00     0.076 H 
ATOM    101  H   NTO d 869     -16.973  19.372 -27.529  0.00  0.00     0.231 HD
ATOM    102  H   NTO d 869     -15.682  20.364 -20.259  0.00  0.00     0.090 H 
ATOM    103  H   NTO d 869     -19.084  20.463 -23.120  0.00  0.00     0.091 H 
ATOM    104  H   NTO d 869     -24.464  18.709 -20.255  0.00  0.00     0.090 H 
ATOM    105  H   NTO d 869     -22.328  15.987 -18.490  0.00  0.00     0.076 H 
ATOM    106  H   NTO d 869     -23.145  18.855 -18.139  0.00  0.00     0.089 H 
ATOM    107  H   NTO d 869      -9.616  19.645 -20.848  0.00  0.00     0.104 H 
ATOM    108  H   NTO d 869      -9.788  20.032 -18.447  0.00  0.00     0.091 H 
ATOM    109  H   NTO d 869     -18.900  23.014 -21.850  0.00  0.00     0.210 HD
ATOM    110  H   NTO d 869      -6.696  22.528 -16.603  0.00  0.00     0.231 HD
ATOM    111  H   NTO d 869     -27.456  17.090 -18.013  0.00  0.00     0.066 H 
ATOM    112  H   NTO d 869     -26.593  15.572 -17.963  0.00  0.00     0.066 H 
ATOM    113  H   NTO d 869     -26.852  16.379 -19.491  0.00  0.00     0.066 H 
ATOM    114  H   NTO d 869     -16.817  21.431 -26.257  0.00  0.00     0.231 HD
ATOM    115  H   NTO d 869     -21.052  14.242 -15.608  0.00  0.00     0.231 HD
ATOM    116  H   NTO d 869     -15.349  18.273 -21.756  0.00  0.00     0.092 H 
ATOM    117  H   NTO d 869      -8.324  17.576 -17.301  0.00  0.00     0.131 H 
ATOM    118  H   NTO d 869     -11.748  20.322 -20.158  0.00  0.00     0.133 H 
ATOM    119  H   NTO d 869     -24.191  16.800 -16.480  0.00  0.00     0.140 HD
ATOM    120  H   NTO d 869     -13.756  21.379 -19.115  0.00  0.00     0.080 H 
ATOM    121  H   NTO d 869     -14.878  22.627 -19.655  0.00  0.00     0.080 H 
ATOM    122  H   NTO d 869      -4.310  16.903 -18.175  0.00  0.00     0.091 H 
ATOM    123  H   NTO d 869     -20.537  21.612 -20.744  0.00  0.00     0.097 H 
ATOM    124  H   NTO d 869     -23.292  18.964 -22.465  0.00  0.00     0.080 H 
ATOM    125  H   NTO d 869     -24.684  17.904 -22.580  0.00  0.00     0.080 H 
ATOM    126  H   NTO d 869     -18.743  19.960 -25.939  0.00  0.00     0.231 HD
ATOM    127  H   NTO d 869      -4.548  17.758 -20.901  0.00  0.00     0.210 HD
ATOM    128  H   NTO d 869     -23.283  13.923 -14.635  0.00  0.00     0.231 HD
ATOM    129  H   NTO d 869     -20.593  17.581 -18.371  0.00  0.00     0.210 HD
ATOM    130  H   NTO d 869     -19.287  20.523 -19.468  0.00  0.00     0.104 H 
ATOM    131  H   NTO d 869      -4.583  20.381 -17.947  0.00  0.00     0.210 HD
ATOM    132  H   NTO d 869      -4.826  14.910 -20.308  0.00  0.00     0.080 H 
ATOM    133  H   NTO d 869      -4.975  14.666 -18.573  0.00  0.00     0.080 H 
ATOM    134  H   NTO d 869     -16.682  18.189 -23.786  0.00  0.00     0.140 HD
ATOM    135  H   NTO d 869     -17.600  21.483 -20.802  0.00  0.00     0.092 H 
ATOM    136  H   NTO d 869      -4.651  21.252 -17.056  0.00  0.00     0.231 HD
ATOM    137  H   NTO d 869     -10.119  17.670 -16.879  0.00  0.00     0.210 HD
ATOM    138  H   NTO d 869     -21.727  17.523 -20.473  0.00  0.00     0.091 H 
ATOM    139  H   NTO d 869      -7.506  19.716 -14.654  0.00  0.00     0.231 HD
ATOM    140  H   NTO d 869      -6.514  16.706 -20.200  0.00  0.00     0.090 H 
ATOM    141  H   NTO d 869      -5.790  19.157 -19.505  0.00  0.00     0.089 H 
ATOM    142  H   NTO d 869     -11.990  20.759 -17.822  0.00  0.00     0.210 HD
ATOM    143  H   NTO d 869     -13.111  20.263 -21.819  0.00  0.00     0.091 H 
ENDROOT
TORSDOF 46
ENDMDL
MODEL 11
REMARK VINA RESULT:      -7.7      2.883     13.956
REMARK  0 active torsions:
REMARK  status: ('A' for Active; 'I' for Inactive)
REMARK       I    between atoms: O4A_2  and  C49_47 
REMARK       I    between atoms: O4A_2  and  S4B_15 
REMARK       I    between atoms: C3F_4  and  N3G_69 
REMARK       I    between atoms: S17_5  and  O16_54 
REMARK       I    between atoms: C5L_6  and  O5M_26 
REMARK       I    between atoms: C4F_7  and  O4G_60 
REMARK       I    between atoms: N1F_9  and  C1E_19 
REMARK       I    between atoms: N1F_9  and  S1G_71 
REMARK       I    between atoms: O5J_11  and  S5H_38 
REMARK       I    between atoms: C3L_12  and  O3M_62 
REMARK       I    between atoms: C29_13  and  O2A_90 
REMARK       I    between atoms: S3B_14  and  O3A_85 
REMARK       I    between atoms: C20_18  and  O1L_72 
REMARK       I    between atoms: O3J_20  and  S3H_80 
REMARK       I    between atoms: C31_23  and  C33_44 
REMARK       I    between atoms: C46_25  and  O47_33 
REMARK       I    between atoms: O5M_26  and  C5N_35 
REMARK       I    between atoms: C51_28  and  C53_48 
REMARK       I    between atoms: C5F_29  and  N5G_43 
REMARK       I    between atoms: C59_30  and  O5A_59 
REMARK       I    between atoms: C21_31  and  C23_64 
REMARK       I    between atoms: C26_32  and  O27_76 
REMARK       I    between atoms: O1J_34  and  S1G_71 
REMARK       I    between atoms: O3K_36  and  S3H_80 
REMARK       I    between atoms: O5I_37  and  S5H_38 
REMARK       I    between atoms: S5H_38  and  O5K_53 
REMARK       I    between atoms: S5H_38  and  N5G_43 
REMARK       I    between atoms: C39_39  and  O3A_85 
REMARK       I    between atoms: C1K_40  and  O1L_72 
REMARK       I    between atoms: C2C_41  and  O2D_45 
REMARK       I    between atoms: C33_44  and  O34_74 
REMARK       I    between atoms: O2D_45  and  C30_91 
REMARK       I    between atoms: C12_46  and  O10_51 
REMARK       I    between atoms: C53_48  and  O54_57 
REMARK       I    between atoms: O3I_50  and  S3H_80 
REMARK       I    between atoms: O16_54  and  C15_68 
REMARK       I    between atoms: C43_56  and  C41_65 
REMARK       I    between atoms: O54_57  and  S55_58 
REMARK       I    between atoms: O4G_60  and  C50_77 
REMARK       I    between atoms: O3M_62  and  C40_70 
REMARK       I    between atoms: O1C_67  and  C1B_86 
REMARK       I    between atoms: C15_68  and  C13_83 
REMARK       I    between atoms: N3G_69  and  S3H_80 
REMARK       I    between atoms: S1G_71  and  O1H_75 
REMARK       I    between atoms: S1G_71  and  O1I_82 
REMARK       I    between atoms: O34_74  and  S35_81 
ROOT
ATOM      1  O42 NTO d 869     -11.804  18.637 -20.656  0.00  0.00    -0.340 OA
ATOM      2  O4A NTO d 869     -10.277  21.976 -20.498  0.00  0.00    -0.244 OA
ATOM      3  O32 NTO d 869     -16.102  21.146 -21.597  0.00  0.00    -0.349 OA
ATOM      4  C3F NTO d 869     -16.534  20.462 -19.329  0.00  0.00     0.083 C 
ATOM      5  S17 NTO d 869     -24.898  11.856 -19.062  0.00  0.00     0.251 S 
ATOM      6  C5L NTO d 869      -6.923  16.002 -20.172  0.00  0.00     0.149 C 
ATOM      7  C4F NTO d 869     -10.757  19.598 -20.456  0.00  0.00     0.161 C 
ATOM      8  O14 NTO d 869     -24.088  14.100 -22.358  0.00  0.00    -0.349 OA
ATOM      9  N1F NTO d 869     -23.962  16.452 -25.195  0.00  0.00    -0.210 NA
ATOM     10  O37 NTO d 869     -18.344  21.088 -25.810  0.00  0.00    -0.572 OA
ATOM     11  O5J NTO d 869      -7.941  13.057 -20.217  0.00  0.00    -0.296 OA
ATOM     12  C3L NTO d 869     -15.474  20.935 -20.323  0.00  0.00     0.150 C 
ATOM     13  C29 NTO d 869     -19.518  16.756 -23.182  0.00  0.00     0.110 C 
ATOM     14  S3B NTO d 869     -17.624  17.483 -18.210  0.00  0.00     0.252 S 
ATOM     15  S4B NTO d 869      -9.693  22.751 -21.548  0.00  0.00     0.252 S 
ATOM     16  O24 NTO d 869     -21.958  17.033 -19.121  0.00  0.00    -0.646 OA
ATOM     17  O45 NTO d 869     -14.505  17.591 -21.172  0.00  0.00    -0.646 OA
ATOM     18  C20 NTO d 869     -21.800  16.389 -22.262  0.00  0.00     0.103 C 
ATOM     19  C1E NTO d 869     -24.564  15.468 -24.287  0.00  0.00     0.081 C 
ATOM     20  O3J NTO d 869     -15.770  21.974 -16.025  0.00  0.00    -0.296 OA
ATOM     21  O38 NTO d 869     -19.579  22.762 -24.508  0.00  0.00    -0.572 OA
ATOM     22  O18 NTO d 869     -24.631  10.642 -19.899  0.00  0.00    -0.572 OA
ATOM     23  C31 NTO d 869     -16.581  19.908 -22.145  0.00  0.00     0.091 C 
ATOM     24  O52 NTO d 869      -7.209  16.984 -19.163  0.00  0.00    -0.349 OA
ATOM     25  C46 NTO d 869     -12.593  21.285 -20.722  0.00  0.00     0.094 C 
ATOM     26  O5M NTO d 869      -5.804  16.367 -20.991  0.00  0.00    -0.364 OA
ATOM     27  O3D NTO d 869     -18.716  17.006 -17.299  0.00  0.00    -0.572 OA
ATOM     28  C51 NTO d 869      -7.733  18.208 -19.703  0.00  0.00     0.091 C 
ATOM     29  C5F NTO d 869      -8.157  15.693 -21.022  0.00  0.00     0.081 C 
ATOM     30  C59 NTO d 869      -8.752  16.979 -21.597  0.00  0.00     0.083 C 
ATOM     31  C21 NTO d 869     -21.574  17.622 -21.400  0.00  0.00     0.152 C 
ATOM     32  C26 NTO d 869     -20.993  16.571 -23.546  0.00  0.00     0.092 C 
ATOM     33  O47 NTO d 869     -12.918  22.576 -21.246  0.00  0.00    -0.390 OA
ATOM     34  O1J NTO d 869     -23.928  17.223 -27.625  0.00  0.00    -0.296 OA
ATOM     35  C5N NTO d 869      -4.597  15.994 -20.319  0.00  0.00     0.007 C 
ATOM     36  O3K NTO d 869     -15.781  22.883 -18.286  0.00  0.00    -0.296 OA
ATOM     37  O5I NTO d 869      -9.561  12.943 -22.050  0.00  0.00    -0.296 OA
ATOM     38  S5H NTO d 869      -8.136  13.241 -21.693  0.00  0.00     0.156 S 
ATOM     39  C39 NTO d 869     -17.060  19.112 -19.820  0.00  0.00     0.108 C 
ATOM     40  C1K NTO d 869     -23.518  15.077 -23.243  0.00  0.00     0.150 C 
ATOM     41  C2C NTO d 869     -19.347  17.917 -22.199  0.00  0.00     0.160 C 
ATOM     42  O19 NTO d 869     -26.318  11.838 -18.581  0.00  0.00    -0.572 OA
ATOM     43  N5G NTO d 869      -7.792  14.779 -22.114  0.00  0.00    -0.210 NA
ATOM     44  C33 NTO d 869     -17.212  20.168 -23.516  0.00  0.00     0.067 C 
ATOM     45  O2D NTO d 869     -17.969  17.978 -21.794  0.00  0.00    -0.348 OA
ATOM     46  C12 NTO d 869     -26.292  15.144 -22.505  0.00  0.00     0.089 C 
ATOM     47  C49 NTO d 869     -11.131  20.965 -21.037  0.00  0.00     0.134 C 
ATOM     48  C53 NTO d 869      -8.021  19.137 -18.521  0.00  0.00     0.067 C 
ATOM     49  O4D NTO d 869     -10.714  23.699 -22.104  0.00  0.00    -0.572 OA
ATOM     50  O3I NTO d 869     -13.815  21.664 -17.470  0.00  0.00    -0.296 OA
ATOM     51  O10 NTO d 869     -27.264  15.833 -21.715  0.00  0.00    -0.390 OA
ATOM     52  O1A NTO d 869     -23.965  11.864 -17.889  0.00  0.00    -0.572 OA
ATOM     53  O5K NTO d 869      -7.224  12.300 -22.423  0.00  0.00    -0.296 OA
ATOM     54  O16 NTO d 869     -24.671  13.033 -19.847  0.00  0.00    -0.254 OA
ATOM     55  O56 NTO d 869     -10.681  19.657 -16.461  0.00  0.00    -0.572 OA
ATOM     56  C43 NTO d 869     -13.639  17.864 -22.035  0.00  0.00     0.206 C 
ATOM     57  O54 NTO d 869      -8.904  18.504 -17.594  0.00  0.00    -0.254 OA
ATOM     58  S55 NTO d 869      -9.272  19.152 -16.371  0.00  0.00     0.251 S 
ATOM     59  O5A NTO d 869      -9.991  16.684 -22.250  0.00  0.00    -0.391 OA
ATOM     60  O4G NTO d 869      -9.514  19.183 -21.042  0.00  0.00    -0.348 OA
ATOM     61  O3C NTO d 869     -16.426  17.848 -17.385  0.00  0.00    -0.572 OA
ATOM     62  O3M NTO d 869     -14.507  19.881 -20.430  0.00  0.00    -0.348 OA
ATOM     63  O44 NTO d 869     -13.528  17.257 -23.131  0.00  0.00    -0.646 OA
ATOM     64  C23 NTO d 869     -22.460  17.505 -20.169  0.00  0.00     0.206 C 
ATOM     65  C41 NTO d 869     -12.674  19.002 -21.743  0.00  0.00     0.152 C 
ATOM     66  O22 NTO d 869     -20.185  17.745 -21.044  0.00  0.00    -0.340 OA
ATOM     67  O1C NTO d 869     -26.792  16.381 -24.523  0.00  0.00    -0.391 OA
ATOM     68  C15 NTO d 869     -25.707  13.566 -20.674  0.00  0.00     0.067 C 
ATOM     69  N3G NTO d 869     -15.939  20.334 -17.986  0.00  0.00    -0.210 NA
ATOM     70  C40 NTO d 869     -13.488  20.234 -21.374  0.00  0.00     0.103 C 
ATOM     71  S1G NTO d 869     -24.513  16.192 -26.706  0.00  0.00     0.156 S 
ATOM     72  O1L NTO d 869     -23.206  16.278 -22.522  0.00  0.00    -0.348 OA
ATOM     73  O57 NTO d 869      -8.347  20.307 -16.126  0.00  0.00    -0.572 OA
ATOM     74  O34 NTO d 869     -18.352  21.026 -23.415  0.00  0.00    -0.254 OA
ATOM     75  O1H NTO d 869     -26.010  16.289 -26.712  0.00  0.00    -0.296 OA
ATOM     76  O27 NTO d 869     -21.130  15.414 -24.376  0.00  0.00    -0.390 OA
ATOM     77  C50 NTO d 869      -9.029  17.964 -20.462  0.00  0.00     0.095 C 
ATOM     78  O3E NTO d 869     -17.250  16.383 -19.160  0.00  0.00    -0.572 OA
ATOM     79  O25 NTO d 869     -23.654  17.871 -20.273  0.00  0.00    -0.646 OA
ATOM     80  S3H NTO d 869     -15.314  21.739 -17.435  0.00  0.00     0.156 S 
ATOM     81  S35 NTO d 869     -19.150  21.327 -24.568  0.00  0.00     0.251 S 
ATOM     82  O1I NTO d 869     -24.092  14.824 -27.156  0.00  0.00    -0.296 OA
ATOM     83  C13 NTO d 869     -25.163  14.666 -21.590  0.00  0.00     0.090 C 
ATOM     84  O58 NTO d 869      -9.159  18.170 -15.244  0.00  0.00    -0.572 OA
ATOM     85  O3A NTO d 869     -18.079  18.628 -18.938  0.00  0.00    -0.247 OA
ATOM     86  C1B NTO d 869     -25.760  16.101 -23.574  0.00  0.00     0.083 C 
ATOM     87  O4C NTO d 869      -9.204  21.839 -22.635  0.00  0.00    -0.572 OA
ATOM     88  O4E NTO d 869      -8.533  23.520 -20.991  0.00  0.00    -0.572 OA
ATOM     89  O36 NTO d 869     -20.366  20.449 -24.590  0.00  0.00    -0.572 OA
ATOM     90  O2A NTO d 869     -18.768  17.019 -24.369  0.00  0.00    -0.388 OA
ATOM     91  C30 NTO d 869     -17.618  19.256 -21.240  0.00  0.00     0.096 C 
ATOM     92  H   NTO d 869     -17.338  21.165 -19.265  0.00  0.00     0.076 H 
ATOM     93  H   NTO d 869      -6.648  15.106 -19.656  0.00  0.00     0.131 H 
ATOM     94  H   NTO d 869     -10.633  19.674 -19.396  0.00  0.00     0.133 H 
ATOM     95  H   NTO d 869     -22.947  16.353 -25.180  0.00  0.00     0.140 HD
ATOM     96  H   NTO d 869      -8.147  12.140 -19.975  0.00  0.00     0.231 HD
ATOM     97  H   NTO d 869     -15.010  21.846 -20.006  0.00  0.00     0.131 H 
ATOM     98  H   NTO d 869     -19.162  15.860 -22.718  0.00  0.00     0.094 H 
ATOM     99  H   NTO d 869     -21.481  15.489 -21.779  0.00  0.00     0.092 H 
ATOM    100  H   NTO d 869     -24.889  14.609 -24.837  0.00  0.00     0.076 H 
ATOM    101  H   NTO d 869     -15.398  22.808 -15.699  0.00  0.00     0.231 HD
ATOM    102  H   NTO d 869     -15.746  19.245 -22.233  0.00  0.00     0.090 H 
ATOM    103  H   NTO d 869     -12.743  21.281 -19.663  0.00  0.00     0.091 H 
ATOM    104  H   NTO d 869      -7.025  18.634 -20.383  0.00  0.00     0.090 H 
ATOM    105  H   NTO d 869      -8.893  15.229 -20.399  0.00  0.00     0.076 H 
ATOM    106  H   NTO d 869      -8.061  17.403 -22.295  0.00  0.00     0.089 H 
ATOM    107  H   NTO d 869     -21.831  18.508 -21.941  0.00  0.00     0.104 H 
ATOM    108  H   NTO d 869     -21.354  17.429 -24.075  0.00  0.00     0.091 H 
ATOM    109  H   NTO d 869     -12.782  22.579 -22.206  0.00  0.00     0.210 HD
ATOM    110  H   NTO d 869     -24.201  18.107 -27.334  0.00  0.00     0.231 HD
ATOM    111  H   NTO d 869      -3.755  16.262 -20.923  0.00  0.00     0.066 H 
ATOM    112  H   NTO d 869      -4.593  14.938 -20.151  0.00  0.00     0.066 H 
ATOM    113  H   NTO d 869      -4.540  16.505 -19.380  0.00  0.00     0.066 H 
ATOM    114  H   NTO d 869     -15.404  23.711 -17.950  0.00  0.00     0.231 HD
ATOM    115  H   NTO d 869      -9.772  12.029 -21.802  0.00  0.00     0.231 HD
ATOM    116  H   NTO d 869     -16.254  18.408 -19.832  0.00  0.00     0.092 H 
ATOM    117  H   NTO d 869     -22.639  14.657 -23.686  0.00  0.00     0.131 H 
ATOM    118  H   NTO d 869     -19.634  18.827 -22.681  0.00  0.00     0.133 H 
ATOM    119  H   NTO d 869      -6.793  14.861 -22.303  0.00  0.00     0.140 HD
ATOM    120  H   NTO d 869     -17.516  19.235 -23.941  0.00  0.00     0.080 H 
ATOM    121  H   NTO d 869     -16.483  20.650 -24.135  0.00  0.00     0.080 H 
ATOM    122  H   NTO d 869     -26.727  14.294 -22.988  0.00  0.00     0.091 H 
ATOM    123  H   NTO d 869     -11.005  20.937 -22.100  0.00  0.00     0.097 H 
ATOM    124  H   NTO d 869      -8.474  20.036 -18.882  0.00  0.00     0.080 H 
ATOM    125  H   NTO d 869      -7.100  19.364 -18.025  0.00  0.00     0.080 H 
ATOM    126  H   NTO d 869     -13.442  22.498 -17.144  0.00  0.00     0.231 HD
ATOM    127  H   NTO d 869     -26.849  16.598 -21.288  0.00  0.00     0.210 HD
ATOM    128  H   NTO d 869      -7.432  11.386 -22.170  0.00  0.00     0.231 HD
ATOM    129  H   NTO d 869     -10.610  16.301 -21.610  0.00  0.00     0.210 HD
ATOM    130  H   NTO d 869     -12.070  19.208 -22.602  0.00  0.00     0.104 H 
ATOM    131  H   NTO d 869     -26.454  16.988 -25.200  0.00  0.00     0.210 HD
ATOM    132  H   NTO d 869     -26.475  13.978 -20.052  0.00  0.00     0.080 H 
ATOM    133  H   NTO d 869     -26.101  12.778 -21.281  0.00  0.00     0.080 H 
ATOM    134  H   NTO d 869     -15.193  19.638 -18.024  0.00  0.00     0.140 HD
ATOM    135  H   NTO d 869     -13.924  20.624 -22.270  0.00  0.00     0.092 H 
ATOM    136  H   NTO d 869     -26.277  17.174 -26.421  0.00  0.00     0.231 HD
ATOM    137  H   NTO d 869     -20.805  14.634 -23.901  0.00  0.00     0.210 HD
ATOM    138  H   NTO d 869      -9.758  17.578 -19.780  0.00  0.00     0.091 H 
ATOM    139  H   NTO d 869     -23.124  14.766 -27.151  0.00  0.00     0.231 HD
ATOM    140  H   NTO d 869     -24.801  15.503 -21.031  0.00  0.00     0.090 H 
ATOM    141  H   NTO d 869     -25.448  17.013 -23.109  0.00  0.00     0.089 H 
ATOM    142  H   NTO d 869     -19.095  17.832 -24.786  0.00  0.00     0.210 HD
ATOM    143  H   NTO d 869     -18.496  19.865 -21.182  0.00  0.00     0.091 H 
ENDROOT
TORSDOF 46
ENDMDL
MODEL 12
REMARK VINA RESULT:      -7.7      3.512     13.961
REMARK  0 active torsions:
REMARK  status: ('A' for Active; 'I' for Inactive)
REMARK       I    between atoms: O4A_2  and  C49_47 
REMARK       I    between atoms: O4A_2  and  S4B_15 
REMARK       I    between atoms: C3F_4  and  N3G_69 
REMARK       I    between atoms: S17_5  and  O16_54 
REMARK       I    between atoms: C5L_6  and  O5M_26 
REMARK       I    between atoms: C4F_7  and  O4G_60 
REMARK       I    between atoms: N1F_9  and  C1E_19 
REMARK       I    between atoms: N1F_9  and  S1G_71 
REMARK       I    between atoms: O5J_11  and  S5H_38 
REMARK       I    between atoms: C3L_12  and  O3M_62 
REMARK       I    between atoms: C29_13  and  O2A_90 
REMARK       I    between atoms: S3B_14  and  O3A_85 
REMARK       I    between atoms: C20_18  and  O1L_72 
REMARK       I    between atoms: O3J_20  and  S3H_80 
REMARK       I    between atoms: C31_23  and  C33_44 
REMARK       I    between atoms: C46_25  and  O47_33 
REMARK       I    between atoms: O5M_26  and  C5N_35 
REMARK       I    between atoms: C51_28  and  C53_48 
REMARK       I    between atoms: C5F_29  and  N5G_43 
REMARK       I    between atoms: C59_30  and  O5A_59 
REMARK       I    between atoms: C21_31  and  C23_64 
REMARK       I    between atoms: C26_32  and  O27_76 
REMARK       I    between atoms: O1J_34  and  S1G_71 
REMARK       I    between atoms: O3K_36  and  S3H_80 
REMARK       I    between atoms: O5I_37  and  S5H_38 
REMARK       I    between atoms: S5H_38  and  O5K_53 
REMARK       I    between atoms: S5H_38  and  N5G_43 
REMARK       I    between atoms: C39_39  and  O3A_85 
REMARK       I    between atoms: C1K_40  and  O1L_72 
REMARK       I    between atoms: C2C_41  and  O2D_45 
REMARK       I    between atoms: C33_44  and  O34_74 
REMARK       I    between atoms: O2D_45  and  C30_91 
REMARK       I    between atoms: C12_46  and  O10_51 
REMARK       I    between atoms: C53_48  and  O54_57 
REMARK       I    between atoms: O3I_50  and  S3H_80 
REMARK       I    between atoms: O16_54  and  C15_68 
REMARK       I    between atoms: C43_56  and  C41_65 
REMARK       I    between atoms: O54_57  and  S55_58 
REMARK       I    between atoms: O4G_60  and  C50_77 
REMARK       I    between atoms: O3M_62  and  C40_70 
REMARK       I    between atoms: O1C_67  and  C1B_86 
REMARK       I    between atoms: C15_68  and  C13_83 
REMARK       I    between atoms: N3G_69  and  S3H_80 
REMARK       I    between atoms: S1G_71  and  O1H_75 
REMARK       I    between atoms: S1G_71  and  O1I_82 
REMARK       I    between atoms: O34_74  and  S35_81 
ROOT
ATOM      1  O42 NTO d 869      -8.386  18.302 -22.657  0.00  0.00    -0.340 OA
ATOM      2  O4A NTO d 869      -6.756  20.949 -24.617  0.00  0.00    -0.244 OA
ATOM      3  O32 NTO d 869     -12.523  21.199 -23.035  0.00  0.00    -0.349 OA
ATOM      4  C3F NTO d 869     -11.974  21.595 -20.724  0.00  0.00     0.083 C 
ATOM      5  S17 NTO d 869     -19.875  16.120 -13.535  0.00  0.00     0.251 S 
ATOM      6  C5L NTO d 869      -3.927  14.970 -22.801  0.00  0.00     0.149 C 
ATOM      7  C4F NTO d 869      -7.303  18.977 -23.314  0.00  0.00     0.161 C 
ATOM      8  O14 NTO d 869     -20.439  16.606 -17.535  0.00  0.00    -0.349 OA
ATOM      9  N1F NTO d 869     -21.414  17.535 -20.967  0.00  0.00    -0.210 NA
ATOM     10  O37 NTO d 869     -16.360  20.028 -25.622  0.00  0.00    -0.572 OA
ATOM     11  O5J NTO d 869      -5.028  12.592 -21.114  0.00  0.00    -0.296 OA
ATOM     12  C3L NTO d 869     -11.421  21.363 -22.129  0.00  0.00     0.150 C 
ATOM     13  C29 NTO d 869     -16.528  17.517 -21.070  0.00  0.00     0.110 C 
ATOM     14  S3B NTO d 869     -12.641  19.666 -18.050  0.00  0.00     0.252 S 
ATOM     15  S4B NTO d 869      -6.638  21.077 -26.037  0.00  0.00     0.252 S 
ATOM     16  O24 NTO d 869     -16.963  19.964 -17.026  0.00  0.00    -0.646 OA
ATOM     17  O45 NTO d 869     -11.100  17.829 -21.623  0.00  0.00    -0.646 OA
ATOM     18  C20 NTO d 869     -18.208  18.113 -19.334  0.00  0.00     0.103 C 
ATOM     19  C1E NTO d 869     -21.622  17.170 -19.560  0.00  0.00     0.081 C 
ATOM     20  O3J NTO d 869      -9.780  24.055 -19.015  0.00  0.00    -0.296 OA
ATOM     21  O38 NTO d 869     -16.819  22.326 -24.894  0.00  0.00    -0.572 OA
ATOM     22  O18 NTO d 869     -20.063  14.648 -13.750  0.00  0.00    -0.572 OA
ATOM     23  C31 NTO d 869     -13.260  20.003 -22.736  0.00  0.00     0.091 C 
ATOM     24  O52 NTO d 869      -3.696  16.309 -22.333  0.00  0.00    -0.349 OA
ATOM     25  C46 NTO d 869      -8.977  20.813 -23.649  0.00  0.00     0.094 C 
ATOM     26  O5M NTO d 869      -3.251  14.696 -24.035  0.00  0.00    -0.364 OA
ATOM     27  O3D NTO d 869     -13.260  19.871 -16.699  0.00  0.00    -0.572 OA
ATOM     28  C51 NTO d 869      -4.332  17.307 -23.147  0.00  0.00     0.091 C 
ATOM     29  C5F NTO d 869      -5.422  14.662 -22.905  0.00  0.00     0.081 C 
ATOM     30  C59 NTO d 869      -6.134  15.718 -23.751  0.00  0.00     0.083 C 
ATOM     31  C21 NTO d 869     -17.564  19.490 -19.285  0.00  0.00     0.152 C 
ATOM     32  C26 NTO d 869     -18.024  17.569 -20.750  0.00  0.00     0.092 C 
ATOM     33  O47 NTO d 869      -9.424  21.829 -24.552  0.00  0.00    -0.390 OA
ATOM     34  O1J NTO d 869     -22.387  17.249 -23.306  0.00  0.00    -0.296 OA
ATOM     35  C5N NTO d 869      -1.895  14.338 -23.751  0.00  0.00     0.007 C 
ATOM     36  O3K NTO d 869     -10.712  23.968 -21.265  0.00  0.00    -0.296 OA
ATOM     37  O5I NTO d 869      -7.283  12.161 -21.966  0.00  0.00    -0.296 OA
ATOM     38  S5H NTO d 869      -5.828  12.219 -22.325  0.00  0.00     0.156 S 
ATOM     39  C39 NTO d 869     -12.735  20.334 -20.311  0.00  0.00     0.108 C 
ATOM     40  C1K NTO d 869     -20.251  16.981 -18.908  0.00  0.00     0.150 C 
ATOM     41  C2C NTO d 869     -15.886  18.893 -20.869  0.00  0.00     0.160 C 
ATOM     42  O19 NTO d 869     -20.949  16.640 -12.626  0.00  0.00    -0.572 OA
ATOM     43  N5G NTO d 869      -5.613  13.331 -23.500  0.00  0.00    -0.210 NA
ATOM     44  C33 NTO d 869     -14.404  19.844 -23.742  0.00  0.00     0.067 C 
ATOM     45  O2D NTO d 869     -14.467  18.771 -21.063  0.00  0.00    -0.348 OA
ATOM     46  C12 NTO d 869     -22.430  18.008 -17.345  0.00  0.00     0.089 C 
ATOM     47  C49 NTO d 869      -7.814  20.048 -24.281  0.00  0.00     0.134 C 
ATOM     48  C53 NTO d 869      -4.031  18.667 -22.514  0.00  0.00     0.067 C 
ATOM     49  O4D NTO d 869      -7.745  21.946 -26.558  0.00  0.00    -0.572 OA
ATOM     50  O3I NTO d 869      -8.658  22.733 -20.746  0.00  0.00    -0.296 OA
ATOM     51  O10 NTO d 869     -22.927  19.168 -16.673  0.00  0.00    -0.390 OA
ATOM     52  O1A NTO d 869     -18.530  16.363 -12.922  0.00  0.00    -0.572 OA
ATOM     53  O5K NTO d 869      -5.373  10.875 -22.811  0.00  0.00    -0.296 OA
ATOM     54  O16 NTO d 869     -19.943  16.796 -14.796  0.00  0.00    -0.254 OA
ATOM     55  O56 NTO d 869      -5.512  20.591 -20.127  0.00  0.00    -0.572 OA
ATOM     56  C43 NTO d 869     -10.676  17.519 -22.760  0.00  0.00     0.206 C 
ATOM     57  O54 NTO d 869      -4.463  18.688 -21.152  0.00  0.00    -0.254 OA
ATOM     58  S55 NTO d 869      -4.232  19.836 -20.327  0.00  0.00     0.251 S 
ATOM     59  O5A NTO d 869      -7.548  15.500 -23.700  0.00  0.00    -0.391 OA
ATOM     60  O4G NTO d 869      -6.459  18.075 -24.044  0.00  0.00    -0.348 OA
ATOM     61  O3C NTO d 869     -11.186  20.024 -17.979  0.00  0.00    -0.572 OA
ATOM     62  O3M NTO d 869     -10.655  20.152 -22.078  0.00  0.00    -0.348 OA
ATOM     63  O44 NTO d 869     -11.082  16.521 -23.410  0.00  0.00    -0.646 OA
ATOM     64  C23 NTO d 869     -17.840  20.090 -17.914  0.00  0.00     0.206 C 
ATOM     65  C41 NTO d 869      -9.617  18.407 -23.395  0.00  0.00     0.152 C 
ATOM     66  O22 NTO d 869     -16.153  19.402 -19.552  0.00  0.00    -0.340 OA
ATOM     67  O1C NTO d 869     -23.679  18.428 -19.373  0.00  0.00    -0.391 OA
ATOM     68  C15 NTO d 869     -21.202  17.194 -15.341  0.00  0.00     0.067 C 
ATOM     69  N3G NTO d 869     -10.868  21.868 -19.789  0.00  0.00    -0.210 NA
ATOM     70  C40 NTO d 869     -10.123  19.843 -23.371  0.00  0.00     0.103 C 
ATOM     71  S1G NTO d 869     -22.576  16.842 -21.875  0.00  0.00     0.156 S 
ATOM     72  O1L NTO d 869     -19.594  18.254 -18.990  0.00  0.00    -0.348 OA
ATOM     73  O57 NTO d 869      -3.229  20.730 -20.993  0.00  0.00    -0.572 OA
ATOM     74  O34 NTO d 869     -15.340  20.922 -23.647  0.00  0.00    -0.254 OA
ATOM     75  O1H NTO d 869     -23.922  17.289 -21.388  0.00  0.00    -0.296 OA
ATOM     76  O27 NTO d 869     -18.569  16.250 -20.841  0.00  0.00    -0.390 OA
ATOM     77  C50 NTO d 869      -5.839  17.106 -23.185  0.00  0.00     0.095 C 
ATOM     78  O3E NTO d 869     -12.775  18.226 -18.448  0.00  0.00    -0.572 OA
ATOM     79  O25 NTO d 869     -18.940  20.663 -17.738  0.00  0.00    -0.646 OA
ATOM     80  S3H NTO d 869      -9.989  23.178 -20.215  0.00  0.00     0.156 S 
ATOM     81  S35 NTO d 869     -16.538  20.927 -24.434  0.00  0.00     0.251 S 
ATOM     82  O1I NTO d 869     -22.467  15.349 -21.761  0.00  0.00    -0.296 OA
ATOM     83  C13 NTO d 869     -21.045  17.672 -16.787  0.00  0.00     0.090 C 
ATOM     84  O58 NTO d 869      -3.701  19.385 -19.000  0.00  0.00    -0.572 OA
ATOM     85  O3A NTO d 869     -13.300  20.504 -19.006  0.00  0.00    -0.247 OA
ATOM     86  C1B NTO d 869     -22.357  18.304 -18.845  0.00  0.00     0.083 C 
ATOM     87  O4C NTO d 869      -6.716  19.721 -26.673  0.00  0.00    -0.572 OA
ATOM     88  O4E NTO d 869      -5.311  21.696 -26.355  0.00  0.00    -0.572 OA
ATOM     89  O36 NTO d 869     -17.691  20.437 -23.611  0.00  0.00    -0.572 OA
ATOM     90  O2A NTO d 869     -16.348  17.098 -22.423  0.00  0.00    -0.388 OA
ATOM     91  C30 NTO d 869     -13.841  20.036 -21.329  0.00  0.00     0.096 C 
ATOM     92  H   NTO d 869     -12.632  22.439 -20.708  0.00  0.00     0.076 H 
ATOM     93  H   NTO d 869      -3.508  14.314 -22.068  0.00  0.00     0.131 H 
ATOM     94  H   NTO d 869      -6.731  19.433 -22.533  0.00  0.00     0.133 H 
ATOM     95  H   NTO d 869     -20.499  17.206 -21.274  0.00  0.00     0.140 HD
ATOM     96  H   NTO d 869      -5.161  11.927 -20.420  0.00  0.00     0.231 HD
ATOM     97  H   NTO d 869     -10.816  22.182 -22.459  0.00  0.00     0.131 H 
ATOM     98  H   NTO d 869     -16.058  16.821 -20.408  0.00  0.00     0.094 H 
ATOM     99  H   NTO d 869     -17.763  17.429 -18.643  0.00  0.00     0.092 H 
ATOM    100  H   NTO d 869     -22.198  16.271 -19.494  0.00  0.00     0.076 H 
ATOM    101  H   NTO d 869      -9.259  24.832 -19.269  0.00  0.00     0.231 HD
ATOM    102  H   NTO d 869     -12.583  19.177 -22.802  0.00  0.00     0.090 H 
ATOM    103  H   NTO d 869      -8.657  21.265 -22.733  0.00  0.00     0.091 H 
ATOM    104  H   NTO d 869      -3.963  17.242 -24.149  0.00  0.00     0.090 H 
ATOM    105  H   NTO d 869      -5.843  14.676 -21.921  0.00  0.00     0.076 H 
ATOM    106  H   NTO d 869      -5.787  15.649 -24.761  0.00  0.00     0.089 H 
ATOM    107  H   NTO d 869     -17.980  20.124 -20.041  0.00  0.00     0.104 H 
ATOM    108  H   NTO d 869     -18.528  18.207 -21.445  0.00  0.00     0.091 H 
ATOM    109  H   NTO d 869      -9.714  21.418 -25.382  0.00  0.00     0.210 HD
ATOM    110  H   NTO d 869     -22.458  18.213 -23.380  0.00  0.00     0.231 HD
ATOM    111  H   NTO d 869      -1.381  14.132 -24.667  0.00  0.00     0.066 H 
ATOM    112  H   NTO d 869      -1.878  13.468 -23.129  0.00  0.00     0.066 H 
ATOM    113  H   NTO d 869      -1.411  15.148 -23.246  0.00  0.00     0.066 H 
ATOM    114  H   NTO d 869     -10.182  24.742 -21.509  0.00  0.00     0.231 HD
ATOM    115  H   NTO d 869      -7.417  11.502 -21.268  0.00  0.00     0.231 HD
ATOM    116  H   NTO d 869     -12.053  19.509 -20.285  0.00  0.00     0.092 H 
ATOM    117  H   NTO d 869     -19.673  16.220 -19.390  0.00  0.00     0.131 H 
ATOM    118  H   NTO d 869     -16.301  19.578 -21.577  0.00  0.00     0.133 H 
ATOM    119  H   NTO d 869      -4.791  13.086 -24.050  0.00  0.00     0.140 HD
ATOM    120  H   NTO d 869     -14.913  18.924 -23.547  0.00  0.00     0.080 H 
ATOM    121  H   NTO d 869     -13.986  19.849 -24.728  0.00  0.00     0.080 H 
ATOM    122  H   NTO d 869     -23.077  17.170 -17.189  0.00  0.00     0.091 H 
ATOM    123  H   NTO d 869      -8.159  19.572 -25.176  0.00  0.00     0.097 H 
ATOM    124  H   NTO d 869      -4.545  19.431 -23.058  0.00  0.00     0.080 H 
ATOM    125  H   NTO d 869      -2.975  18.840 -22.545  0.00  0.00     0.080 H 
ATOM    126  H   NTO d 869      -8.135  23.509 -21.000  0.00  0.00     0.231 HD
ATOM    127  H   NTO d 869     -22.326  19.914 -16.829  0.00  0.00     0.210 HD
ATOM    128  H   NTO d 869      -5.503  10.217 -22.110  0.00  0.00     0.231 HD
ATOM    129  H   NTO d 869      -7.851  15.565 -22.782  0.00  0.00     0.210 HD
ATOM    130  H   NTO d 869      -9.431  18.103 -24.403  0.00  0.00     0.104 H 
ATOM    131  H   NTO d 869     -23.632  18.615 -20.324  0.00  0.00     0.210 HD
ATOM    132  H   NTO d 869     -21.604  17.991 -14.750  0.00  0.00     0.080 H 
ATOM    133  H   NTO d 869     -21.862  16.351 -15.329  0.00  0.00     0.080 H 
ATOM    134  H   NTO d 869     -10.251  21.055 -19.767  0.00  0.00     0.140 HD
ATOM    135  H   NTO d 869     -10.879  19.940 -24.122  0.00  0.00     0.092 H 
ATOM    136  H   NTO d 869     -23.988  18.254 -21.464  0.00  0.00     0.231 HD
ATOM    137  H   NTO d 869     -18.115  15.667 -20.212  0.00  0.00     0.210 HD
ATOM    138  H   NTO d 869      -6.224  17.212 -22.192  0.00  0.00     0.091 H 
ATOM    139  H   NTO d 869     -21.595  15.064 -22.077  0.00  0.00     0.231 HD
ATOM    140  H   NTO d 869     -20.432  18.546 -16.850  0.00  0.00     0.090 H 
ATOM    141  H   NTO d 869     -21.825  19.219 -19.000  0.00  0.00     0.089 H 
ATOM    142  H   NTO d 869     -16.777  17.733 -23.019  0.00  0.00     0.210 HD
ATOM    143  H   NTO d 869     -14.573  20.812 -21.247  0.00  0.00     0.091 H 
ENDROOT
TORSDOF 46
ENDMDL
MODEL 13
REMARK VINA RESULT:      -7.6      2.800     14.002
REMARK  0 active torsions:
REMARK  status: ('A' for Active; 'I' for Inactive)
REMARK       I    between atoms: O4A_2  and  C49_47 
REMARK       I    between atoms: O4A_2  and  S4B_15 
REMARK       I    between atoms: C3F_4  and  N3G_69 
REMARK       I    between atoms: S17_5  and  O16_54 
REMARK       I    between atoms: C5L_6  and  O5M_26 
REMARK       I    between atoms: C4F_7  and  O4G_60 
REMARK       I    between atoms: N1F_9  and  C1E_19 
REMARK       I    between atoms: N1F_9  and  S1G_71 
REMARK       I    between atoms: O5J_11  and  S5H_38 
REMARK       I    between atoms: C3L_12  and  O3M_62 
REMARK       I    between atoms: C29_13  and  O2A_90 
REMARK       I    between atoms: S3B_14  and  O3A_85 
REMARK       I    between atoms: C20_18  and  O1L_72 
REMARK       I    between atoms: O3J_20  and  S3H_80 
REMARK       I    between atoms: C31_23  and  C33_44 
REMARK       I    between atoms: C46_25  and  O47_33 
REMARK       I    between atoms: O5M_26  and  C5N_35 
REMARK       I    between atoms: C51_28  and  C53_48 
REMARK       I    between atoms: C5F_29  and  N5G_43 
REMARK       I    between atoms: C59_30  and  O5A_59 
REMARK       I    between atoms: C21_31  and  C23_64 
REMARK       I    between atoms: C26_32  and  O27_76 
REMARK       I    between atoms: O1J_34  and  S1G_71 
REMARK       I    between atoms: O3K_36  and  S3H_80 
REMARK       I    between atoms: O5I_37  and  S5H_38 
REMARK       I    between atoms: S5H_38  and  O5K_53 
REMARK       I    between atoms: S5H_38  and  N5G_43 
REMARK       I    between atoms: C39_39  and  O3A_85 
REMARK       I    between atoms: C1K_40  and  O1L_72 
REMARK       I    between atoms: C2C_41  and  O2D_45 
REMARK       I    between atoms: C33_44  and  O34_74 
REMARK       I    between atoms: O2D_45  and  C30_91 
REMARK       I    between atoms: C12_46  and  O10_51 
REMARK       I    between atoms: C53_48  and  O54_57 
REMARK       I    between atoms: O3I_50  and  S3H_80 
REMARK       I    between atoms: O16_54  and  C15_68 
REMARK       I    between atoms: C43_56  and  C41_65 
REMARK       I    between atoms: O54_57  and  S55_58 
REMARK       I    between atoms: O4G_60  and  C50_77 
REMARK       I    between atoms: O3M_62  and  C40_70 
REMARK       I    between atoms: O1C_67  and  C1B_86 
REMARK       I    between atoms: C15_68  and  C13_83 
REMARK       I    between atoms: N3G_69  and  S3H_80 
REMARK       I    between atoms: S1G_71  and  O1H_75 
REMARK       I    between atoms: S1G_71  and  O1I_82 
REMARK       I    between atoms: O34_74  and  S35_81 
ROOT
ATOM      1  O42 NTO d 869      -9.776  18.201 -21.241  0.00  0.00    -0.340 OA
ATOM      2  O4A NTO d 869      -7.773  21.226 -21.827  0.00  0.00    -0.244 OA
ATOM      3  O32 NTO d 869     -13.730  21.146 -22.400  0.00  0.00    -0.349 OA
ATOM      4  C3F NTO d 869     -14.055  20.967 -20.021  0.00  0.00     0.083 C 
ATOM      5  S17 NTO d 869     -23.523  14.000 -17.591  0.00  0.00     0.251 S 
ATOM      6  C5L NTO d 869      -5.304  14.957 -20.538  0.00  0.00     0.149 C 
ATOM      7  C4F NTO d 869      -8.587  19.003 -21.294  0.00  0.00     0.161 C 
ATOM      8  O14 NTO d 869     -22.689  15.442 -21.302  0.00  0.00    -0.349 OA
ATOM      9  N1F NTO d 869     -22.473  17.182 -24.546  0.00  0.00    -0.210 NA
ATOM     10  O37 NTO d 869     -16.318  20.671 -26.382  0.00  0.00    -0.572 OA
ATOM     11  O5J NTO d 869      -6.739  12.254 -19.948  0.00  0.00    -0.296 OA
ATOM     12  C3L NTO d 869     -13.030  21.075 -21.148  0.00  0.00     0.150 C 
ATOM     13  C29 NTO d 869     -17.873  17.140 -22.895  0.00  0.00     0.110 C 
ATOM     14  S3B NTO d 869     -15.464  18.457 -18.280  0.00  0.00     0.252 S 
ATOM     15  S4B NTO d 869      -7.176  21.692 -23.041  0.00  0.00     0.252 S 
ATOM     16  O24 NTO d 869     -19.880  18.543 -18.830  0.00  0.00    -0.646 OA
ATOM     17  O45 NTO d 869     -12.634  17.521 -21.384  0.00  0.00    -0.646 OA
ATOM     18  C20 NTO d 869     -20.094  17.316 -21.789  0.00  0.00     0.103 C 
ATOM     19  C1E NTO d 869     -23.130  16.490 -23.430  0.00  0.00     0.081 C 
ATOM     20  O3J NTO d 869     -12.793  22.920 -17.126  0.00  0.00    -0.296 OA
ATOM     21  O38 NTO d 869     -17.178  22.731 -25.362  0.00  0.00    -0.572 OA
ATOM     22  O18 NTO d 869     -23.510  12.625 -18.189  0.00  0.00    -0.572 OA
ATOM     23  C31 NTO d 869     -14.430  19.920 -22.667  0.00  0.00     0.091 C 
ATOM     24  O52 NTO d 869      -5.355  16.141 -19.725  0.00  0.00    -0.349 OA
ATOM     25  C46 NTO d 869     -10.175  20.883 -21.776  0.00  0.00     0.094 C 
ATOM     26  O5M NTO d 869      -4.221  14.982 -21.476  0.00  0.00    -0.364 OA
ATOM     27  O3D NTO d 869     -16.529  18.336 -17.231  0.00  0.00    -0.572 OA
ATOM     28  C51 NTO d 869      -5.742  17.313 -20.462  0.00  0.00     0.091 C 
ATOM     29  C5F NTO d 869      -6.640  14.698 -21.237  0.00  0.00     0.081 C 
ATOM     30  C59 NTO d 869      -7.091  15.934 -22.017  0.00  0.00     0.083 C 
ATOM     31  C21 NTO d 869     -19.616  18.634 -21.199  0.00  0.00     0.152 C 
ATOM     32  C26 NTO d 869     -19.385  17.128 -23.129  0.00  0.00     0.092 C 
ATOM     33  O47 NTO d 869     -10.354  22.091 -22.521  0.00  0.00    -0.390 OA
ATOM     34  O1J NTO d 869     -22.541  17.477 -27.078  0.00  0.00    -0.296 OA
ATOM     35  C5N NTO d 869      -3.026  14.553 -20.816  0.00  0.00     0.007 C 
ATOM     36  O3K NTO d 869     -12.871  23.388 -19.516  0.00  0.00    -0.296 OA
ATOM     37  O5I NTO d 869      -8.513  12.064 -21.625  0.00  0.00    -0.296 OA
ATOM     38  S5H NTO d 869      -7.034  12.192 -21.417  0.00  0.00     0.156 S 
ATOM     39  C39 NTO d 869     -14.813  19.651 -20.207  0.00  0.00     0.108 C 
ATOM     40  C1K NTO d 869     -22.063  16.136 -22.393  0.00  0.00     0.150 C 
ATOM     41  C2C NTO d 869     -17.449  18.419 -22.169  0.00  0.00     0.160 C 
ATOM     42  O19 NTO d 869     -24.883  14.297 -17.033  0.00  0.00    -0.572 OA
ATOM     43  N5G NTO d 869      -6.509  13.552 -22.149  0.00  0.00    -0.210 NA
ATOM     44  C33 NTO d 869     -15.134  20.020 -24.023  0.00  0.00     0.067 C 
ATOM     45  O2D NTO d 869     -16.047  18.333 -21.865  0.00  0.00    -0.348 OA
ATOM     46  C12 NTO d 869     -24.723  16.777 -21.521  0.00  0.00     0.089 C 
ATOM     47  C49 NTO d 869      -8.808  20.282 -22.107  0.00  0.00     0.134 C 
ATOM     48  C53 NTO d 869      -5.787  18.477 -19.470  0.00  0.00     0.067 C 
ATOM     49  O4D NTO d 869      -8.094  22.671 -23.709  0.00  0.00    -0.572 OA
ATOM     50  O3I NTO d 869     -11.039  22.043 -18.595  0.00  0.00    -0.296 OA
ATOM     51  O10 NTO d 869     -25.511  17.746 -20.826  0.00  0.00    -0.390 OA
ATOM     52  O1A NTO d 869     -22.500  14.075 -16.498  0.00  0.00    -0.572 OA
ATOM     53  O5K NTO d 869      -6.336  11.000 -22.002  0.00  0.00    -0.296 OA
ATOM     54  O16 NTO d 869     -23.198  14.961 -18.601  0.00  0.00    -0.254 OA
ATOM     55  O56 NTO d 869      -8.152  19.783 -17.398  0.00  0.00    -0.572 OA
ATOM     56  C43 NTO d 869     -11.817  17.490 -22.332  0.00  0.00     0.206 C 
ATOM     57  O54 NTO d 869      -6.668  18.173 -18.387  0.00  0.00    -0.254 OA
ATOM     58  S55 NTO d 869      -6.829  19.086 -17.294  0.00  0.00     0.251 S 
ATOM     59  O5A NTO d 869      -8.412  15.725 -22.526  0.00  0.00    -0.391 OA
ATOM     60  O4G NTO d 869      -7.474  18.296 -21.859  0.00  0.00    -0.348 OA
ATOM     61  O3C NTO d 869     -14.158  18.773 -17.613  0.00  0.00    -0.572 OA
ATOM     62  O3M NTO d 869     -12.239  19.880 -21.104  0.00  0.00    -0.348 OA
ATOM     63  O44 NTO d 869     -11.892  16.681 -23.294  0.00  0.00    -0.646 OA
ATOM     64  C23 NTO d 869     -20.399  18.888 -19.919  0.00  0.00     0.206 C 
ATOM     65  C41 NTO d 869     -10.675  18.494 -22.325  0.00  0.00     0.152 C 
ATOM     66  O22 NTO d 869     -18.198  18.598 -20.956  0.00  0.00    -0.340 OA
ATOM     67  O1C NTO d 869     -25.213  17.686 -23.709  0.00  0.00    -0.391 OA
ATOM     68  C15 NTO d 869     -24.214  15.491 -19.454  0.00  0.00     0.067 C 
ATOM     69  N3G NTO d 869     -13.370  20.996 -18.716  0.00  0.00    -0.210 NA
ATOM     70  C40 NTO d 869     -11.267  19.886 -22.156  0.00  0.00     0.103 C 
ATOM     71  S1G NTO d 869     -23.186  16.739 -25.942  0.00  0.00     0.156 S 
ATOM     72  O1L NTO d 869     -21.519  17.384 -21.940  0.00  0.00    -0.348 OA
ATOM     73  O57 NTO d 869      -5.728  20.104 -17.334  0.00  0.00    -0.572 OA
ATOM     74  O34 NTO d 869     -16.125  21.053 -24.025  0.00  0.00    -0.254 OA
ATOM     75  O1H NTO d 869     -24.648  17.070 -25.880  0.00  0.00    -0.296 OA
ATOM     76  O27 NTO d 869     -19.761  15.875 -23.708  0.00  0.00    -0.390 OA
ATOM     77  C50 NTO d 869      -7.121  17.142 -21.081  0.00  0.00     0.095 C 
ATOM     78  O3E NTO d 869     -15.338  17.157 -19.018  0.00  0.00    -0.572 OA
ATOM     79  O25 NTO d 869     -21.532  19.414 -20.022  0.00  0.00    -0.646 OA
ATOM     80  S3H NTO d 869     -12.502  22.361 -18.487  0.00  0.00     0.156 S 
ATOM     81  S35 NTO d 869     -16.969  21.260 -25.165  0.00  0.00     0.251 S 
ATOM     82  O1I NTO d 869     -23.010  15.262 -26.141  0.00  0.00    -0.296 OA
ATOM     83  C13 NTO d 869     -23.599  16.302 -20.598  0.00  0.00     0.090 C 
ATOM     84  O58 NTO d 869      -6.762  18.323 -16.006  0.00  0.00    -0.572 OA
ATOM     85  O3A NTO d 869     -15.810  19.507 -19.189  0.00  0.00    -0.247 OA
ATOM     86  C1B NTO d 869     -24.153  17.425 -22.786  0.00  0.00     0.083 C 
ATOM     87  O4C NTO d 869      -6.923  20.530 -23.955  0.00  0.00    -0.572 OA
ATOM     88  O4E NTO d 869      -5.874  22.356 -22.713  0.00  0.00    -0.572 OA
ATOM     89  O36 NTO d 869     -18.296  20.598 -24.944  0.00  0.00    -0.572 OA
ATOM     90  O2A NTO d 869     -17.199  17.057 -24.152  0.00  0.00    -0.388 OA
ATOM     91  C30 NTO d 869     -15.467  19.619 -21.593  0.00  0.00     0.096 C 
ATOM     92  H   NTO d 869     -14.740  21.789 -20.048  0.00  0.00     0.076 H 
ATOM     93  H   NTO d 869      -5.119  14.139 -19.874  0.00  0.00     0.131 H 
ATOM     94  H   NTO d 869      -8.361  19.252 -20.278  0.00  0.00     0.133 H 
ATOM     95  H   NTO d 869     -21.485  16.927 -24.571  0.00  0.00     0.140 HD
ATOM     96  H   NTO d 869      -7.054  11.442 -19.520  0.00  0.00     0.231 HD
ATOM     97  H   NTO d 869     -12.413  21.944 -21.043  0.00  0.00     0.131 H 
ATOM     98  H   NTO d 869     -17.611  16.299 -22.287  0.00  0.00     0.094 H 
ATOM     99  H   NTO d 869     -19.867  16.481 -21.160  0.00  0.00     0.092 H 
ATOM    100  H   NTO d 869     -23.622  15.607 -23.782  0.00  0.00     0.076 H 
ATOM    101  H   NTO d 869     -12.277  23.730 -16.992  0.00  0.00     0.231 HD
ATOM    102  H   NTO d 869     -13.711  19.128 -22.673  0.00  0.00     0.090 H 
ATOM    103  H   NTO d 869     -10.230  21.097 -20.729  0.00  0.00     0.091 H 
ATOM    104  H   NTO d 869      -5.042  17.488 -21.252  0.00  0.00     0.090 H 
ATOM    105  H   NTO d 869      -7.378  14.479 -20.494  0.00  0.00     0.076 H 
ATOM    106  H   NTO d 869      -6.409  16.107 -22.823  0.00  0.00     0.089 H 
ATOM    107  H   NTO d 869     -19.789  19.435 -21.887  0.00  0.00     0.104 H 
ATOM    108  H   NTO d 869     -19.662  17.920 -23.793  0.00  0.00     0.091 H 
ATOM    109  H   NTO d 869     -10.304  21.895 -23.470  0.00  0.00     0.210 HD
ATOM    110  H   NTO d 869     -22.656  18.432 -26.949  0.00  0.00     0.231 HD
ATOM    111  H   NTO d 869      -2.211  14.568 -21.509  0.00  0.00     0.066 H 
ATOM    112  H   NTO d 869      -3.161  13.558 -20.446  0.00  0.00     0.066 H 
ATOM    113  H   NTO d 869      -2.813  15.211 -20.000  0.00  0.00     0.066 H 
ATOM    114  H   NTO d 869     -12.350  24.193 -19.371  0.00  0.00     0.231 HD
ATOM    115  H   NTO d 869      -8.832  11.257 -21.191  0.00  0.00     0.231 HD
ATOM    116  H   NTO d 869     -14.122  18.838 -20.129  0.00  0.00     0.092 H 
ATOM    117  H   NTO d 869     -21.297  15.507 -22.796  0.00  0.00     0.131 H 
ATOM    118  H   NTO d 869     -17.642  19.259 -22.802  0.00  0.00     0.133 H 
ATOM    119  H   NTO d 869      -5.529  13.439 -22.409  0.00  0.00     0.140 HD
ATOM    120  H   NTO d 869     -15.607  19.086 -24.239  0.00  0.00     0.080 H 
ATOM    121  H   NTO d 869     -14.401  20.258 -24.765  0.00  0.00     0.080 H 
ATOM    122  H   NTO d 869     -25.317  15.933 -21.803  0.00  0.00     0.091 H 
ATOM    123  H   NTO d 869      -8.781  20.039 -23.149  0.00  0.00     0.097 H 
ATOM    124  H   NTO d 869      -6.135  19.355 -19.972  0.00  0.00     0.080 H 
ATOM    125  H   NTO d 869      -4.804  18.641 -19.081  0.00  0.00     0.080 H 
ATOM    126  H   NTO d 869     -10.522  22.852 -18.459  0.00  0.00     0.231 HD
ATOM    127  H   NTO d 869     -24.954  18.501 -20.581  0.00  0.00     0.210 HD
ATOM    128  H   NTO d 869      -6.651  10.194 -21.563  0.00  0.00     0.231 HD
ATOM    129  H   NTO d 869      -9.022  15.570 -21.788  0.00  0.00     0.210 HD
ATOM    130  H   NTO d 869     -10.126  18.440 -23.241  0.00  0.00     0.104 H 
ATOM    131  H   NTO d 869     -24.851  18.096 -24.510  0.00  0.00     0.210 HD
ATOM    132  H   NTO d 869     -24.857  16.127 -18.881  0.00  0.00     0.080 H 
ATOM    133  H   NTO d 869     -24.770  14.677 -19.872  0.00  0.00     0.080 H 
ATOM    134  H   NTO d 869     -12.739  20.195 -18.661  0.00  0.00     0.140 HD
ATOM    135  H   NTO d 869     -11.718  20.169 -23.084  0.00  0.00     0.092 H 
ATOM    136  H   NTO d 869     -24.758  18.025 -25.752  0.00  0.00     0.231 HD
ATOM    137  H   NTO d 869     -19.511  15.153 -23.109  0.00  0.00     0.210 HD
ATOM    138  H   NTO d 869      -7.835  17.010 -20.296  0.00  0.00     0.091 H 
ATOM    139  H   NTO d 869     -22.063  15.053 -26.181  0.00  0.00     0.231 HD
ATOM    140  H   NTO d 869     -23.071  17.160 -20.236  0.00  0.00     0.090 H 
ATOM    141  H   NTO d 869     -23.673  18.346 -22.526  0.00  0.00     0.089 H 
ATOM    142  H   NTO d 869     -17.441  17.821 -24.699  0.00  0.00     0.210 HD
ATOM    143  H   NTO d 869     -16.239  20.360 -21.603  0.00  0.00     0.091 H 
ENDROOT
TORSDOF 46
ENDMDL
MODEL 14
REMARK VINA RESULT:      -7.5      3.889      5.370
REMARK  0 active torsions:
REMARK  status: ('A' for Active; 'I' for Inactive)
REMARK       I    between atoms: O4A_2  and  C49_47 
REMARK       I    between atoms: O4A_2  and  S4B_15 
REMARK       I    between atoms: C3F_4  and  N3G_69 
REMARK       I    between atoms: S17_5  and  O16_54 
REMARK       I    between atoms: C5L_6  and  O5M_26 
REMARK       I    between atoms: C4F_7  and  O4G_60 
REMARK       I    between atoms: N1F_9  and  C1E_19 
REMARK       I    between atoms: N1F_9  and  S1G_71 
REMARK       I    between atoms: O5J_11  and  S5H_38 
REMARK       I    between atoms: C3L_12  and  O3M_62 
REMARK       I    between atoms: C29_13  and  O2A_90 
REMARK       I    between atoms: S3B_14  and  O3A_85 
REMARK       I    between atoms: C20_18  and  O1L_72 
REMARK       I    between atoms: O3J_20  and  S3H_80 
REMARK       I    between atoms: C31_23  and  C33_44 
REMARK       I    between atoms: C46_25  and  O47_33 
REMARK       I    between atoms: O5M_26  and  C5N_35 
REMARK       I    between atoms: C51_28  and  C53_48 
REMARK       I    between atoms: C5F_29  and  N5G_43 
REMARK       I    between atoms: C59_30  and  O5A_59 
REMARK       I    between atoms: C21_31  and  C23_64 
REMARK       I    between atoms: C26_32  and  O27_76 
REMARK       I    between atoms: O1J_34  and  S1G_71 
REMARK       I    between atoms: O3K_36  and  S3H_80 
REMARK       I    between atoms: O5I_37  and  S5H_38 
REMARK       I    between atoms: S5H_38  and  O5K_53 
REMARK       I    between atoms: S5H_38  and  N5G_43 
REMARK       I    between atoms: C39_39  and  O3A_85 
REMARK       I    between atoms: C1K_40  and  O1L_72 
REMARK       I    between atoms: C2C_41  and  O2D_45 
REMARK       I    between atoms: C33_44  and  O34_74 
REMARK       I    between atoms: O2D_45  and  C30_91 
REMARK       I    between atoms: C12_46  and  O10_51 
REMARK       I    between atoms: C53_48  and  O54_57 
REMARK       I    between atoms: O3I_50  and  S3H_80 
REMARK       I    between atoms: O16_54  and  C15_68 
REMARK       I    between atoms: C43_56  and  C41_65 
REMARK       I    between atoms: O54_57  and  S55_58 
REMARK       I    between atoms: O4G_60  and  C50_77 
REMARK       I    between atoms: O3M_62  and  C40_70 
REMARK       I    between atoms: O1C_67  and  C1B_86 
REMARK       I    between atoms: C15_68  and  C13_83 
REMARK       I    between atoms: N3G_69  and  S3H_80 
REMARK       I    between atoms: S1G_71  and  O1H_75 
REMARK       I    between atoms: S1G_71  and  O1I_82 
REMARK       I    between atoms: O34_74  and  S35_81 
ROOT
ATOM      1  O42 NTO d 869     -17.871  17.176 -14.392  0.00  0.00    -0.340 OA
ATOM      2  O4A NTO d 869     -20.641  19.428 -13.515  0.00  0.00    -0.244 OA
ATOM      3  O32 NTO d 869     -15.638  21.358 -16.173  0.00  0.00    -0.349 OA
ATOM      4  C3F NTO d 869     -16.221  20.304 -18.258  0.00  0.00     0.083 C 
ATOM      5  S17 NTO d 869      -6.398  16.099 -23.727  0.00  0.00     0.251 S 
ATOM      6  C5L NTO d 869     -20.201  12.776 -11.897  0.00  0.00     0.149 C 
ATOM      7  C4F NTO d 869     -19.170  17.536 -13.896  0.00  0.00     0.161 C 
ATOM      8  O14 NTO d 869      -6.287  18.647 -20.557  0.00  0.00    -0.349 OA
ATOM      9  N1F NTO d 869      -6.005  21.436 -18.162  0.00  0.00    -0.210 NA
ATOM     10  O37 NTO d 869     -11.809  23.384 -14.169  0.00  0.00    -0.572 OA
ATOM     11  O5J NTO d 869     -18.035  10.632 -12.547  0.00  0.00    -0.296 OA
ATOM     12  C3L NTO d 869     -16.649  20.566 -16.815  0.00  0.00     0.150 C 
ATOM     13  C29 NTO d 869     -10.290  19.349 -17.078  0.00  0.00     0.110 C 
ATOM     14  S3B NTO d 869     -14.613  17.835 -19.881  0.00  0.00     0.252 S 
ATOM     15  S4B NTO d 869     -20.860  20.160 -12.306  0.00  0.00     0.252 S 
ATOM     16  O24 NTO d 869     -10.922  19.444 -21.780  0.00  0.00    -0.646 OA
ATOM     17  O45 NTO d 869     -15.225  17.496 -15.635  0.00  0.00    -0.646 OA
ATOM     18  C20 NTO d 869      -9.033  19.693 -19.198  0.00  0.00     0.103 C 
ATOM     19  C1E NTO d 869      -5.595  20.568 -19.273  0.00  0.00     0.081 C 
ATOM     20  O3J NTO d 869     -19.256  20.395 -20.394  0.00  0.00    -0.296 OA
ATOM     21  O38 NTO d 869     -12.476  24.979 -15.911  0.00  0.00    -0.572 OA
ATOM     22  O18 NTO d 869      -5.538  15.166 -22.929  0.00  0.00    -0.572 OA
ATOM     23  C31 NTO d 869     -14.409  20.624 -16.056  0.00  0.00     0.091 C 
ATOM     24  O52 NTO d 869     -21.025  13.467 -12.850  0.00  0.00    -0.349 OA
ATOM     25  C46 NTO d 869     -18.589  19.821 -14.750  0.00  0.00     0.094 C 
ATOM     26  O5M NTO d 869     -20.710  12.871 -10.561  0.00  0.00    -0.364 OA
ATOM     27  O3D NTO d 869     -14.116  17.607 -21.278  0.00  0.00    -0.572 OA
ATOM     28  C51 NTO d 869     -20.974  14.896 -12.706  0.00  0.00     0.091 C 
ATOM     29  C5F NTO d 869     -18.745  13.241 -11.972  0.00  0.00     0.081 C 
ATOM     30  C59 NTO d 869     -18.656  14.763 -11.841  0.00  0.00     0.083 C 
ATOM     31  C21 NTO d 869     -10.254  20.436 -19.718  0.00  0.00     0.152 C 
ATOM     32  C26 NTO d 869      -8.989  19.884 -17.682  0.00  0.00     0.092 C 
ATOM     33  O47 NTO d 869     -18.717  21.224 -14.498  0.00  0.00    -0.390 OA
ATOM     34  O1J NTO d 869      -5.103  22.771 -16.186  0.00  0.00    -0.296 OA
ATOM     35  C5N NTO d 869     -21.719  11.873 -10.377  0.00  0.00     0.007 C 
ATOM     36  O3K NTO d 869     -18.482  21.821 -18.576  0.00  0.00    -0.296 OA
ATOM     37  O5I NTO d 869     -15.882  11.696 -12.067  0.00  0.00    -0.296 OA
ATOM     38  S5H NTO d 869     -17.200  11.281 -11.484  0.00  0.00     0.156 S 
ATOM     39  C39 NTO d 869     -14.935  19.476 -18.217  0.00  0.00     0.108 C 
ATOM     40  C1K NTO d 869      -6.683  19.515 -19.484  0.00  0.00     0.150 C 
ATOM     41  C2C NTO d 869     -11.502  20.018 -17.730  0.00  0.00     0.160 C 
ATOM     42  O19 NTO d 869      -5.669  16.522 -24.968  0.00  0.00    -0.572 OA
ATOM     43  N5G NTO d 869     -17.964  12.601 -10.904  0.00  0.00    -0.210 NA
ATOM     44  C33 NTO d 869     -13.367  21.487 -15.337  0.00  0.00     0.067 C 
ATOM     45  O2D NTO d 869     -12.697  19.403 -17.220  0.00  0.00    -0.348 OA
ATOM     46  C12 NTO d 869      -5.202  20.486 -21.744  0.00  0.00     0.089 C 
ATOM     47  C49 NTO d 869     -19.269  19.040 -13.625  0.00  0.00     0.134 C 
ATOM     48  C53 NTO d 869     -21.864  15.493 -13.799  0.00  0.00     0.067 C 
ATOM     49  O4D NTO d 869     -20.323  21.553 -12.457  0.00  0.00    -0.572 OA
ATOM     50  O3I NTO d 869     -19.676  19.739 -18.071  0.00  0.00    -0.296 OA
ATOM     51  O10 NTO d 869      -5.294  21.259 -22.943  0.00  0.00    -0.390 OA
ATOM     52  O1A NTO d 869      -7.672  15.404 -24.100  0.00  0.00    -0.572 OA
ATOM     53  O5K NTO d 869     -16.976  10.297 -10.375  0.00  0.00    -0.296 OA
ATOM     54  O16 NTO d 869      -6.709  17.252 -22.937  0.00  0.00    -0.254 OA
ATOM     55  O56 NTO d 869     -21.392  16.445 -17.034  0.00  0.00    -0.572 OA
ATOM     56  C43 NTO d 869     -15.492  17.626 -14.419  0.00  0.00     0.206 C 
ATOM     57  O54 NTO d 869     -21.443  15.039 -15.086  0.00  0.00    -0.254 OA
ATOM     58  S55 NTO d 869     -22.162  15.412 -16.267  0.00  0.00     0.251 S 
ATOM     59  O5A NTO d 869     -17.310  15.186 -12.075  0.00  0.00    -0.391 OA
ATOM     60  O4G NTO d 869     -19.508  16.837 -12.690  0.00  0.00    -0.348 OA
ATOM     61  O3C NTO d 869     -16.058  17.441 -19.807  0.00  0.00    -0.572 OA
ATOM     62  O3M NTO d 869     -16.742  19.288 -16.172  0.00  0.00    -0.348 OA
ATOM     63  O44 NTO d 869     -14.684  17.357 -13.493  0.00  0.00    -0.646 OA
ATOM     64  C23 NTO d 869     -10.246  20.349 -21.237  0.00  0.00     0.206 C 
ATOM     65  C41 NTO d 869     -16.870  18.147 -14.042  0.00  0.00     0.152 C 
ATOM     66  O22 NTO d 869     -11.460  19.885 -19.160  0.00  0.00    -0.340 OA
ATOM     67  O1C NTO d 869      -4.382  22.327 -20.406  0.00  0.00    -0.391 OA
ATOM     68  C15 NTO d 869      -5.814  18.365 -22.890  0.00  0.00     0.067 C 
ATOM     69  N3G NTO d 869     -17.287  19.579 -18.973  0.00  0.00    -0.210 NA
ATOM     70  C40 NTO d 869     -17.110  19.447 -14.796  0.00  0.00     0.103 C 
ATOM     71  S1G NTO d 869      -4.689  21.852 -17.297  0.00  0.00     0.156 S 
ATOM     72  O1L NTO d 869      -7.871  20.235 -19.841  0.00  0.00    -0.348 OA
ATOM     73  O57 NTO d 869     -23.495  15.978 -15.876  0.00  0.00    -0.572 OA
ATOM     74  O34 NTO d 869     -13.056  22.667 -16.085  0.00  0.00    -0.254 OA
ATOM     75  O1H NTO d 869      -3.702  22.541 -18.192  0.00  0.00    -0.296 OA
ATOM     76  O27 NTO d 869      -7.884  19.162 -17.132  0.00  0.00    -0.390 OA
ATOM     77  C50 NTO d 869     -19.556  15.416 -12.889  0.00  0.00     0.095 C 
ATOM     78  O3E NTO d 869     -13.823  16.991 -18.925  0.00  0.00    -0.572 OA
ATOM     79  O25 NTO d 869      -9.547  21.179 -21.865  0.00  0.00    -0.646 OA
ATOM     80  S3H NTO d 869     -18.700  20.399 -19.001  0.00  0.00     0.156 S 
ATOM     81  S35 NTO d 869     -12.037  23.571 -15.640  0.00  0.00     0.251 S 
ATOM     82  O1I NTO d 869      -4.067  20.615 -16.717  0.00  0.00    -0.296 OA
ATOM     83  C13 NTO d 869      -6.235  19.359 -21.804  0.00  0.00     0.090 C 
ATOM     84  O58 NTO d 869     -22.363  14.197 -17.122  0.00  0.00    -0.572 OA
ATOM     85  O3A NTO d 869     -14.470  19.220 -19.548  0.00  0.00    -0.247 OA
ATOM     86  C1B NTO d 869      -5.464  21.404 -20.547  0.00  0.00     0.083 C 
ATOM     87  O4C NTO d 869     -20.167  19.471 -11.168  0.00  0.00    -0.572 OA
ATOM     88  O4E NTO d 869     -22.332  20.208 -12.032  0.00  0.00    -0.572 OA
ATOM     89  O36 NTO d 869     -10.759  23.302 -16.377  0.00  0.00    -0.572 OA
ATOM     90  O2A NTO d 869     -10.299  19.607 -15.673  0.00  0.00    -0.388 OA
ATOM     91  C30 NTO d 869     -13.861  20.222 -17.419  0.00  0.00     0.096 C 
ATOM     92  H   NTO d 869     -16.046  21.224 -18.777  0.00  0.00     0.076 H 
ATOM     93  H   NTO d 869     -20.228  11.741 -12.165  0.00  0.00     0.131 H 
ATOM     94  H   NTO d 869     -19.860  17.257 -14.665  0.00  0.00     0.133 H 
ATOM     95  H   NTO d 869      -6.663  20.936 -17.564  0.00  0.00     0.140 HD
ATOM     96  H   NTO d 869     -17.574   9.849 -12.888  0.00  0.00     0.231 HD
ATOM     97  H   NTO d 869     -17.584  21.085 -16.766  0.00  0.00     0.131 H 
ATOM     98  H   NTO d 869     -10.345  18.296 -17.255  0.00  0.00     0.094 H 
ATOM     99  H   NTO d 869      -9.071  18.646 -19.411  0.00  0.00     0.092 H 
ATOM    100  H   NTO d 869      -4.657  20.103 -19.052  0.00  0.00     0.076 H 
ATOM    101  H   NTO d 869     -20.095  20.881 -20.409  0.00  0.00     0.231 HD
ATOM    102  H   NTO d 869     -14.611  19.734 -15.498  0.00  0.00     0.090 H 
ATOM    103  H   NTO d 869     -19.051  19.583 -15.685  0.00  0.00     0.091 H 
ATOM    104  H   NTO d 869     -21.305  15.171 -11.726  0.00  0.00     0.090 H 
ATOM    105  H   NTO d 869     -18.345  12.960 -12.924  0.00  0.00     0.076 H 
ATOM    106  H   NTO d 869     -18.966  15.047 -10.857  0.00  0.00     0.089 H 
ATOM    107  H   NTO d 869     -10.220  21.464 -19.420  0.00  0.00     0.104 H 
ATOM    108  H   NTO d 869      -8.878  20.924 -17.457  0.00  0.00     0.091 H 
ATOM    109  H   NTO d 869     -18.297  21.439 -13.650  0.00  0.00     0.210 HD
ATOM    110  H   NTO d 869      -5.504  23.570 -16.561  0.00  0.00     0.231 HD
ATOM    111  H   NTO d 869     -22.106  11.936  -9.382  0.00  0.00     0.066 H 
ATOM    112  H   NTO d 869     -21.295  10.904 -10.535  0.00  0.00     0.066 H 
ATOM    113  H   NTO d 869     -22.511  12.034 -11.079  0.00  0.00     0.066 H 
ATOM    114  H   NTO d 869     -19.327  22.297 -18.597  0.00  0.00     0.231 HD
ATOM    115  H   NTO d 869     -15.423  10.915 -12.414  0.00  0.00     0.231 HD
ATOM    116  H   NTO d 869     -15.139  18.541 -17.739  0.00  0.00     0.092 H 
ATOM    117  H   NTO d 869      -6.845  18.917 -18.611  0.00  0.00     0.131 H 
ATOM    118  H   NTO d 869     -11.492  21.062 -17.497  0.00  0.00     0.133 H 
ATOM    119  H   NTO d 869     -18.590  12.323 -10.148  0.00  0.00     0.140 HD
ATOM    120  H   NTO d 869     -12.473  20.914 -15.205  0.00  0.00     0.080 H 
ATOM    121  H   NTO d 869     -13.773  21.785 -14.393  0.00  0.00     0.080 H 
ATOM    122  H   NTO d 869      -4.228  20.054 -21.642  0.00  0.00     0.091 H 
ATOM    123  H   NTO d 869     -18.773  19.261 -12.703  0.00  0.00     0.097 H 
ATOM    124  H   NTO d 869     -21.798  16.560 -13.763  0.00  0.00     0.080 H 
ATOM    125  H   NTO d 869     -22.874  15.181 -13.634  0.00  0.00     0.080 H 
ATOM    126  H   NTO d 869     -20.515  20.225 -18.086  0.00  0.00     0.231 HD
ATOM    127  H   NTO d 869      -6.183  21.640 -23.014  0.00  0.00     0.210 HD
ATOM    128  H   NTO d 869     -16.522   9.514 -10.725  0.00  0.00     0.231 HD
ATOM    129  H   NTO d 869     -17.039  14.924 -12.968  0.00  0.00     0.210 HD
ATOM    130  H   NTO d 869     -16.925  18.323 -12.988  0.00  0.00     0.104 H 
ATOM    131  H   NTO d 869      -4.549  22.908 -19.648  0.00  0.00     0.210 HD
ATOM    132  H   NTO d 869      -5.820  18.860 -23.838  0.00  0.00     0.080 H 
ATOM    133  H   NTO d 869      -4.832  18.005 -22.662  0.00  0.00     0.080 H 
ATOM    134  H   NTO d 869     -17.439  18.683 -18.510  0.00  0.00     0.140 HD
ATOM    135  H   NTO d 869     -16.521  20.212 -14.336  0.00  0.00     0.092 H 
ATOM    136  H   NTO d 869      -4.108  23.340 -18.564  0.00  0.00     0.231 HD
ATOM    137  H   NTO d 869      -7.981  18.218 -17.333  0.00  0.00     0.210 HD
ATOM    138  H   NTO d 869     -19.231  15.185 -13.882  0.00  0.00     0.091 H 
ATOM    139  H   NTO d 869      -4.708  20.172 -16.139  0.00  0.00     0.231 HD
ATOM    140  H   NTO d 869      -7.194  19.788 -22.010  0.00  0.00     0.090 H 
ATOM    141  H   NTO d 869      -6.374  21.943 -20.708  0.00  0.00     0.089 H 
ATOM    142  H   NTO d 869     -10.248  20.563 -15.518  0.00  0.00     0.210 HD
ATOM    143  H   NTO d 869     -13.586  21.090 -17.980  0.00  0.00     0.091 H 
ENDROOT
TORSDOF 46
ENDMDL
MODEL 15
REMARK VINA RESULT:      -7.4      4.007     13.636
REMARK  0 active torsions:
REMARK  status: ('A' for Active; 'I' for Inactive)
REMARK       I    between atoms: O4A_2  and  C49_47 
REMARK       I    between atoms: O4A_2  and  S4B_15 
REMARK       I    between atoms: C3F_4  and  N3G_69 
REMARK       I    between atoms: S17_5  and  O16_54 
REMARK       I    between atoms: C5L_6  and  O5M_26 
REMARK       I    between atoms: C4F_7  and  O4G_60 
REMARK       I    between atoms: N1F_9  and  C1E_19 
REMARK       I    between atoms: N1F_9  and  S1G_71 
REMARK       I    between atoms: O5J_11  and  S5H_38 
REMARK       I    between atoms: C3L_12  and  O3M_62 
REMARK       I    between atoms: C29_13  and  O2A_90 
REMARK       I    between atoms: S3B_14  and  O3A_85 
REMARK       I    between atoms: C20_18  and  O1L_72 
REMARK       I    between atoms: O3J_20  and  S3H_80 
REMARK       I    between atoms: C31_23  and  C33_44 
REMARK       I    between atoms: C46_25  and  O47_33 
REMARK       I    between atoms: O5M_26  and  C5N_35 
REMARK       I    between atoms: C51_28  and  C53_48 
REMARK       I    between atoms: C5F_29  and  N5G_43 
REMARK       I    between atoms: C59_30  and  O5A_59 
REMARK       I    between atoms: C21_31  and  C23_64 
REMARK       I    between atoms: C26_32  and  O27_76 
REMARK       I    between atoms: O1J_34  and  S1G_71 
REMARK       I    between atoms: O3K_36  and  S3H_80 
REMARK       I    between atoms: O5I_37  and  S5H_38 
REMARK       I    between atoms: S5H_38  and  O5K_53 
REMARK       I    between atoms: S5H_38  and  N5G_43 
REMARK       I    between atoms: C39_39  and  O3A_85 
REMARK       I    between atoms: C1K_40  and  O1L_72 
REMARK       I    between atoms: C2C_41  and  O2D_45 
REMARK       I    between atoms: C33_44  and  O34_74 
REMARK       I    between atoms: O2D_45  and  C30_91 
REMARK       I    between atoms: C12_46  and  O10_51 
REMARK       I    between atoms: C53_48  and  O54_57 
REMARK       I    between atoms: O3I_50  and  S3H_80 
REMARK       I    between atoms: O16_54  and  C15_68 
REMARK       I    between atoms: C43_56  and  C41_65 
REMARK       I    between atoms: O54_57  and  S55_58 
REMARK       I    between atoms: O4G_60  and  C50_77 
REMARK       I    between atoms: O3M_62  and  C40_70 
REMARK       I    between atoms: O1C_67  and  C1B_86 
REMARK       I    between atoms: C15_68  and  C13_83 
REMARK       I    between atoms: N3G_69  and  S3H_80 
REMARK       I    between atoms: S1G_71  and  O1H_75 
REMARK       I    between atoms: S1G_71  and  O1I_82 
REMARK       I    between atoms: O34_74  and  S35_81 
ROOT
ATOM      1  O42 NTO d 869     -12.144  19.806 -19.670  0.00  0.00    -0.340 OA
ATOM      2  O4A NTO d 869      -9.274  21.626 -18.269  0.00  0.00    -0.244 OA
ATOM      3  O32 NTO d 869     -14.329  20.724 -15.194  0.00  0.00    -0.349 OA
ATOM      4  C3F NTO d 869     -13.868  18.375 -14.933  0.00  0.00     0.083 C 
ATOM      5  S17 NTO d 869     -24.037  12.019 -15.444  0.00  0.00     0.251 S 
ATOM      6  C5L NTO d 869      -9.839  19.360 -24.719  0.00  0.00     0.149 C 
ATOM      7  C4F NTO d 869     -10.815  20.349 -19.642  0.00  0.00     0.161 C 
ATOM      8  O14 NTO d 869     -23.936  16.067 -15.051  0.00  0.00    -0.349 OA
ATOM      9  N1F NTO d 869     -24.032  19.609 -14.031  0.00  0.00    -0.210 NA
ATOM     10  O37 NTO d 869     -18.006  23.707 -14.595  0.00  0.00    -0.572 OA
ATOM     11  O5J NTO d 869     -12.093  17.756 -26.155  0.00  0.00    -0.296 OA
ATOM     12  C3L NTO d 869     -13.369  19.701 -15.505  0.00  0.00     0.150 C 
ATOM     13  C29 NTO d 869     -19.768  19.149 -16.374  0.00  0.00     0.110 C 
ATOM     14  S3B NTO d 869     -15.616  15.752 -16.108  0.00  0.00     0.252 S 
ATOM     15  S4B NTO d 869      -8.982  23.025 -18.320  0.00  0.00     0.252 S 
ATOM     16  O24 NTO d 869     -19.337  15.239 -13.718  0.00  0.00    -0.646 OA
ATOM     17  O45 NTO d 869     -14.831  19.081 -18.719  0.00  0.00    -0.646 OA
ATOM     18  C20 NTO d 869     -21.104  17.632 -14.923  0.00  0.00     0.103 C 
ATOM     19  C1E NTO d 869     -24.515  18.227 -14.147  0.00  0.00     0.081 C 
ATOM     20  O3J NTO d 869     -10.926  16.481 -13.690  0.00  0.00    -0.296 OA
ATOM     21  O38 NTO d 869     -17.369  23.090 -12.307  0.00  0.00    -0.572 OA
ATOM     22  O18 NTO d 869     -24.889  12.220 -16.662  0.00  0.00    -0.572 OA
ATOM     23  C31 NTO d 869     -15.573  20.484 -15.871  0.00  0.00     0.091 C 
ATOM     24  O52 NTO d 869      -9.036  18.899 -23.620  0.00  0.00    -0.349 OA
ATOM     25  C46 NTO d 869     -11.364  20.917 -17.262  0.00  0.00     0.094 C 
ATOM     26  O5M NTO d 869      -9.269  20.501 -25.373  0.00  0.00    -0.364 OA
ATOM     27  O3D NTO d 869     -16.179  14.486 -15.533  0.00  0.00    -0.572 OA
ATOM     28  C51 NTO d 869      -9.039  19.804 -22.504  0.00  0.00     0.091 C 
ATOM     29  C5F NTO d 869     -11.282  19.628 -24.288  0.00  0.00     0.081 C 
ATOM     30  C59 NTO d 869     -11.320  20.575 -23.088  0.00  0.00     0.083 C 
ATOM     31  C21 NTO d 869     -19.886  17.540 -14.018  0.00  0.00     0.152 C 
ATOM     32  C26 NTO d 869     -21.077  19.004 -15.594  0.00  0.00     0.092 C 
ATOM     33  O47 NTO d 869     -11.185  21.889 -16.227  0.00  0.00    -0.390 OA
ATOM     34  O1J NTO d 869     -24.808  22.038 -13.997  0.00  0.00    -0.296 OA
ATOM     35  C5N NTO d 869      -8.283  20.056 -26.309  0.00  0.00     0.007 C 
ATOM     36  O3K NTO d 869     -11.579  18.821 -13.492  0.00  0.00    -0.296 OA
ATOM     37  O5I NTO d 869     -14.190  18.853 -25.527  0.00  0.00    -0.296 OA
ATOM     38  S5H NTO d 869     -12.861  19.043 -26.193  0.00  0.00     0.156 S 
ATOM     39  C39 NTO d 869     -15.174  18.023 -15.647  0.00  0.00     0.108 C 
ATOM     40  C1K NTO d 869     -23.468  17.418 -14.914  0.00  0.00     0.150 C 
ATOM     41  C2C NTO d 869     -18.565  18.906 -15.458  0.00  0.00     0.160 C 
ATOM     42  O19 NTO d 869     -24.806  11.252 -14.410  0.00  0.00    -0.572 OA
ATOM     43  N5G NTO d 869     -12.034  20.211 -25.409  0.00  0.00    -0.210 NA
ATOM     44  C33 NTO d 869     -16.556  21.611 -15.543  0.00  0.00     0.067 C 
ATOM     45  O2D NTO d 869     -17.368  18.933 -16.252  0.00  0.00    -0.348 OA
ATOM     46  C12 NTO d 869     -25.017  16.139 -12.862  0.00  0.00     0.089 C 
ATOM     47  C49 NTO d 869     -10.660  21.393 -18.532  0.00  0.00     0.134 C 
ATOM     48  C53 NTO d 869      -8.181  19.171 -21.406  0.00  0.00     0.067 C 
ATOM     49  O4D NTO d 869      -9.483  23.690 -17.072  0.00  0.00    -0.572 OA
ATOM     50  O3I NTO d 869     -10.426  18.041 -15.512  0.00  0.00    -0.296 OA
ATOM     51  O10 NTO d 869     -24.955  15.556 -11.558  0.00  0.00    -0.390 OA
ATOM     52  O1A NTO d 869     -22.802  11.261 -15.823  0.00  0.00    -0.572 OA
ATOM     53  O5K NTO d 869     -13.066  19.443 -27.625  0.00  0.00    -0.296 OA
ATOM     54  O16 NTO d 869     -23.658  13.294 -14.914  0.00  0.00    -0.254 OA
ATOM     55  O56 NTO d 869      -8.764  17.015 -18.837  0.00  0.00    -0.572 OA
ATOM     56  C43 NTO d 869     -14.508  20.154 -19.277  0.00  0.00     0.206 C 
ATOM     57  O54 NTO d 869      -8.670  17.869 -21.080  0.00  0.00    -0.254 OA
ATOM     58  S55 NTO d 869      -7.992  17.049 -20.122  0.00  0.00     0.251 S 
ATOM     59  O5A NTO d 869     -12.663  20.682 -22.604  0.00  0.00    -0.391 OA
ATOM     60  O4G NTO d 869     -10.446  20.957 -20.888  0.00  0.00    -0.348 OA
ATOM     61  O3C NTO d 869     -14.181  15.522 -16.478  0.00  0.00    -0.572 OA
ATOM     62  O3M NTO d 869     -13.287  19.534 -16.927  0.00  0.00    -0.348 OA
ATOM     63  O44 NTO d 869     -15.283  20.823 -20.009  0.00  0.00    -0.646 OA
ATOM     64  C23 NTO d 869     -19.962  16.224 -13.258  0.00  0.00     0.206 C 
ATOM     65  C41 NTO d 869     -13.100  20.683 -19.049  0.00  0.00     0.152 C 
ATOM     66  O22 NTO d 869     -18.673  17.641 -14.785  0.00  0.00    -0.340 OA
ATOM     67  O1C NTO d 869     -25.724  18.307 -12.054  0.00  0.00    -0.391 OA
ATOM     68  C15 NTO d 869     -24.518  13.990 -14.008  0.00  0.00     0.067 C 
ATOM     69  N3G NTO d 869     -12.855  17.325 -15.149  0.00  0.00    -0.210 NA
ATOM     70  C40 NTO d 869     -12.855  20.751 -17.548  0.00  0.00     0.103 C 
ATOM     71  S1G NTO d 869     -25.297  20.629 -14.156  0.00  0.00     0.156 S 
ATOM     72  O1L NTO d 869     -22.276  17.452 -14.116  0.00  0.00    -0.348 OA
ATOM     73  O57 NTO d 869      -6.627  17.616 -19.864  0.00  0.00    -0.572 OA
ATOM     74  O34 NTO d 869     -16.864  21.649 -14.146  0.00  0.00    -0.254 OA
ATOM     75  O1H NTO d 869     -26.300  20.310 -13.088  0.00  0.00    -0.296 OA
ATOM     76  O27 NTO d 869     -22.178  19.127 -16.499  0.00  0.00    -0.390 OA
ATOM     77  C50 NTO d 869     -10.448  20.010 -21.967  0.00  0.00     0.095 C 
ATOM     78  O3E NTO d 869     -16.388  16.130 -17.337  0.00  0.00    -0.572 OA
ATOM     79  O25 NTO d 869     -20.662  16.190 -12.219  0.00  0.00    -0.646 OA
ATOM     80  S3H NTO d 869     -11.421  17.677 -14.449  0.00  0.00     0.156 S 
ATOM     81  S35 NTO d 869     -17.837  22.569 -13.632  0.00  0.00     0.251 S 
ATOM     82  O1I NTO d 869     -25.929  20.468 -15.508  0.00  0.00    -0.296 OA
ATOM     83  C13 NTO d 869     -24.021  15.419 -13.772  0.00  0.00     0.090 C 
ATOM     84  O58 NTO d 869      -7.864  15.660 -20.669  0.00  0.00    -0.572 OA
ATOM     85  O3A NTO d 869     -15.703  16.796 -15.132  0.00  0.00    -0.247 OA
ATOM     86  C1B NTO d 869     -24.676  17.628 -12.750  0.00  0.00     0.083 C 
ATOM     87  O4C NTO d 869      -9.644  23.635 -19.520  0.00  0.00    -0.572 OA
ATOM     88  O4E NTO d 869      -7.498  23.203 -18.431  0.00  0.00    -0.572 OA
ATOM     89  O36 NTO d 869     -19.152  21.873 -13.452  0.00  0.00    -0.572 OA
ATOM     90  O2A NTO d 869     -19.690  20.462 -16.929  0.00  0.00    -0.388 OA
ATOM     91  C30 NTO d 869     -16.190  19.154 -15.460  0.00  0.00     0.096 C 
ATOM     92  H   NTO d 869     -14.038  18.454 -13.880  0.00  0.00     0.076 H 
ATOM     93  H   NTO d 869      -9.854  18.568 -25.439  0.00  0.00     0.131 H 
ATOM     94  H   NTO d 869     -10.167  19.519 -19.454  0.00  0.00     0.133 H 
ATOM     95  H   NTO d 869     -23.364  19.801 -14.777  0.00  0.00     0.140 HD
ATOM     96  H   NTO d 869     -12.591  17.068 -26.623  0.00  0.00     0.231 HD
ATOM     97  H   NTO d 869     -12.419  19.978 -15.099  0.00  0.00     0.131 H 
ATOM     98  H   NTO d 869     -19.751  18.421 -17.158  0.00  0.00     0.094 H 
ATOM     99  H   NTO d 869     -21.106  16.878 -15.683  0.00  0.00     0.092 H 
ATOM    100  H   NTO d 869     -25.456  18.207 -14.657  0.00  0.00     0.076 H 
ATOM    101  H   NTO d 869     -10.075  16.691 -13.275  0.00  0.00     0.231 HD
ATOM    102  H   NTO d 869     -15.372  20.453 -16.921  0.00  0.00     0.090 H 
ATOM    103  H   NTO d 869     -10.951  19.981 -16.949  0.00  0.00     0.091 H 
ATOM    104  H   NTO d 869      -8.658  20.755 -22.811  0.00  0.00     0.090 H 
ATOM    105  H   NTO d 869     -11.731  18.700 -24.002  0.00  0.00     0.076 H 
ATOM    106  H   NTO d 869     -10.960  21.536 -23.389  0.00  0.00     0.089 H 
ATOM    107  H   NTO d 869     -19.876  18.353 -13.321  0.00  0.00     0.104 H 
ATOM    108  H   NTO d 869     -21.148  19.767 -14.848  0.00  0.00     0.091 H 
ATOM    109  H   NTO d 869     -11.561  22.737 -16.512  0.00  0.00     0.210 HD
ATOM    110  H   NTO d 869     -24.400  22.141 -13.123  0.00  0.00     0.231 HD
ATOM    111  H   NTO d 869      -7.852  20.901 -26.803  0.00  0.00     0.066 H 
ATOM    112  H   NTO d 869      -8.742  19.416 -27.034  0.00  0.00     0.066 H 
ATOM    113  H   NTO d 869      -7.518  19.516 -25.791  0.00  0.00     0.066 H 
ATOM    114  H   NTO d 869     -10.722  19.020 -13.083  0.00  0.00     0.231 HD
ATOM    115  H   NTO d 869     -14.687  18.159 -25.989  0.00  0.00     0.231 HD
ATOM    116  H   NTO d 869     -14.977  17.900 -16.692  0.00  0.00     0.092 H 
ATOM    117  H   NTO d 869     -23.286  17.812 -15.892  0.00  0.00     0.131 H 
ATOM    118  H   NTO d 869     -18.535  19.673 -14.713  0.00  0.00     0.133 H 
ATOM    119  H   NTO d 869     -11.385  20.657 -26.056  0.00  0.00     0.140 HD
ATOM    120  H   NTO d 869     -17.460  21.456 -16.093  0.00  0.00     0.080 H 
ATOM    121  H   NTO d 869     -16.101  22.542 -15.811  0.00  0.00     0.080 H 
ATOM    122  H   NTO d 869     -25.998  16.040 -13.278  0.00  0.00     0.091 H 
ATOM    123  H   NTO d 869     -11.109  22.310 -18.853  0.00  0.00     0.097 H 
ATOM    124  H   NTO d 869      -8.213  19.789 -20.533  0.00  0.00     0.080 H 
ATOM    125  H   NTO d 869      -7.174  19.085 -21.758  0.00  0.00     0.080 H 
ATOM    126  H   NTO d 869      -9.574  18.251 -15.098  0.00  0.00     0.231 HD
ATOM    127  H   NTO d 869     -24.059  15.658 -11.201  0.00  0.00     0.210 HD
ATOM    128  H   NTO d 869     -13.558  18.746 -28.087  0.00  0.00     0.231 HD
ATOM    129  H   NTO d 869     -12.980  19.806 -22.333  0.00  0.00     0.210 HD
ATOM    130  H   NTO d 869     -12.994  21.656 -19.480  0.00  0.00     0.104 H 
ATOM    131  H   NTO d 869     -25.507  19.250 -11.983  0.00  0.00     0.210 HD
ATOM    132  H   NTO d 869     -24.538  13.468 -13.074  0.00  0.00     0.080 H 
ATOM    133  H   NTO d 869     -25.499  14.034 -14.433  0.00  0.00     0.080 H 
ATOM    134  H   NTO d 869     -12.709  17.213 -16.153  0.00  0.00     0.140 HD
ATOM    135  H   NTO d 869     -13.401  21.585 -17.160  0.00  0.00     0.092 H 
ATOM    136  H   NTO d 869     -25.888  20.415 -12.216  0.00  0.00     0.231 HD
ATOM    137  H   NTO d 869     -22.117  18.437 -17.179  0.00  0.00     0.210 HD
ATOM    138  H   NTO d 869     -10.822  19.071 -21.617  0.00  0.00     0.091 H 
ATOM    139  H   NTO d 869     -25.277  20.675 -16.196  0.00  0.00     0.231 HD
ATOM    140  H   NTO d 869     -23.060  15.431 -13.301  0.00  0.00     0.090 H 
ATOM    141  H   NTO d 869     -23.759  17.741 -12.211  0.00  0.00     0.089 H 
ATOM    142  H   NTO d 869     -19.706  21.117 -16.214  0.00  0.00     0.210 HD
ATOM    143  H   NTO d 869     -16.464  19.175 -14.426  0.00  0.00     0.091 H 
ENDROOT
TORSDOF 46
ENDMDL
MODEL 16
REMARK VINA RESULT:      -7.4      2.684     13.871
REMARK  0 active torsions:
REMARK  status: ('A' for Active; 'I' for Inactive)
REMARK       I    between atoms: O4A_2  and  C49_47 
REMARK       I    between atoms: O4A_2  and  S4B_15 
REMARK       I    between atoms: C3F_4  and  N3G_69 
REMARK       I    between atoms: S17_5  and  O16_54 
REMARK       I    between atoms: C5L_6  and  O5M_26 
REMARK       I    between atoms: C4F_7  and  O4G_60 
REMARK       I    between atoms: N1F_9  and  C1E_19 
REMARK       I    between atoms: N1F_9  and  S1G_71 
REMARK       I    between atoms: O5J_11  and  S5H_38 
REMARK       I    between atoms: C3L_12  and  O3M_62 
REMARK       I    between atoms: C29_13  and  O2A_90 
REMARK       I    between atoms: S3B_14  and  O3A_85 
REMARK       I    between atoms: C20_18  and  O1L_72 
REMARK       I    between atoms: O3J_20  and  S3H_80 
REMARK       I    between atoms: C31_23  and  C33_44 
REMARK       I    between atoms: C46_25  and  O47_33 
REMARK       I    between atoms: O5M_26  and  C5N_35 
REMARK       I    between atoms: C51_28  and  C53_48 
REMARK       I    between atoms: C5F_29  and  N5G_43 
REMARK       I    between atoms: C59_30  and  O5A_59 
REMARK       I    between atoms: C21_31  and  C23_64 
REMARK       I    between atoms: C26_32  and  O27_76 
REMARK       I    between atoms: O1J_34  and  S1G_71 
REMARK       I    between atoms: O3K_36  and  S3H_80 
REMARK       I    between atoms: O5I_37  and  S5H_38 
REMARK       I    between atoms: S5H_38  and  O5K_53 
REMARK       I    between atoms: S5H_38  and  N5G_43 
REMARK       I    between atoms: C39_39  and  O3A_85 
REMARK       I    between atoms: C1K_40  and  O1L_72 
REMARK       I    between atoms: C2C_41  and  O2D_45 
REMARK       I    between atoms: C33_44  and  O34_74 
REMARK       I    between atoms: O2D_45  and  C30_91 
REMARK       I    between atoms: C12_46  and  O10_51 
REMARK       I    between atoms: C53_48  and  O54_57 
REMARK       I    between atoms: O3I_50  and  S3H_80 
REMARK       I    between atoms: O16_54  and  C15_68 
REMARK       I    between atoms: C43_56  and  C41_65 
REMARK       I    between atoms: O54_57  and  S55_58 
REMARK       I    between atoms: O4G_60  and  C50_77 
REMARK       I    between atoms: O3M_62  and  C40_70 
REMARK       I    between atoms: O1C_67  and  C1B_86 
REMARK       I    between atoms: C15_68  and  C13_83 
REMARK       I    between atoms: N3G_69  and  S3H_80 
REMARK       I    between atoms: S1G_71  and  O1H_75 
REMARK       I    between atoms: S1G_71  and  O1I_82 
REMARK       I    between atoms: O34_74  and  S35_81 
ROOT
ATOM      1  O42 NTO d 869     -10.446  18.622 -20.561  0.00  0.00    -0.340 OA
ATOM      2  O4A NTO d 869      -8.633  21.797 -20.933  0.00  0.00    -0.244 OA
ATOM      3  O32 NTO d 869     -14.610  21.480 -20.954  0.00  0.00    -0.349 OA
ATOM      4  C3F NTO d 869     -14.690  20.988 -18.598  0.00  0.00     0.083 C 
ATOM      5  S17 NTO d 869     -23.586  13.289 -16.221  0.00  0.00     0.251 S 
ATOM      6  C5L NTO d 869      -5.803  15.553 -20.707  0.00  0.00     0.149 C 
ATOM      7  C4F NTO d 869      -9.301  19.486 -20.620  0.00  0.00     0.161 C 
ATOM      8  O14 NTO d 869     -23.183  15.226 -19.775  0.00  0.00    -0.349 OA
ATOM      9  N1F NTO d 869     -23.358  17.368 -22.771  0.00  0.00    -0.210 NA
ATOM     10  O37 NTO d 869     -17.560  21.376 -24.704  0.00  0.00    -0.572 OA
ATOM     11  O5J NTO d 869      -7.063  12.726 -20.342  0.00  0.00    -0.296 OA
ATOM     12  C3L NTO d 869     -13.786  21.289 -19.792  0.00  0.00     0.150 C 
ATOM     13  C29 NTO d 869     -18.619  17.358 -21.576  0.00  0.00     0.110 C 
ATOM     14  S3B NTO d 869     -15.818  18.209 -17.074  0.00  0.00     0.252 S 
ATOM     15  S4B NTO d 869      -8.178  22.442 -22.127  0.00  0.00     0.252 S 
ATOM     16  O24 NTO d 869     -20.267  18.134 -17.194  0.00  0.00    -0.646 OA
ATOM     17  O45 NTO d 869     -13.276  17.818 -20.524  0.00  0.00    -0.646 OA
ATOM     18  C20 NTO d 869     -20.725  17.279 -20.254  0.00  0.00     0.103 C 
ATOM     19  C1E NTO d 869     -23.873  16.509 -21.698  0.00  0.00     0.081 C 
ATOM     20  O3J NTO d 869     -13.225  22.624 -15.604  0.00  0.00    -0.296 OA
ATOM     21  O38 NTO d 869     -18.394  23.244 -23.349  0.00  0.00    -0.572 OA
ATOM     22  O18 NTO d 869     -23.579  12.002 -16.991  0.00  0.00    -0.572 OA
ATOM     23  C31 NTO d 869     -15.283  20.263 -21.311  0.00  0.00     0.091 C 
ATOM     24  O52 NTO d 869      -5.819  16.621 -19.746  0.00  0.00    -0.349 OA
ATOM     25  C46 NTO d 869     -11.002  21.326 -20.703  0.00  0.00     0.094 C 
ATOM     26  O5M NTO d 869      -4.820  15.752 -21.731  0.00  0.00    -0.364 OA
ATOM     27  O3D NTO d 869     -16.769  17.903 -15.955  0.00  0.00    -0.572 OA
ATOM     28  C51 NTO d 869      -6.323  17.854 -20.285  0.00  0.00     0.091 C 
ATOM     29  C5F NTO d 869      -7.190  15.314 -21.306  0.00  0.00     0.081 C 
ATOM     30  C59 NTO d 869      -7.764  16.614 -21.873  0.00  0.00     0.083 C 
ATOM     31  C21 NTO d 869     -20.243  18.535 -19.545  0.00  0.00     0.152 C 
ATOM     32  C26 NTO d 869     -20.145  17.298 -21.667  0.00  0.00     0.092 C 
ATOM     33  O47 NTO d 869     -11.302  22.607 -21.266  0.00  0.00    -0.390 OA
ATOM     34  O1J NTO d 869     -23.690  17.976 -25.225  0.00  0.00    -0.296 OA
ATOM     35  C5N NTO d 869      -3.549  15.305 -21.247  0.00  0.00     0.007 C 
ATOM     36  O3K NTO d 869     -13.558  23.384 -17.896  0.00  0.00    -0.296 OA
ATOM     37  O5I NTO d 869      -8.987  12.657 -21.856  0.00  0.00    -0.296 OA
ATOM     38  S5H NTO d 869      -7.500  12.834 -21.772  0.00  0.00     0.156 S 
ATOM     39  C39 NTO d 869     -15.409  19.668 -18.882  0.00  0.00     0.108 C 
ATOM     40  C1K NTO d 869     -22.696  16.083 -20.819  0.00  0.00     0.150 C 
ATOM     41  C2C NTO d 869     -18.176  18.557 -20.732  0.00  0.00     0.160 C 
ATOM     42  O19 NTO d 869     -24.895  13.442 -15.504  0.00  0.00    -0.572 OA
ATOM     43  N5G NTO d 869      -7.104  14.300 -22.367  0.00  0.00    -0.210 NA
ATOM     44  C33 NTO d 869     -16.122  20.496 -22.570  0.00  0.00     0.067 C 
ATOM     45  O2D NTO d 869     -16.749  18.507 -20.575  0.00  0.00    -0.348 OA
ATOM     46  C12 NTO d 869     -25.280  16.471 -19.627  0.00  0.00     0.089 C 
ATOM     47  C49 NTO d 869      -9.653  20.843 -21.236  0.00  0.00     0.134 C 
ATOM     48  C53 NTO d 869      -6.316  18.881 -19.149  0.00  0.00     0.067 C 
ATOM     49  O4D NTO d 869      -9.196  23.449 -22.574  0.00  0.00    -0.572 OA
ATOM     50  O3I NTO d 869     -11.591  22.031 -17.332  0.00  0.00    -0.296 OA
ATOM     51  O10 NTO d 869     -26.033  17.303 -18.741  0.00  0.00    -0.390 OA
ATOM     52  O1A NTO d 869     -22.464  13.279 -15.228  0.00  0.00    -0.572 OA
ATOM     53  O5K NTO d 869      -6.817  11.763 -22.569  0.00  0.00    -0.296 OA
ATOM     54  O16 NTO d 869     -23.402  14.385 -17.124  0.00  0.00    -0.254 OA
ATOM     55  O56 NTO d 869      -8.513  19.792 -16.714  0.00  0.00    -0.572 OA
ATOM     56  C43 NTO d 869     -12.557  17.949 -21.540  0.00  0.00     0.206 C 
ATOM     57  O54 NTO d 869      -7.072  18.398 -18.038  0.00  0.00    -0.254 OA
ATOM     58  S55 NTO d 869      -7.159  19.157 -16.826  0.00  0.00     0.251 S 
ATOM     59  O5A NTO d 869      -9.120  16.402 -22.279  0.00  0.00    -0.391 OA
ATOM     60  O4G NTO d 869      -8.222  18.913 -21.374  0.00  0.00    -0.348 OA
ATOM     61  O3C NTO d 869     -14.466  18.506 -16.497  0.00  0.00    -0.572 OA
ATOM     62  O3M NTO d 869     -12.948  20.141 -19.978  0.00  0.00    -0.348 OA
ATOM     63  O44 NTO d 869     -12.694  17.265 -22.588  0.00  0.00    -0.646 OA
ATOM     64  C23 NTO d 869     -20.904  18.586 -18.175  0.00  0.00     0.206 C 
ATOM     65  C41 NTO d 869     -11.460  19.002 -21.509  0.00  0.00     0.152 C 
ATOM     66  O22 NTO d 869     -18.808  18.543 -19.442  0.00  0.00    -0.340 OA
ATOM     67  O1C NTO d 869     -26.020  17.621 -21.623  0.00  0.00    -0.391 OA
ATOM     68  C15 NTO d 869     -24.518  14.964 -17.802  0.00  0.00     0.067 C 
ATOM     69  N3G NTO d 869     -13.880  20.888 -17.370  0.00  0.00    -0.210 NA
ATOM     70  C40 NTO d 869     -12.086  20.330 -21.107  0.00  0.00     0.103 C 
ATOM     71  S1G NTO d 869     -24.189  17.068 -24.140  0.00  0.00     0.156 S 
ATOM     72  O1L NTO d 869     -22.159  17.291 -20.261  0.00  0.00    -0.348 OA
ATOM     73  O57 NTO d 869      -6.110  20.227 -16.835  0.00  0.00    -0.572 OA
ATOM     74  O34 NTO d 869     -17.148  21.468 -22.346  0.00  0.00    -0.254 OA
ATOM     75  O1H NTO d 869     -25.649  17.312 -23.899  0.00  0.00    -0.296 OA
ATOM     76  O27 NTO d 869     -20.527  16.110 -22.367  0.00  0.00    -0.390 OA
ATOM     77  C50 NTO d 869      -7.749  17.691 -20.789  0.00  0.00     0.095 C 
ATOM     78  O3E NTO d 869     -15.715  17.020 -17.983  0.00  0.00    -0.572 OA
ATOM     79  O25 NTO d 869     -22.062  19.061 -18.103  0.00  0.00    -0.646 OA
ATOM     80  S3H NTO d 869     -13.048  22.256 -17.048  0.00  0.00     0.156 S 
ATOM     81  S35 NTO d 869     -18.109  21.772 -23.366  0.00  0.00     0.251 S 
ATOM     82  O1I NTO d 869     -23.975  15.639 -24.545  0.00  0.00    -0.296 OA
ATOM     83  C13 NTO d 869     -24.052  15.943 -18.883  0.00  0.00     0.090 C 
ATOM     84  O58 NTO d 869      -6.935  18.242 -15.660  0.00  0.00    -0.572 OA
ATOM     85  O3A NTO d 869     -16.294  19.346 -17.803  0.00  0.00    -0.247 OA
ATOM     86  C1B NTO d 869     -24.864  17.302 -20.845  0.00  0.00     0.083 C 
ATOM     87  O4C NTO d 869      -7.971  21.419 -23.204  0.00  0.00    -0.572 OA
ATOM     88  O4E NTO d 869      -6.877  23.126 -21.839  0.00  0.00    -0.572 OA
ATOM     89  O36 NTO d 869     -19.380  21.020 -23.110  0.00  0.00    -0.572 OA
ATOM     90  O2A NTO d 869     -18.071  17.469 -22.891  0.00  0.00    -0.388 OA
ATOM     91  C30 NTO d 869     -16.196  19.776 -20.193  0.00  0.00     0.096 C 
ATOM     92  H   NTO d 869     -15.406  21.770 -18.454  0.00  0.00     0.076 H 
ATOM     93  H   NTO d 869      -5.520  14.669 -20.175  0.00  0.00     0.131 H 
ATOM     94  H   NTO d 869      -8.985  19.617 -19.606  0.00  0.00     0.133 H 
ATOM     95  H   NTO d 869     -22.369  17.171 -22.921  0.00  0.00     0.140 HD
ATOM     96  H   NTO d 869      -7.302  11.852 -19.995  0.00  0.00     0.231 HD
ATOM     97  H   NTO d 869     -13.197  22.169 -19.633  0.00  0.00     0.131 H 
ATOM     98  H   NTO d 869     -18.265  16.463 -21.110  0.00  0.00     0.094 H 
ATOM     99  H   NTO d 869     -20.404  16.384 -19.763  0.00  0.00     0.092 H 
ATOM    100  H   NTO d 869     -24.363  15.653 -22.114  0.00  0.00     0.076 H 
ATOM    101  H   NTO d 869     -12.731  23.437 -15.415  0.00  0.00     0.231 HD
ATOM    102  H   NTO d 869     -14.538  19.516 -21.487  0.00  0.00     0.090 H 
ATOM    103  H   NTO d 869     -10.962  21.404 -19.637  0.00  0.00     0.091 H 
ATOM    104  H   NTO d 869      -5.713  18.163 -21.107  0.00  0.00     0.090 H 
ATOM    105  H   NTO d 869      -7.841  14.966 -20.532  0.00  0.00     0.076 H 
ATOM    106  H   NTO d 869      -7.173  16.922 -22.710  0.00  0.00     0.089 H 
ATOM    107  H   NTO d 869     -20.515  19.407 -20.104  0.00  0.00     0.104 H 
ATOM    108  H   NTO d 869     -20.518  18.151 -22.194  0.00  0.00     0.091 H 
ATOM    109  H   NTO d 869     -11.339  22.535 -22.232  0.00  0.00     0.210 HD
ATOM    110  H   NTO d 869     -23.829  18.899 -24.963  0.00  0.00     0.231 HD
ATOM    111  H   NTO d 869      -2.808  15.450 -22.005  0.00  0.00     0.066 H 
ATOM    112  H   NTO d 869      -3.607  14.267 -20.998  0.00  0.00     0.066 H 
ATOM    113  H   NTO d 869      -3.282  15.867 -20.375  0.00  0.00     0.066 H 
ATOM    114  H   NTO d 869     -13.057  24.190 -17.696  0.00  0.00     0.231 HD
ATOM    115  H   NTO d 869      -9.229  11.786 -21.503  0.00  0.00     0.231 HD
ATOM    116  H   NTO d 869     -14.682  18.888 -18.975  0.00  0.00     0.092 H 
ATOM    117  H   NTO d 869     -21.949  15.551 -21.371  0.00  0.00     0.131 H 
ATOM    118  H   NTO d 869     -18.465  19.458 -21.230  0.00  0.00     0.133 H 
ATOM    119  H   NTO d 869      -6.152  14.272 -22.730  0.00  0.00     0.140 HD
ATOM    120  H   NTO d 869     -16.577  19.573 -22.861  0.00  0.00     0.080 H 
ATOM    121  H   NTO d 869     -15.476  20.863 -23.341  0.00  0.00     0.080 H 
ATOM    122  H   NTO d 869     -25.865  15.640 -19.960  0.00  0.00     0.091 H 
ATOM    123  H   NTO d 869      -9.720  20.735 -22.299  0.00  0.00     0.097 H 
ATOM    124  H   NTO d 869      -6.746  19.795 -19.499  0.00  0.00     0.080 H 
ATOM    125  H   NTO d 869      -5.306  19.046 -18.837  0.00  0.00     0.080 H 
ATOM    126  H   NTO d 869     -11.096  22.843 -17.141  0.00  0.00     0.231 HD
ATOM    127  H   NTO d 869     -25.484  18.049 -18.454  0.00  0.00     0.210 HD
ATOM    128  H   NTO d 869      -7.055  10.893 -22.212  0.00  0.00     0.231 HD
ATOM    129  H   NTO d 869      -9.647  16.124 -21.514  0.00  0.00     0.210 HD
ATOM    130  H   NTO d 869     -11.003  19.092 -22.472  0.00  0.00     0.104 H 
ATOM    131  H   NTO d 869     -25.756  18.147 -22.394  0.00  0.00     0.210 HD
ATOM    132  H   NTO d 869     -25.125  15.488 -17.093  0.00  0.00     0.080 H 
ATOM    133  H   NTO d 869     -25.079  14.181 -18.268  0.00  0.00     0.080 H 
ATOM    134  H   NTO d 869     -13.216  20.121 -17.479  0.00  0.00     0.140 HD
ATOM    135  H   NTO d 869     -12.638  20.703 -21.943  0.00  0.00     0.092 H 
ATOM    136  H   NTO d 869     -25.783  18.237 -23.638  0.00  0.00     0.231 HD
ATOM    137  H   NTO d 869     -20.191  15.332 -21.893  0.00  0.00     0.210 HD
ATOM    138  H   NTO d 869      -8.376  17.424 -19.965  0.00  0.00     0.091 H 
ATOM    139  H   NTO d 869     -23.029  15.486 -24.700  0.00  0.00     0.231 HD
ATOM    140  H   NTO d 869     -23.525  16.775 -18.463  0.00  0.00     0.090 H 
ATOM    141  H   NTO d 869     -24.397  18.206 -20.514  0.00  0.00     0.089 H 
ATOM    142  H   NTO d 869     -18.396  18.282 -23.309  0.00  0.00     0.210 HD
ATOM    143  H   NTO d 869     -16.994  20.471 -20.035  0.00  0.00     0.091 H 
ENDROOT
TORSDOF 46
ENDMDL
MODEL 17
REMARK VINA RESULT:      -7.4      2.902      3.695
REMARK  0 active torsions:
REMARK  status: ('A' for Active; 'I' for Inactive)
REMARK       I    between atoms: O4A_2  and  C49_47 
REMARK       I    between atoms: O4A_2  and  S4B_15 
REMARK       I    between atoms: C3F_4  and  N3G_69 
REMARK       I    between atoms: S17_5  and  O16_54 
REMARK       I    between atoms: C5L_6  and  O5M_26 
REMARK       I    between atoms: C4F_7  and  O4G_60 
REMARK       I    between atoms: N1F_9  and  C1E_19 
REMARK       I    between atoms: N1F_9  and  S1G_71 
REMARK       I    between atoms: O5J_11  and  S5H_38 
REMARK       I    between atoms: C3L_12  and  O3M_62 
REMARK       I    between atoms: C29_13  and  O2A_90 
REMARK       I    between atoms: S3B_14  and  O3A_85 
REMARK       I    between atoms: C20_18  and  O1L_72 
REMARK       I    between atoms: O3J_20  and  S3H_80 
REMARK       I    between atoms: C31_23  and  C33_44 
REMARK       I    between atoms: C46_25  and  O47_33 
REMARK       I    between atoms: O5M_26  and  C5N_35 
REMARK       I    between atoms: C51_28  and  C53_48 
REMARK       I    between atoms: C5F_29  and  N5G_43 
REMARK       I    between atoms: C59_30  and  O5A_59 
REMARK       I    between atoms: C21_31  and  C23_64 
REMARK       I    between atoms: C26_32  and  O27_76 
REMARK       I    between atoms: O1J_34  and  S1G_71 
REMARK       I    between atoms: O3K_36  and  S3H_80 
REMARK       I    between atoms: O5I_37  and  S5H_38 
REMARK       I    between atoms: S5H_38  and  O5K_53 
REMARK       I    between atoms: S5H_38  and  N5G_43 
REMARK       I    between atoms: C39_39  and  O3A_85 
REMARK       I    between atoms: C1K_40  and  O1L_72 
REMARK       I    between atoms: C2C_41  and  O2D_45 
REMARK       I    between atoms: C33_44  and  O34_74 
REMARK       I    between atoms: O2D_45  and  C30_91 
REMARK       I    between atoms: C12_46  and  O10_51 
REMARK       I    between atoms: C53_48  and  O54_57 
REMARK       I    between atoms: O3I_50  and  S3H_80 
REMARK       I    between atoms: O16_54  and  C15_68 
REMARK       I    between atoms: C43_56  and  C41_65 
REMARK       I    between atoms: O54_57  and  S55_58 
REMARK       I    between atoms: O4G_60  and  C50_77 
REMARK       I    between atoms: O3M_62  and  C40_70 
REMARK       I    between atoms: O1C_67  and  C1B_86 
REMARK       I    between atoms: C15_68  and  C13_83 
REMARK       I    between atoms: N3G_69  and  S3H_80 
REMARK       I    between atoms: S1G_71  and  O1H_75 
REMARK       I    between atoms: S1G_71  and  O1I_82 
REMARK       I    between atoms: O34_74  and  S35_81 
ROOT
ATOM      1  O42 NTO d 869     -18.976  19.079 -18.339  0.00  0.00    -0.340 OA
ATOM      2  O4A NTO d 869     -21.665  20.524 -20.385  0.00  0.00    -0.244 OA
ATOM      3  O32 NTO d 869     -15.973  20.321 -22.224  0.00  0.00    -0.349 OA
ATOM      4  C3F NTO d 869     -16.055  17.935 -22.536  0.00  0.00     0.083 C 
ATOM      5  S17 NTO d 869      -5.531  12.952 -19.624  0.00  0.00     0.251 S 
ATOM      6  C5L NTO d 869     -22.285  18.282 -13.932  0.00  0.00     0.149 C 
ATOM      7  C4F NTO d 869     -20.322  19.445 -18.676  0.00  0.00     0.161 C 
ATOM      8  O14 NTO d 869      -6.063  16.957 -20.107  0.00  0.00    -0.349 OA
ATOM      9  N1F NTO d 869      -6.197  20.491 -21.147  0.00  0.00    -0.210 NA
ATOM     10  O37 NTO d 869     -12.672  23.764 -22.035  0.00  0.00    -0.572 OA
ATOM     11  O5J NTO d 869     -20.226  16.971 -11.995  0.00  0.00    -0.296 OA
ATOM     12  C3L NTO d 869     -16.837  19.179 -22.117  0.00  0.00     0.150 C 
ATOM     13  C29 NTO d 869     -10.785  19.455 -19.818  0.00  0.00     0.110 C 
ATOM     14  S3B NTO d 869     -14.294  15.550 -20.948  0.00  0.00     0.252 S 
ATOM     15  S4B NTO d 869     -22.139  21.873 -20.429  0.00  0.00     0.252 S 
ATOM     16  O24 NTO d 869     -10.095  15.551 -22.427  0.00  0.00    -0.646 OA
ATOM     17  O45 NTO d 869     -16.072  18.720 -18.646  0.00  0.00    -0.646 OA
ATOM     18  C20 NTO d 869      -8.970  18.141 -20.900  0.00  0.00     0.103 C 
ATOM     19  C1E NTO d 869      -5.579  19.183 -20.898  0.00  0.00     0.081 C 
ATOM     20  O3J NTO d 869     -18.370  15.688 -24.375  0.00  0.00    -0.296 OA
ATOM     21  O38 NTO d 869     -12.691  23.094 -24.395  0.00  0.00    -0.572 OA
ATOM     22  O18 NTO d 869      -5.010  13.249 -18.250  0.00  0.00    -0.572 OA
ATOM     23  C31 NTO d 869     -14.894  20.238 -21.279  0.00  0.00     0.091 C 
ATOM     24  O52 NTO d 869     -22.752  17.733 -15.175  0.00  0.00    -0.349 OA
ATOM     25  C46 NTO d 869     -19.327  20.104 -20.881  0.00  0.00     0.094 C 
ATOM     26  O5M NTO d 869     -23.130  19.333 -13.446  0.00  0.00    -0.364 OA
ATOM     27  O3D NTO d 869     -13.457  14.374 -21.357  0.00  0.00    -0.572 OA
ATOM     28  C51 NTO d 869     -22.613  18.642 -16.279  0.00  0.00     0.091 C 
ATOM     29  C5F NTO d 869     -20.829  18.740 -14.031  0.00  0.00     0.081 C 
ATOM     30  C59 NTO d 869     -20.643  19.697 -15.210  0.00  0.00     0.083 C 
ATOM     31  C21 NTO d 869      -9.930  17.901 -22.055  0.00  0.00     0.152 C 
ATOM     32  C26 NTO d 869      -9.326  19.490 -20.279  0.00  0.00     0.092 C 
ATOM     33  O47 NTO d 869     -19.392  21.056 -21.948  0.00  0.00    -0.390 OA
ATOM     34  O1J NTO d 869      -5.754  23.001 -21.051  0.00  0.00    -0.296 OA
ATOM     35  C5N NTO d 869     -24.236  18.752 -12.747  0.00  0.00     0.007 C 
ATOM     36  O3K NTO d 869     -17.997  18.095 -24.465  0.00  0.00    -0.296 OA
ATOM     37  O5I NTO d 869     -18.200  18.337 -12.154  0.00  0.00    -0.296 OA
ATOM     38  S5H NTO d 869     -19.659  18.346 -11.808  0.00  0.00     0.156 S 
ATOM     39  C39 NTO d 869     -14.910  17.749 -21.540  0.00  0.00     0.108 C 
ATOM     40  C1K NTO d 869      -6.658  18.236 -20.372  0.00  0.00     0.150 C 
ATOM     41  C2C NTO d 869     -11.707  19.068 -20.977  0.00  0.00     0.160 C 
ATOM     42  O19 NTO d 869      -4.455  12.303 -20.443  0.00  0.00    -0.572 OA
ATOM     43  N5G NTO d 869     -20.431  19.404 -12.781  0.00  0.00    -0.210 NA
ATOM     44  C33 NTO d 869     -14.016  21.487 -21.398  0.00  0.00     0.067 C 
ATOM     45  O2D NTO d 869     -13.047  18.930 -20.473  0.00  0.00    -0.348 OA
ATOM     46  C12 NTO d 869      -4.533  17.192 -21.997  0.00  0.00     0.089 C 
ATOM     47  C49 NTO d 869     -20.356  20.472 -19.812  0.00  0.00     0.134 C 
ATOM     48  C53 NTO d 869     -23.112  17.915 -17.529  0.00  0.00     0.067 C 
ATOM     49  O4D NTO d 869     -21.459  22.610 -21.543  0.00  0.00    -0.572 OA
ATOM     50  O3I NTO d 869     -19.466  17.150 -22.743  0.00  0.00    -0.296 OA
ATOM     51  O10 NTO d 869      -4.224  16.620 -23.270  0.00  0.00    -0.390 OA
ATOM     52  O1A NTO d 869      -6.711  12.035 -19.519  0.00  0.00    -0.572 OA
ATOM     53  O5K NTO d 869     -19.837  18.753 -10.375  0.00  0.00    -0.296 OA
ATOM     54  O16 NTO d 869      -5.942  14.173 -20.251  0.00  0.00    -0.254 OA
ATOM     55  O56 NTO d 869     -21.690  15.881 -19.859  0.00  0.00    -0.572 OA
ATOM     56  C43 NTO d 869     -16.649  19.736 -18.195  0.00  0.00     0.206 C 
ATOM     57  O54 NTO d 869     -22.398  16.691 -17.712  0.00  0.00    -0.254 OA
ATOM     58  S55 NTO d 869     -22.730  15.800 -18.783  0.00  0.00     0.251 S 
ATOM     59  O5A NTO d 869     -19.251  19.983 -15.381  0.00  0.00    -0.391 OA
ATOM     60  O4G NTO d 869     -21.039  19.985 -17.557  0.00  0.00    -0.348 OA
ATOM     61  O3C NTO d 869     -15.733  15.131 -20.906  0.00  0.00    -0.572 OA
ATOM     62  O3M NTO d 869     -17.217  18.987 -20.747  0.00  0.00    -0.348 OA
ATOM     63  O44 NTO d 869     -16.153  20.492 -17.320  0.00  0.00    -0.646 OA
ATOM     64  C23 NTO d 869      -9.515  16.614 -22.753  0.00  0.00     0.206 C 
ATOM     65  C41 NTO d 869     -18.025  20.079 -18.745  0.00  0.00     0.152 C 
ATOM     66  O22 NTO d 869     -11.288  17.834 -21.583  0.00  0.00    -0.340 OA
ATOM     67  O1C NTO d 869      -3.949  19.442 -22.666  0.00  0.00    -0.391 OA
ATOM     68  C15 NTO d 869      -4.997  14.984 -20.952  0.00  0.00     0.067 C 
ATOM     69  N3G NTO d 869     -16.946  16.760 -22.535  0.00  0.00    -0.210 NA
ATOM     70  C40 NTO d 869     -17.931  20.131 -20.263  0.00  0.00     0.103 C 
ATOM     71  S1G NTO d 869      -5.136  21.666 -20.759  0.00  0.00     0.156 S 
ATOM     72  O1L NTO d 869      -7.633  18.124 -21.418  0.00  0.00    -0.348 OA
ATOM     73  O57 NTO d 869     -24.063  16.187 -19.353  0.00  0.00    -0.572 OA
ATOM     74  O34 NTO d 869     -13.407  21.580 -22.690  0.00  0.00    -0.254 OA
ATOM     75  O1H NTO d 869      -3.885  21.492 -21.567  0.00  0.00    -0.296 OA
ATOM     76  O27 NTO d 869      -8.483  19.746 -19.151  0.00  0.00    -0.390 OA
ATOM     77  C50 NTO d 869     -21.159  19.036 -16.487  0.00  0.00     0.095 C 
ATOM     78  O3E NTO d 869     -13.875  16.012 -19.584  0.00  0.00    -0.572 OA
ATOM     79  O25 NTO d 869      -8.599  16.682 -23.606  0.00  0.00    -0.646 OA
ATOM     80  S3H NTO d 869     -18.218  16.930 -23.547  0.00  0.00     0.156 S 
ATOM     81  S35 NTO d 869     -12.471  22.624 -22.989  0.00  0.00     0.251 S 
ATOM     82  O1I NTO d 869      -4.811  21.574 -19.296  0.00  0.00    -0.296 OA
ATOM     83  C13 NTO d 869      -5.608  16.338 -21.321  0.00  0.00     0.090 C 
ATOM     84  O58 NTO d 869     -22.798  14.401 -18.251  0.00  0.00    -0.572 OA
ATOM     85  O3A NTO d 869     -14.124  16.607 -21.899  0.00  0.00    -0.247 OA
ATOM     86  C1B NTO d 869      -5.030  18.625 -22.211  0.00  0.00     0.083 C 
ATOM     87  O4C NTO d 869     -21.850  22.551 -19.122  0.00  0.00    -0.572 OA
ATOM     88  O4E NTO d 869     -23.620  21.855 -20.658  0.00  0.00    -0.572 OA
ATOM     89  O36 NTO d 869     -11.070  22.107 -22.854  0.00  0.00    -0.572 OA
ATOM     90  O2A NTO d 869     -11.155  20.741 -19.320  0.00  0.00    -0.388 OA
ATOM     91  C30 NTO d 869     -14.033  19.005 -21.514  0.00  0.00     0.096 C 
ATOM     92  H   NTO d 869     -15.663  18.046 -23.526  0.00  0.00     0.076 H 
ATOM     93  H   NTO d 869     -22.331  17.492 -13.213  0.00  0.00     0.131 H 
ATOM     94  H   NTO d 869     -20.798  18.539 -18.989  0.00  0.00     0.133 H 
ATOM     95  H   NTO d 869      -7.036  20.587 -20.574  0.00  0.00     0.140 HD
ATOM     96  H   NTO d 869     -19.762  16.348 -11.413  0.00  0.00     0.231 HD
ATOM     97  H   NTO d 869     -17.699  19.334 -22.733  0.00  0.00     0.131 H 
ATOM     98  H   NTO d 869     -10.884  18.723 -19.044  0.00  0.00     0.094 H 
ATOM     99  H   NTO d 869      -9.043  17.385 -20.146  0.00  0.00     0.092 H 
ATOM    100  H   NTO d 869      -4.783  19.280 -20.189  0.00  0.00     0.076 H 
ATOM    101  H   NTO d 869     -19.125  15.790 -24.975  0.00  0.00     0.231 HD
ATOM    102  H   NTO d 869     -15.321  20.170 -20.300  0.00  0.00     0.090 H 
ATOM    103  H   NTO d 869     -19.535  19.126 -21.262  0.00  0.00     0.091 H 
ATOM    104  H   NTO d 869     -23.174  19.532 -16.083  0.00  0.00     0.090 H 
ATOM    105  H   NTO d 869     -20.211  17.882 -14.192  0.00  0.00     0.076 H 
ATOM    106  H   NTO d 869     -21.183  20.600 -15.017  0.00  0.00     0.089 H 
ATOM    107  H   NTO d 869      -9.887  18.713 -22.751  0.00  0.00     0.104 H 
ATOM    108  H   NTO d 869      -9.187  20.264 -21.005  0.00  0.00     0.091 H 
ATOM    109  H   NTO d 869     -19.203  21.942 -21.602  0.00  0.00     0.210 HD
ATOM    110  H   NTO d 869      -5.964  23.060 -21.997  0.00  0.00     0.231 HD
ATOM    111  H   NTO d 869     -24.874  19.529 -12.380  0.00  0.00     0.066 H 
ATOM    112  H   NTO d 869     -23.874  18.170 -11.926  0.00  0.00     0.066 H 
ATOM    113  H   NTO d 869     -24.788  18.123 -13.414  0.00  0.00     0.066 H 
ATOM    114  H   NTO d 869     -18.758  18.185 -25.060  0.00  0.00     0.231 HD
ATOM    115  H   NTO d 869     -17.736  17.709 -11.579  0.00  0.00     0.231 HD
ATOM    116  H   NTO d 869     -15.320  17.590 -20.564  0.00  0.00     0.092 H 
ATOM    117  H   NTO d 869      -7.106  18.593 -19.468  0.00  0.00     0.131 H 
ATOM    118  H   NTO d 869     -11.667  19.832 -21.723  0.00  0.00     0.133 H 
ATOM    119  H   NTO d 869     -21.262  19.755 -12.306  0.00  0.00     0.140 HD
ATOM    120  H   NTO d 869     -13.247  21.445 -20.655  0.00  0.00     0.080 H 
ATOM    121  H   NTO d 869     -14.636  22.348 -21.257  0.00  0.00     0.080 H 
ATOM    122  H   NTO d 869      -3.668  17.217 -21.369  0.00  0.00     0.091 H 
ATOM    123  H   NTO d 869     -20.114  21.436 -19.416  0.00  0.00     0.097 H 
ATOM    124  H   NTO d 869     -22.963  18.541 -18.384  0.00  0.00     0.080 H 
ATOM    125  H   NTO d 869     -24.153  17.695 -17.412  0.00  0.00     0.080 H 
ATOM    126  H   NTO d 869     -20.222  17.251 -23.342  0.00  0.00     0.231 HD
ATOM    127  H   NTO d 869      -5.021  16.609 -23.822  0.00  0.00     0.210 HD
ATOM    128  H   NTO d 869     -19.376  18.122  -9.801  0.00  0.00     0.231 HD
ATOM    129  H   NTO d 869     -18.771  19.159 -15.556  0.00  0.00     0.210 HD
ATOM    130  H   NTO d 869     -18.351  21.026 -18.368  0.00  0.00     0.104 H 
ATOM    131  H   NTO d 869      -4.264  20.349 -22.802  0.00  0.00     0.210 HD
ATOM    132  H   NTO d 869      -4.699  14.479 -21.848  0.00  0.00     0.080 H 
ATOM    133  H   NTO d 869      -4.151  15.151 -20.318  0.00  0.00     0.080 H 
ATOM    134  H   NTO d 869     -17.300  16.620 -21.588  0.00  0.00     0.140 HD
ATOM    135  H   NTO d 869     -17.425  21.033 -20.534  0.00  0.00     0.092 H 
ATOM    136  H   NTO d 869      -4.099  21.552 -22.511  0.00  0.00     0.231 HD
ATOM    137  H   NTO d 869      -8.606  19.046 -18.490  0.00  0.00     0.210 HD
ATOM    138  H   NTO d 869     -20.597  18.157 -16.727  0.00  0.00     0.091 H 
ATOM    139  H   NTO d 869      -5.623  21.688 -18.778  0.00  0.00     0.231 HD
ATOM    140  H   NTO d 869      -6.431  16.230 -21.997  0.00  0.00     0.090 H 
ATOM    141  H   NTO d 869      -5.808  18.623 -22.945  0.00  0.00     0.089 H 
ATOM    142  H   NTO d 869     -11.062  21.400 -20.025  0.00  0.00     0.210 HD
ATOM    143  H   NTO d 869     -13.537  19.072 -22.460  0.00  0.00     0.091 H 
ENDROOT
TORSDOF 46
ENDMDL
MODEL 18
REMARK VINA RESULT:      -7.3      3.765      5.338
REMARK  0 active torsions:
REMARK  status: ('A' for Active; 'I' for Inactive)
REMARK       I    between atoms: O4A_2  and  C49_47 
REMARK       I    between atoms: O4A_2  and  S4B_15 
REMARK       I    between atoms: C3F_4  and  N3G_69 
REMARK       I    between atoms: S17_5  and  O16_54 
REMARK       I    between atoms: C5L_6  and  O5M_26 
REMARK       I    between atoms: C4F_7  and  O4G_60 
REMARK       I    between atoms: N1F_9  and  C1E_19 
REMARK       I    between atoms: N1F_9  and  S1G_71 
REMARK       I    between atoms: O5J_11  and  S5H_38 
REMARK       I    between atoms: C3L_12  and  O3M_62 
REMARK       I    between atoms: C29_13  and  O2A_90 
REMARK       I    between atoms: S3B_14  and  O3A_85 
REMARK       I    between atoms: C20_18  and  O1L_72 
REMARK       I    between atoms: O3J_20  and  S3H_80 
REMARK       I    between atoms: C31_23  and  C33_44 
REMARK       I    between atoms: C46_25  and  O47_33 
REMARK       I    between atoms: O5M_26  and  C5N_35 
REMARK       I    between atoms: C51_28  and  C53_48 
REMARK       I    between atoms: C5F_29  and  N5G_43 
REMARK       I    between atoms: C59_30  and  O5A_59 
REMARK       I    between atoms: C21_31  and  C23_64 
REMARK       I    between atoms: C26_32  and  O27_76 
REMARK       I    between atoms: O1J_34  and  S1G_71 
REMARK       I    between atoms: O3K_36  and  S3H_80 
REMARK       I    between atoms: O5I_37  and  S5H_38 
REMARK       I    between atoms: S5H_38  and  O5K_53 
REMARK       I    between atoms: S5H_38  and  N5G_43 
REMARK       I    between atoms: C39_39  and  O3A_85 
REMARK       I    between atoms: C1K_40  and  O1L_72 
REMARK       I    between atoms: C2C_41  and  O2D_45 
REMARK       I    between atoms: C33_44  and  O34_74 
REMARK       I    between atoms: O2D_45  and  C30_91 
REMARK       I    between atoms: C12_46  and  O10_51 
REMARK       I    between atoms: C53_48  and  O54_57 
REMARK       I    between atoms: O3I_50  and  S3H_80 
REMARK       I    between atoms: O16_54  and  C15_68 
REMARK       I    between atoms: C43_56  and  C41_65 
REMARK       I    between atoms: O54_57  and  S55_58 
REMARK       I    between atoms: O4G_60  and  C50_77 
REMARK       I    between atoms: O3M_62  and  C40_70 
REMARK       I    between atoms: O1C_67  and  C1B_86 
REMARK       I    between atoms: C15_68  and  C13_83 
REMARK       I    between atoms: N3G_69  and  S3H_80 
REMARK       I    between atoms: S1G_71  and  O1H_75 
REMARK       I    between atoms: S1G_71  and  O1I_82 
REMARK       I    between atoms: O34_74  and  S35_81 
ROOT
ATOM      1  O42 NTO d 869     -19.137  16.820 -15.371  0.00  0.00    -0.340 OA
ATOM      2  O4A NTO d 869     -22.256  18.608 -14.606  0.00  0.00    -0.244 OA
ATOM      3  O32 NTO d 869     -17.874  21.034 -17.882  0.00  0.00    -0.349 OA
ATOM      4  C3F NTO d 869     -18.333  19.584 -19.749  0.00  0.00     0.083 C 
ATOM      5  S17 NTO d 869      -8.141  16.556 -25.319  0.00  0.00     0.251 S 
ATOM      6  C5L NTO d 869     -20.416  12.486 -12.118  0.00  0.00     0.149 C 
ATOM      7  C4F NTO d 869     -20.456  16.996 -14.832  0.00  0.00     0.161 C 
ATOM      8  O14 NTO d 869      -8.390  19.527 -22.551  0.00  0.00    -0.349 OA
ATOM      9  N1F NTO d 869      -8.558  22.648 -20.595  0.00  0.00    -0.210 NA
ATOM     10  O37 NTO d 869     -14.437  24.033 -16.478  0.00  0.00    -0.572 OA
ATOM     11  O5J NTO d 869     -17.899  10.721 -12.628  0.00  0.00    -0.296 OA
ATOM     12  C3L NTO d 869     -18.736  19.975 -18.328  0.00  0.00     0.150 C 
ATOM     13  C29 NTO d 869     -12.281  19.970 -18.906  0.00  0.00     0.110 C 
ATOM     14  S3B NTO d 869     -16.343  17.251 -21.132  0.00  0.00     0.252 S 
ATOM     15  S4B NTO d 869     -22.559  19.459 -13.497  0.00  0.00     0.252 S 
ATOM     16  O24 NTO d 869     -13.145  19.230 -23.514  0.00  0.00    -0.646 OA
ATOM     17  O45 NTO d 869     -16.671  17.448 -16.846  0.00  0.00    -0.646 OA
ATOM     18  C20 NTO d 869     -11.222  20.223 -21.143  0.00  0.00     0.103 C 
ATOM     19  C1E NTO d 869      -8.036  21.717 -21.603  0.00  0.00     0.081 C 
ATOM     20  O3J NTO d 869     -21.424  18.769 -21.638  0.00  0.00    -0.296 OA
ATOM     21  O38 NTO d 869     -15.492  25.189 -18.368  0.00  0.00    -0.572 OA
ATOM     22  O18 NTO d 869      -7.074  15.935 -24.467  0.00  0.00    -0.572 OA
ATOM     23  C31 NTO d 869     -16.519  20.574 -17.758  0.00  0.00     0.091 C 
ATOM     24  O52 NTO d 869     -21.407  12.854 -13.091  0.00  0.00    -0.349 OA
ATOM     25  C46 NTO d 869     -20.387  19.194 -16.037  0.00  0.00     0.094 C 
ATOM     26  O5M NTO d 869     -20.870  12.682 -10.773  0.00  0.00    -0.364 OA
ATOM     27  O3D NTO d 869     -15.878  16.914 -22.517  0.00  0.00    -0.572 OA
ATOM     28  C51 NTO d 869     -21.636  14.271 -13.152  0.00  0.00     0.091 C 
ATOM     29  C5F NTO d 869     -19.089  13.203 -12.368  0.00  0.00     0.081 C 
ATOM     30  C59 NTO d 869     -19.300  14.715 -12.457  0.00  0.00     0.083 C 
ATOM     31  C21 NTO d 869     -12.590  20.632 -21.666  0.00  0.00     0.152 C 
ATOM     32  C26 NTO d 869     -11.145  20.645 -19.677  0.00  0.00     0.092 C 
ATOM     33  O47 NTO d 869     -20.780  20.569 -15.973  0.00  0.00    -0.390 OA
ATOM     34  O1J NTO d 869      -7.848  24.414 -18.898  0.00  0.00    -0.296 OA
ATOM     35  C5N NTO d 869     -21.649  11.549 -10.375  0.00  0.00     0.007 C 
ATOM     36  O3K NTO d 869     -20.865  20.575 -20.101  0.00  0.00    -0.296 OA
ATOM     37  O5I NTO d 869     -15.982  12.237 -12.467  0.00  0.00    -0.296 OA
ATOM     38  S5H NTO d 869     -17.161  11.671 -11.733  0.00  0.00     0.156 S 
ATOM     39  C39 NTO d 869     -16.907  19.033 -19.692  0.00  0.00     0.108 C 
ATOM     40  C1K NTO d 869      -8.901  20.455 -21.581  0.00  0.00     0.150 C 
ATOM     41  C2C NTO d 869     -13.634  20.289 -19.550  0.00  0.00     0.160 C 
ATOM     42  O19 NTO d 869      -7.572  16.917 -26.658  0.00  0.00    -0.572 OA
ATOM     43  N5G NTO d 869     -18.145  12.893 -11.284  0.00  0.00    -0.210 NA
ATOM     44  C33 NTO d 869     -15.638  21.719 -17.248  0.00  0.00     0.067 C 
ATOM     45  O2D NTO d 869     -14.655  19.541 -18.870  0.00  0.00    -0.348 OA
ATOM     46  C12 NTO d 869      -7.753  21.338 -24.061  0.00  0.00     0.089 C 
ATOM     47  C49 NTO d 869     -20.842  18.477 -14.766  0.00  0.00     0.134 C 
ATOM     48  C53 NTO d 869     -22.679  14.515 -14.246  0.00  0.00     0.067 C 
ATOM     49  O4D NTO d 869     -22.320  20.889 -13.880  0.00  0.00    -0.572 OA
ATOM     50  O3I NTO d 869     -21.592  18.405 -19.221  0.00  0.00    -0.296 OA
ATOM     51  O10 NTO d 869      -8.055  21.889 -25.345  0.00  0.00    -0.390 OA
ATOM     52  O1A NTO d 869      -9.266  15.581 -25.492  0.00  0.00    -0.572 OA
ATOM     53  O5K NTO d 869     -16.692  10.927 -10.518  0.00  0.00    -0.296 OA
ATOM     54  O16 NTO d 869      -8.638  17.734 -24.674  0.00  0.00    -0.254 OA
ATOM     55  O56 NTO d 869     -22.562  15.039 -17.608  0.00  0.00    -0.572 OA
ATOM     56  C43 NTO d 869     -16.900  17.707 -15.643  0.00  0.00     0.206 C 
ATOM     57  O54 NTO d 869     -22.237  13.960 -15.486  0.00  0.00    -0.254 OA
ATOM     58  S55 NTO d 869     -23.073  14.006 -16.648  0.00  0.00     0.251 S 
ATOM     59  O5A NTO d 869     -18.078  15.348 -12.850  0.00  0.00    -0.391 OA
ATOM     60  O4G NTO d 869     -20.589  16.436 -13.517  0.00  0.00    -0.348 OA
ATOM     61  O3C NTO d 869     -17.675  16.605 -20.894  0.00  0.00    -0.572 OA
ATOM     62  O3M NTO d 869     -18.540  18.815 -17.508  0.00  0.00    -0.348 OA
ATOM     63  O44 NTO d 869     -16.011  17.741 -14.752  0.00  0.00    -0.646 OA
ATOM     64  C23 NTO d 869     -12.638  20.319 -23.154  0.00  0.00     0.206 C 
ATOM     65  C41 NTO d 869     -18.335  18.007 -15.237  0.00  0.00     0.152 C 
ATOM     66  O22 NTO d 869     -13.634  19.951 -20.947  0.00  0.00    -0.340 OA
ATOM     67  O1C NTO d 869      -7.256  23.483 -23.059  0.00  0.00    -0.391 OA
ATOM     68  C15 NTO d 869      -7.983  18.991 -24.851  0.00  0.00     0.067 C 
ATOM     69  N3G NTO d 869     -19.266  18.570 -20.272  0.00  0.00    -0.210 NA
ATOM     70  C40 NTO d 869     -18.866  19.107 -16.144  0.00  0.00     0.103 C 
ATOM     71  S1G NTO d 869      -7.312  23.434 -19.899  0.00  0.00     0.156 S 
ATOM     72  O1L NTO d 869     -10.224  20.873 -21.942  0.00  0.00    -0.348 OA
ATOM     73  O57 NTO d 869     -24.472  14.359 -16.239  0.00  0.00    -0.572 OA
ATOM     74  O34 NTO d 869     -15.606  22.809 -18.174  0.00  0.00    -0.254 OA
ATOM     75  O1H NTO d 869      -6.528  24.156 -20.954  0.00  0.00    -0.296 OA
ATOM     76  O27 NTO d 869      -9.892  20.240 -19.118  0.00  0.00    -0.390 OA
ATOM     77  C50 NTO d 869     -20.362  15.019 -13.513  0.00  0.00     0.095 C 
ATOM     78  O3E NTO d 869     -15.355  16.728 -20.131  0.00  0.00    -0.572 OA
ATOM     79  O25 NTO d 869     -12.151  21.162 -23.944  0.00  0.00    -0.646 OA
ATOM     80  S3H NTO d 869     -20.814  19.091 -20.305  0.00  0.00     0.156 S 
ATOM     81  S35 NTO d 869     -14.768  23.949 -17.939  0.00  0.00     0.251 S 
ATOM     82  O1I NTO d 869      -6.428  22.441 -19.203  0.00  0.00    -0.296 OA
ATOM     83  C13 NTO d 869      -8.542  20.039 -23.884  0.00  0.00     0.090 C 
ATOM     84  O58 NTO d 869     -23.067  12.660 -17.308  0.00  0.00    -0.572 OA
ATOM     85  O3A NTO d 869     -16.465  18.672 -21.006  0.00  0.00    -0.247 OA
ATOM     86  C1B NTO d 869      -8.137  22.360 -22.987  0.00  0.00     0.083 C 
ATOM     87  O4C NTO d 869     -21.689  19.095 -12.330  0.00  0.00    -0.572 OA
ATOM     88  O4E NTO d 869     -23.997  19.266 -13.120  0.00  0.00    -0.572 OA
ATOM     89  O36 NTO d 869     -13.499  23.820 -18.727  0.00  0.00    -0.572 OA
ATOM     90  O2A NTO d 869     -12.275  20.430 -17.554  0.00  0.00    -0.388 OA
ATOM     91  C30 NTO d 869     -15.967  20.082 -19.090  0.00  0.00     0.096 C 
ATOM     92  H   NTO d 869     -18.371  20.431 -20.403  0.00  0.00     0.076 H 
ATOM     93  H   NTO d 869     -20.248  11.436 -12.236  0.00  0.00     0.131 H 
ATOM     94  H   NTO d 869     -21.112  16.478 -15.499  0.00  0.00     0.133 H 
ATOM     95  H   NTO d 869      -9.073  22.128 -19.885  0.00  0.00     0.140 HD
ATOM     96  H   NTO d 869     -17.307   9.998 -12.891  0.00  0.00     0.231 HD
ATOM     97  H   NTO d 869     -19.752  20.308 -18.280  0.00  0.00     0.131 H 
ATOM     98  H   NTO d 869     -12.133  18.911 -18.931  0.00  0.00     0.094 H 
ATOM     99  H   NTO d 869     -11.060  19.167 -21.206  0.00  0.00     0.092 H 
ATOM    100  H   NTO d 869      -7.015  21.478 -21.392  0.00  0.00     0.076 H 
ATOM    101  H   NTO d 869     -22.343  19.079 -21.656  0.00  0.00     0.231 HD
ATOM    102  H   NTO d 869     -16.512  19.757 -17.068  0.00  0.00     0.090 H 
ATOM    103  H   NTO d 869     -20.836  18.734 -16.892  0.00  0.00     0.091 H 
ATOM    104  H   NTO d 869     -21.969  14.623 -12.197  0.00  0.00     0.090 H 
ATOM    105  H   NTO d 869     -18.686  12.863 -13.299  0.00  0.00     0.076 H 
ATOM    106  H   NTO d 869     -19.613  15.081 -11.502  0.00  0.00     0.089 H 
ATOM    107  H   NTO d 869     -12.749  21.680 -21.517  0.00  0.00     0.104 H 
ATOM    108  H   NTO d 869     -11.233  21.710 -19.608  0.00  0.00     0.091 H 
ATOM    109  H   NTO d 869     -20.372  20.985 -15.197  0.00  0.00     0.210 HD
ATOM    110  H   NTO d 869      -8.419  25.056 -19.349  0.00  0.00     0.231 HD
ATOM    111  H   NTO d 869     -21.992  11.687  -9.371  0.00  0.00     0.066 H 
ATOM    112  H   NTO d 869     -21.047  10.666 -10.429  0.00  0.00     0.066 H 
ATOM    113  H   NTO d 869     -22.490  11.448 -11.030  0.00  0.00     0.066 H 
ATOM    114  H   NTO d 869     -21.788  20.873 -20.122  0.00  0.00     0.231 HD
ATOM    115  H   NTO d 869     -15.393  11.515 -12.737  0.00  0.00     0.231 HD
ATOM    116  H   NTO d 869     -16.897  18.159 -19.075  0.00  0.00     0.092 H 
ATOM    117  H   NTO d 869      -8.898  19.977 -20.624  0.00  0.00     0.131 H 
ATOM    118  H   NTO d 869     -13.821  21.338 -19.465  0.00  0.00     0.133 H 
ATOM    119  H   NTO d 869     -18.666  12.618 -10.452  0.00  0.00     0.140 HD
ATOM    120  H   NTO d 869     -14.642  21.354 -17.106  0.00  0.00     0.080 H 
ATOM    121  H   NTO d 869     -16.049  22.073 -16.326  0.00  0.00     0.080 H 
ATOM    122  H   NTO d 869      -6.709  21.121 -23.975  0.00  0.00     0.091 H 
ATOM    123  H   NTO d 869     -20.356  18.925 -13.924  0.00  0.00     0.097 H 
ATOM    124  H   NTO d 869     -22.826  15.568 -14.363  0.00  0.00     0.080 H 
ATOM    125  H   NTO d 869     -23.597  14.044 -13.962  0.00  0.00     0.080 H 
ATOM    126  H   NTO d 869     -22.512  18.713 -19.239  0.00  0.00     0.231 HD
ATOM    127  H   NTO d 869      -9.005  22.078 -25.400  0.00  0.00     0.210 HD
ATOM    128  H   NTO d 869     -16.107  10.202 -10.790  0.00  0.00     0.231 HD
ATOM    129  H   NTO d 869     -17.804  15.010 -13.716  0.00  0.00     0.210 HD
ATOM    130  H   NTO d 869     -18.374  18.326 -14.216  0.00  0.00     0.104 H 
ATOM    131  H   NTO d 869      -7.500  24.130 -22.378  0.00  0.00     0.210 HD
ATOM    132  H   NTO d 869      -8.133  19.327 -25.856  0.00  0.00     0.080 H 
ATOM    133  H   NTO d 869      -6.939  18.864 -24.652  0.00  0.00     0.080 H 
ATOM    134  H   NTO d 869     -19.213  17.741 -19.679  0.00  0.00     0.140 HD
ATOM    135  H   NTO d 869     -18.421  20.031 -15.841  0.00  0.00     0.092 H 
ATOM    136  H   NTO d 869      -7.102  24.797 -21.401  0.00  0.00     0.231 HD
ATOM    137  H   NTO d 869      -9.808  19.275 -19.178  0.00  0.00     0.210 HD
ATOM    138  H   NTO d 869     -20.045  14.706 -14.486  0.00  0.00     0.091 H 
ATOM    139  H   NTO d 869      -6.939  21.976 -18.521  0.00  0.00     0.231 HD
ATOM    140  H   NTO d 869      -9.576  20.240 -24.074  0.00  0.00     0.090 H 
ATOM    141  H   NTO d 869      -9.143  22.685 -23.151  0.00  0.00     0.089 H 
ATOM    142  H   NTO d 869     -12.409  21.391 -17.538  0.00  0.00     0.210 HD
ATOM    143  H   NTO d 869     -15.899  20.892 -19.786  0.00  0.00     0.091 H 
ENDROOT
TORSDOF 46
ENDMDL
MODEL 19
REMARK VINA RESULT:      -7.3      3.768     13.767
REMARK  0 active torsions:
REMARK  status: ('A' for Active; 'I' for Inactive)
REMARK       I    between atoms: O4A_2  and  C49_47 
REMARK       I    between atoms: O4A_2  and  S4B_15 
REMARK       I    between atoms: C3F_4  and  N3G_69 
REMARK       I    between atoms: S17_5  and  O16_54 
REMARK       I    between atoms: C5L_6  and  O5M_26 
REMARK       I    between atoms: C4F_7  and  O4G_60 
REMARK       I    between atoms: N1F_9  and  C1E_19 
REMARK       I    between atoms: N1F_9  and  S1G_71 
REMARK       I    between atoms: O5J_11  and  S5H_38 
REMARK       I    between atoms: C3L_12  and  O3M_62 
REMARK       I    between atoms: C29_13  and  O2A_90 
REMARK       I    between atoms: S3B_14  and  O3A_85 
REMARK       I    between atoms: C20_18  and  O1L_72 
REMARK       I    between atoms: O3J_20  and  S3H_80 
REMARK       I    between atoms: C31_23  and  C33_44 
REMARK       I    between atoms: C46_25  and  O47_33 
REMARK       I    between atoms: O5M_26  and  C5N_35 
REMARK       I    between atoms: C51_28  and  C53_48 
REMARK       I    between atoms: C5F_29  and  N5G_43 
REMARK       I    between atoms: C59_30  and  O5A_59 
REMARK       I    between atoms: C21_31  and  C23_64 
REMARK       I    between atoms: C26_32  and  O27_76 
REMARK       I    between atoms: O1J_34  and  S1G_71 
REMARK       I    between atoms: O3K_36  and  S3H_80 
REMARK       I    between atoms: O5I_37  and  S5H_38 
REMARK       I    between atoms: S5H_38  and  O5K_53 
REMARK       I    between atoms: S5H_38  and  N5G_43 
REMARK       I    between atoms: C39_39  and  O3A_85 
REMARK       I    between atoms: C1K_40  and  O1L_72 
REMARK       I    between atoms: C2C_41  and  O2D_45 
REMARK       I    between atoms: C33_44  and  O34_74 
REMARK       I    between atoms: O2D_45  and  C30_91 
REMARK       I    between atoms: C12_46  and  O10_51 
REMARK       I    between atoms: C53_48  and  O54_57 
REMARK       I    between atoms: O3I_50  and  S3H_80 
REMARK       I    between atoms: O16_54  and  C15_68 
REMARK       I    between atoms: C43_56  and  C41_65 
REMARK       I    between atoms: O54_57  and  S55_58 
REMARK       I    between atoms: O4G_60  and  C50_77 
REMARK       I    between atoms: O3M_62  and  C40_70 
REMARK       I    between atoms: O1C_67  and  C1B_86 
REMARK       I    between atoms: C15_68  and  C13_83 
REMARK       I    between atoms: N3G_69  and  S3H_80 
REMARK       I    between atoms: S1G_71  and  O1H_75 
REMARK       I    between atoms: S1G_71  and  O1I_82 
REMARK       I    between atoms: O34_74  and  S35_81 
ROOT
ATOM      1  O42 NTO d 869     -10.132  19.255 -20.038  0.00  0.00    -0.340 OA
ATOM      2  O4A NTO d 869      -7.270  21.199 -18.798  0.00  0.00    -0.244 OA
ATOM      3  O32 NTO d 869     -12.722  21.579 -16.357  0.00  0.00    -0.349 OA
ATOM      4  C3F NTO d 869     -12.550  19.380 -15.390  0.00  0.00     0.083 C 
ATOM      5  S17 NTO d 869     -23.211  13.868 -15.579  0.00  0.00     0.251 S 
ATOM      6  C5L NTO d 869      -7.306  17.207 -24.376  0.00  0.00     0.149 C 
ATOM      7  C4F NTO d 869      -8.766  19.690 -19.970  0.00  0.00     0.161 C 
ATOM      8  O14 NTO d 869     -22.722  17.839 -16.315  0.00  0.00    -0.349 OA
ATOM      9  N1F NTO d 869     -22.558  21.522 -16.344  0.00  0.00    -0.210 NA
ATOM     10  O37 NTO d 869     -16.102  24.854 -17.147  0.00  0.00    -0.572 OA
ATOM     11  O5J NTO d 869      -9.533  15.417 -25.620  0.00  0.00    -0.296 OA
ATOM     12  C3L NTO d 869     -11.848  20.446 -16.230  0.00  0.00     0.150 C 
ATOM     13  C29 NTO d 869     -18.120  20.109 -17.825  0.00  0.00     0.110 C 
ATOM     14  S3B NTO d 869     -14.418  16.657 -16.029  0.00  0.00     0.252 S 
ATOM     15  S4B NTO d 869      -6.825  22.501 -19.192  0.00  0.00     0.252 S 
ATOM     16  O24 NTO d 869     -18.430  17.117 -14.155  0.00  0.00    -0.646 OA
ATOM     17  O45 NTO d 869     -12.976  19.024 -19.320  0.00  0.00    -0.646 OA
ATOM     18  C20 NTO d 869     -19.774  19.174 -16.219  0.00  0.00     0.103 C 
ATOM     19  C1E NTO d 869     -23.169  20.203 -16.140  0.00  0.00     0.081 C 
ATOM     20  O3J NTO d 869      -9.997  17.729 -13.258  0.00  0.00    -0.296 OA
ATOM     21  O38 NTO d 869     -15.810  24.884 -14.711  0.00  0.00    -0.572 OA
ATOM     22  O18 NTO d 869     -23.885  13.766 -16.914  0.00  0.00    -0.572 OA
ATOM     23  C31 NTO d 869     -13.895  21.240 -17.113  0.00  0.00     0.091 C 
ATOM     24  O52 NTO d 869      -6.694  17.030 -23.088  0.00  0.00    -0.349 OA
ATOM     25  C46 NTO d 869      -9.529  20.959 -17.946  0.00  0.00     0.094 C 
ATOM     26  O5M NTO d 869      -6.544  18.068 -25.232  0.00  0.00    -0.364 OA
ATOM     27  O3D NTO d 869     -15.178  15.654 -15.213  0.00  0.00    -0.572 OA
ATOM     28  C51 NTO d 869      -6.732  18.218 -22.280  0.00  0.00     0.091 C 
ATOM     29  C5F NTO d 869      -8.753  17.688 -24.250  0.00  0.00     0.081 C 
ATOM     30  C59 NTO d 869      -8.831  18.942 -23.378  0.00  0.00     0.083 C 
ATOM     31  C21 NTO d 869     -18.689  19.265 -15.158  0.00  0.00     0.152 C 
ATOM     32  C26 NTO d 869     -19.520  20.288 -17.234  0.00  0.00     0.092 C 
ATOM     33  O47 NTO d 869      -9.371  22.174 -17.208  0.00  0.00    -0.390 OA
ATOM     34  O1J NTO d 869     -23.067  23.904 -17.097  0.00  0.00    -0.296 OA
ATOM     35  C5N NTO d 869      -5.507  17.304 -25.855  0.00  0.00     0.007 C 
ATOM     36  O3K NTO d 869     -10.413  20.065 -13.815  0.00  0.00    -0.296 OA
ATOM     37  O5I NTO d 869     -11.560  16.790 -25.630  0.00  0.00    -0.296 OA
ATOM     38  S5H NTO d 869     -10.148  16.687 -26.125  0.00  0.00     0.156 S 
ATOM     39  C39 NTO d 869     -13.792  18.928 -16.159  0.00  0.00     0.108 C 
ATOM     40  C1K NTO d 869     -22.132  19.136 -16.492  0.00  0.00     0.150 C 
ATOM     41  C2C NTO d 869     -17.067  20.060 -16.714  0.00  0.00     0.160 C 
ATOM     42  O19 NTO d 869     -24.175  13.488 -14.495  0.00  0.00    -0.572 OA
ATOM     43  N5G NTO d 869      -9.300  17.971 -25.585  0.00  0.00    -0.210 NA
ATOM     44  C33 NTO d 869     -14.784  22.479 -17.256  0.00  0.00     0.067 C 
ATOM     45  O2D NTO d 869     -15.788  19.773 -17.303  0.00  0.00    -0.348 OA
ATOM     46  C12 NTO d 869     -24.042  18.617 -14.412  0.00  0.00     0.089 C 
ATOM     47  C49 NTO d 869      -8.632  20.997 -19.183  0.00  0.00     0.134 C 
ATOM     48  C53 NTO d 869      -6.083  17.872 -20.938  0.00  0.00     0.067 C 
ATOM     49  O4D NTO d 869      -7.397  23.531 -18.264  0.00  0.00    -0.572 OA
ATOM     50  O3I NTO d 869      -9.119  18.656 -15.350  0.00  0.00    -0.296 OA
ATOM     51  O10 NTO d 869     -24.197  18.433 -13.002  0.00  0.00    -0.390 OA
ATOM     52  O1A NTO d 869     -22.028  12.949 -15.550  0.00  0.00    -0.572 OA
ATOM     53  O5K NTO d 869     -10.138  16.668 -27.625  0.00  0.00    -0.296 OA
ATOM     54  O16 NTO d 869     -22.763  15.213 -15.374  0.00  0.00    -0.254 OA
ATOM     55  O56 NTO d 869      -7.195  16.599 -17.983  0.00  0.00    -0.572 OA
ATOM     56  C43 NTO d 869     -12.475  19.864 -20.102  0.00  0.00     0.206 C 
ATOM     57  O54 NTO d 869      -6.744  16.758 -20.337  0.00  0.00    -0.254 OA
ATOM     58  S55 NTO d 869      -6.276  16.206 -19.101  0.00  0.00     0.251 S 
ATOM     59  O5A NTO d 869     -10.203  19.277 -23.142  0.00  0.00    -0.391 OA
ATOM     60  O4G NTO d 869      -8.188  19.883 -21.269  0.00  0.00    -0.348 OA
ATOM     61  O3C NTO d 869     -12.983  16.231 -16.111  0.00  0.00    -0.572 OA
ATOM     62  O3M NTO d 869     -11.615  19.869 -17.522  0.00  0.00    -0.348 OA
ATOM     63  O44 NTO d 869     -13.081  20.345 -21.095  0.00  0.00    -0.646 OA
ATOM     64  C23 NTO d 869     -18.995  18.234 -14.082  0.00  0.00     0.206 C 
ATOM     65  C41 NTO d 869     -11.056  20.338 -19.829  0.00  0.00     0.152 C 
ATOM     66  O22 NTO d 869     -17.390  19.054 -15.740  0.00  0.00    -0.340 OA
ATOM     67  O1C NTO d 869     -24.602  20.969 -14.348  0.00  0.00    -0.391 OA
ATOM     68  C15 NTO d 869     -23.643  16.198 -14.831  0.00  0.00     0.067 C 
ATOM     69  N3G NTO d 869     -11.637  18.245 -15.157  0.00  0.00    -0.210 NA
ATOM     70  C40 NTO d 869     -10.985  20.821 -18.387  0.00  0.00     0.103 C 
ATOM     71  S1G NTO d 869     -23.682  22.547 -16.928  0.00  0.00     0.156 S 
ATOM     72  O1L NTO d 869     -21.046  19.317 -15.572  0.00  0.00    -0.348 OA
ATOM     73  O57 NTO d 869      -4.899  16.727 -18.816  0.00  0.00    -0.572 OA
ATOM     74  O34 NTO d 869     -15.249  22.941 -15.984  0.00  0.00    -0.254 OA
ATOM     75  O1H NTO d 869     -24.833  22.621 -15.970  0.00  0.00    -0.296 OA
ATOM     76  O27 NTO d 869     -20.486  20.219 -18.286  0.00  0.00    -0.390 OA
ATOM     77  C50 NTO d 869      -8.164  18.667 -22.031  0.00  0.00     0.095 C 
ATOM     78  O3E NTO d 869     -14.994  16.715 -17.414  0.00  0.00    -0.572 OA
ATOM     79  O25 NTO d 869     -19.814  18.550 -13.187  0.00  0.00    -0.646 OA
ATOM     80  S3H NTO d 869     -10.267  18.685 -14.383  0.00  0.00     0.156 S 
ATOM     81  S35 NTO d 869     -16.171  24.035 -15.892  0.00  0.00     0.251 S 
ATOM     82  O1I NTO d 869     -24.162  22.046 -18.259  0.00  0.00    -0.296 OA
ATOM     83  C13 NTO d 869     -23.027  17.596 -14.932  0.00  0.00     0.090 C 
ATOM     84  O58 NTO d 869      -6.235  14.712 -19.217  0.00  0.00    -0.572 OA
ATOM     85  O3A NTO d 869     -14.508  17.942 -15.405  0.00  0.00    -0.247 OA
ATOM     86  C1B NTO d 869     -23.558  20.046 -14.670  0.00  0.00     0.083 C 
ATOM     87  O4C NTO d 869      -7.271  22.781 -20.597  0.00  0.00    -0.572 OA
ATOM     88  O4E NTO d 869      -5.328  22.536 -19.133  0.00  0.00    -0.572 OA
ATOM     89  O36 NTO d 869     -17.566  23.514 -15.718  0.00  0.00    -0.572 OA
ATOM     90  O2A NTO d 869     -17.836  21.197 -18.706  0.00  0.00    -0.388 OA
ATOM     91  C30 NTO d 869     -14.696  20.132 -16.442  0.00  0.00     0.096 C 
ATOM     92  H   NTO d 869     -12.834  19.772 -14.436  0.00  0.00     0.076 H 
ATOM     93  H   NTO d 869      -7.321  16.244 -24.842  0.00  0.00     0.131 H 
ATOM     94  H   NTO d 869      -8.238  18.907 -19.467  0.00  0.00     0.133 H 
ATOM     95  H   NTO d 869     -21.789  21.443 -17.009  0.00  0.00     0.140 HD
ATOM     96  H   NTO d 869     -10.043  14.658 -25.945  0.00  0.00     0.231 HD
ATOM     97  H   NTO d 869     -10.928  20.762 -15.783  0.00  0.00     0.131 H 
ATOM     98  H   NTO d 869     -18.088  19.186 -18.365  0.00  0.00     0.094 H 
ATOM     99  H   NTO d 869     -19.767  18.235 -16.731  0.00  0.00     0.092 H 
ATOM    100  H   NTO d 869     -24.039  20.101 -16.755  0.00  0.00     0.076 H 
ATOM    101  H   NTO d 869      -9.184  17.991 -12.800  0.00  0.00     0.231 HD
ATOM    102  H   NTO d 869     -13.576  20.892 -18.073  0.00  0.00     0.090 H 
ATOM    103  H   NTO d 869      -9.259  20.128 -17.329  0.00  0.00     0.091 H 
ATOM    104  H   NTO d 869      -6.217  19.010 -22.781  0.00  0.00     0.090 H 
ATOM    105  H   NTO d 869      -9.330  16.916 -23.785  0.00  0.00     0.076 H 
ATOM    106  H   NTO d 869      -8.337  19.748 -23.879  0.00  0.00     0.089 H 
ATOM    107  H   NTO d 869     -18.675  20.242 -14.721  0.00  0.00     0.104 H 
ATOM    108  H   NTO d 869     -19.597  21.237 -16.747  0.00  0.00     0.091 H 
ATOM    109  H   NTO d 869      -9.617  22.927 -17.768  0.00  0.00     0.210 HD
ATOM    110  H   NTO d 869     -22.757  24.228 -16.237  0.00  0.00     0.231 HD
ATOM    111  H   NTO d 869      -4.932  17.938 -26.496  0.00  0.00     0.066 H 
ATOM    112  H   NTO d 869      -5.943  16.515 -26.431  0.00  0.00     0.066 H 
ATOM    113  H   NTO d 869      -4.871  16.886 -25.102  0.00  0.00     0.066 H 
ATOM    114  H   NTO d 869      -9.595  20.315 -13.358  0.00  0.00     0.231 HD
ATOM    115  H   NTO d 869     -12.070  16.028 -25.949  0.00  0.00     0.231 HD
ATOM    116  H   NTO d 869     -13.487  18.494 -17.089  0.00  0.00     0.092 H 
ATOM    117  H   NTO d 869     -21.794  19.216 -17.505  0.00  0.00     0.131 H 
ATOM    118  H   NTO d 869     -17.044  21.006 -16.215  0.00  0.00     0.133 H 
ATOM    119  H   NTO d 869      -8.534  18.165 -26.229  0.00  0.00     0.140 HD
ATOM    120  H   NTO d 869     -15.627  22.233 -17.866  0.00  0.00     0.080 H 
ATOM    121  H   NTO d 869     -14.203  23.259 -17.704  0.00  0.00     0.080 H 
ATOM    122  H   NTO d 869     -24.971  18.469 -14.921  0.00  0.00     0.091 H 
ATOM    123  H   NTO d 869      -8.938  21.811 -19.808  0.00  0.00     0.097 H 
ATOM    124  H   NTO d 869      -6.152  18.717 -20.285  0.00  0.00     0.080 H 
ATOM    125  H   NTO d 869      -5.056  17.619 -21.103  0.00  0.00     0.080 H 
ATOM    126  H   NTO d 869      -8.305  18.917 -14.892  0.00  0.00     0.231 HD
ATOM    127  H   NTO d 869     -23.344  18.572 -12.563  0.00  0.00     0.210 HD
ATOM    128  H   NTO d 869     -10.644  15.903 -27.942  0.00  0.00     0.231 HD
ATOM    129  H   NTO d 869     -10.641  18.541 -22.687  0.00  0.00     0.210 HD
ATOM    130  H   NTO d 869     -10.795  21.135 -20.493  0.00  0.00     0.104 H 
ATOM    131  H   NTO d 869     -24.295  21.874 -14.512  0.00  0.00     0.210 HD
ATOM    132  H   NTO d 869     -23.831  15.971 -13.802  0.00  0.00     0.080 H 
ATOM    133  H   NTO d 869     -24.557  16.185 -15.389  0.00  0.00     0.080 H 
ATOM    134  H   NTO d 869     -11.386  17.838 -16.058  0.00  0.00     0.140 HD
ATOM    135  H   NTO d 869     -11.480  21.767 -18.329  0.00  0.00     0.092 H 
ATOM    136  H   NTO d 869     -24.518  22.946 -15.112  0.00  0.00     0.231 HD
ATOM    137  H   NTO d 869     -20.420  19.359 -18.731  0.00  0.00     0.210 HD
ATOM    138  H   NTO d 869      -8.676  17.898 -21.491  0.00  0.00     0.091 H 
ATOM    139  H   NTO d 869     -23.414  21.999 -18.876  0.00  0.00     0.231 HD
ATOM    140  H   NTO d 869     -22.134  17.677 -14.350  0.00  0.00     0.090 H 
ATOM    141  H   NTO d 869     -22.704  20.247 -14.057  0.00  0.00     0.089 H 
ATOM    142  H   NTO d 869     -17.866  22.031 -18.211  0.00  0.00     0.210 HD
ATOM    143  H   NTO d 869     -15.087  20.471 -15.505  0.00  0.00     0.091 H 
ENDROOT
TORSDOF 46
ENDMDL
MODEL 20
REMARK VINA RESULT:      -7.2      2.969      4.068
REMARK  0 active torsions:
REMARK  status: ('A' for Active; 'I' for Inactive)
REMARK       I    between atoms: O4A_2  and  C49_47 
REMARK       I    between atoms: O4A_2  and  S4B_15 
REMARK       I    between atoms: C3F_4  and  N3G_69 
REMARK       I    between atoms: S17_5  and  O16_54 
REMARK       I    between atoms: C5L_6  and  O5M_26 
REMARK       I    between atoms: C4F_7  and  O4G_60 
REMARK       I    between atoms: N1F_9  and  C1E_19 
REMARK       I    between atoms: N1F_9  and  S1G_71 
REMARK       I    between atoms: O5J_11  and  S5H_38 
REMARK       I    between atoms: C3L_12  and  O3M_62 
REMARK       I    between atoms: C29_13  and  O2A_90 
REMARK       I    between atoms: S3B_14  and  O3A_85 
REMARK       I    between atoms: C20_18  and  O1L_72 
REMARK       I    between atoms: O3J_20  and  S3H_80 
REMARK       I    between atoms: C31_23  and  C33_44 
REMARK       I    between atoms: C46_25  and  O47_33 
REMARK       I    between atoms: O5M_26  and  C5N_35 
REMARK       I    between atoms: C51_28  and  C53_48 
REMARK       I    between atoms: C5F_29  and  N5G_43 
REMARK       I    between atoms: C59_30  and  O5A_59 
REMARK       I    between atoms: C21_31  and  C23_64 
REMARK       I    between atoms: C26_32  and  O27_76 
REMARK       I    between atoms: O1J_34  and  S1G_71 
REMARK       I    between atoms: O3K_36  and  S3H_80 
REMARK       I    between atoms: O5I_37  and  S5H_38 
REMARK       I    between atoms: S5H_38  and  O5K_53 
REMARK       I    between atoms: S5H_38  and  N5G_43 
REMARK       I    between atoms: C39_39  and  O3A_85 
REMARK       I    between atoms: C1K_40  and  O1L_72 
REMARK       I    between atoms: C2C_41  and  O2D_45 
REMARK       I    between atoms: C33_44  and  O34_74 
REMARK       I    between atoms: O2D_45  and  C30_91 
REMARK       I    between atoms: C12_46  and  O10_51 
REMARK       I    between atoms: C53_48  and  O54_57 
REMARK       I    between atoms: O3I_50  and  S3H_80 
REMARK       I    between atoms: O16_54  and  C15_68 
REMARK       I    between atoms: C43_56  and  C41_65 
REMARK       I    between atoms: O54_57  and  S55_58 
REMARK       I    between atoms: O4G_60  and  C50_77 
REMARK       I    between atoms: O3M_62  and  C40_70 
REMARK       I    between atoms: O1C_67  and  C1B_86 
REMARK       I    between atoms: C15_68  and  C13_83 
REMARK       I    between atoms: N3G_69  and  S3H_80 
REMARK       I    between atoms: S1G_71  and  O1H_75 
REMARK       I    between atoms: S1G_71  and  O1I_82 
REMARK       I    between atoms: O34_74  and  S35_81 
ROOT
ATOM      1  O42 NTO d 869     -21.206  18.468 -16.812  0.00  0.00    -0.340 OA
ATOM      2  O4A NTO d 869     -23.651  21.211 -16.704  0.00  0.00    -0.244 OA
ATOM      3  O32 NTO d 869     -17.757  22.127 -16.202  0.00  0.00    -0.349 OA
ATOM      4  C3F NTO d 869     -17.379  21.613 -18.524  0.00  0.00     0.083 C 
ATOM      5  S17 NTO d 869      -6.938  15.855 -19.902  0.00  0.00     0.251 S 
ATOM      6  C5L NTO d 869     -25.126  14.515 -16.916  0.00  0.00     0.149 C 
ATOM      7  C4F NTO d 869     -22.503  19.079 -16.876  0.00  0.00     0.161 C 
ATOM      8  O14 NTO d 869      -8.025  17.743 -16.466  0.00  0.00    -0.349 OA
ATOM      9  N1F NTO d 869      -8.542  19.937 -13.549  0.00  0.00    -0.210 NA
ATOM     10  O37 NTO d 869     -15.175  22.709 -12.230  0.00  0.00    -0.572 OA
ATOM     11  O5J NTO d 869     -23.292  12.000 -17.074  0.00  0.00    -0.296 OA
ATOM     12  C3L NTO d 869     -18.423  21.747 -17.417  0.00  0.00     0.150 C 
ATOM     13  C29 NTO d 869     -13.062  18.930 -15.111  0.00  0.00     0.110 C 
ATOM     14  S3B NTO d 869     -15.587  19.093 -19.849  0.00  0.00     0.252 S 
ATOM     15  S4B NTO d 869     -24.325  21.773 -15.575  0.00  0.00     0.252 S 
ATOM     16  O24 NTO d 869     -11.241  19.936 -19.376  0.00  0.00    -0.646 OA
ATOM     17  O45 NTO d 869     -18.279  18.261 -16.597  0.00  0.00    -0.646 OA
ATOM     18  C20 NTO d 869     -10.880  19.257 -16.260  0.00  0.00     0.103 C 
ATOM     19  C1E NTO d 869      -7.775  19.179 -14.545  0.00  0.00     0.081 C 
ATOM     20  O3J NTO d 869     -18.887  22.850 -21.683  0.00  0.00    -0.296 OA
ATOM     21  O38 NTO d 869     -14.625  24.680 -13.585  0.00  0.00    -0.572 OA
ATOM     22  O18 NTO d 869      -6.750  14.611 -19.087  0.00  0.00    -0.572 OA
ATOM     23  C31 NTO d 869     -16.883  21.082 -15.747  0.00  0.00     0.091 C 
ATOM     24  O52 NTO d 869     -25.245  15.543 -17.912  0.00  0.00    -0.349 OA
ATOM     25  C46 NTO d 869     -21.224  21.231 -16.729  0.00  0.00     0.094 C 
ATOM     26  O5M NTO d 869     -26.212  14.529 -15.981  0.00  0.00    -0.364 OA
ATOM     27  O3D NTO d 869     -14.502  18.965 -20.877  0.00  0.00    -0.572 OA
ATOM     28  C51 NTO d 869     -25.049  16.865 -17.383  0.00  0.00     0.091 C 
ATOM     29  C5F NTO d 869     -23.775  14.579 -16.201  0.00  0.00     0.081 C 
ATOM     30  C59 NTO d 869     -23.526  15.980 -15.641  0.00  0.00     0.083 C 
ATOM     31  C21 NTO d 869     -11.545  20.372 -17.052  0.00  0.00     0.152 C 
ATOM     32  C26 NTO d 869     -11.569  19.185 -14.898  0.00  0.00     0.092 C 
ATOM     33  O47 NTO d 869     -21.238  22.558 -16.194  0.00  0.00    -0.390 OA
ATOM     34  O1J NTO d 869      -8.550  20.651 -11.101  0.00  0.00    -0.296 OA
ATOM     35  C5N NTO d 869     -27.320  13.822 -16.546  0.00  0.00     0.007 C 
ATOM     36  O3K NTO d 869     -18.910  23.710 -19.403  0.00  0.00    -0.296 OA
ATOM     37  O5I NTO d 869     -21.530  12.358 -15.411  0.00  0.00    -0.296 OA
ATOM     38  S5H NTO d 869     -23.009  12.225 -15.619  0.00  0.00     0.156 S 
ATOM     39  C39 NTO d 869     -16.434  20.475 -18.134  0.00  0.00     0.108 C 
ATOM     40  C1K NTO d 869      -8.762  18.503 -15.496  0.00  0.00     0.150 C 
ATOM     41  C2C NTO d 869     -13.666  19.994 -16.032  0.00  0.00     0.160 C 
ATOM     42  O19 NTO d 869      -5.631  16.258 -20.519  0.00  0.00    -0.572 OA
ATOM     43  N5G NTO d 869     -23.743  13.591 -15.112  0.00  0.00    -0.210 NA
ATOM     44  C33 NTO d 869     -16.219  21.509 -14.435  0.00  0.00     0.067 C 
ATOM     45  O2D NTO d 869     -15.035  19.649 -16.299  0.00  0.00    -0.348 OA
ATOM     46  C12 NTO d 869      -6.220  19.388 -16.496  0.00  0.00     0.089 C 
ATOM     47  C49 NTO d 869     -22.487  20.492 -16.286  0.00  0.00     0.134 C 
ATOM     48  C53 NTO d 869     -25.168  17.844 -18.553  0.00  0.00     0.067 C 
ATOM     49  O4D NTO d 869     -23.574  22.977 -15.088  0.00  0.00    -0.572 OA
ATOM     50  O3I NTO d 869     -20.507  21.971 -20.068  0.00  0.00    -0.296 OA
ATOM     51  O10 NTO d 869      -5.579  20.338 -17.350  0.00  0.00    -0.390 OA
ATOM     52  O1A NTO d 869      -7.947  15.594 -20.979  0.00  0.00    -0.572 OA
ATOM     53  O5K NTO d 869     -23.525  11.053 -14.837  0.00  0.00    -0.296 OA
ATOM     54  O16 NTO d 869      -7.417  16.908 -19.058  0.00  0.00    -0.254 OA
ATOM     55  O56 NTO d 869     -23.003  19.135 -20.841  0.00  0.00    -0.572 OA
ATOM     56  C43 NTO d 869     -19.093  18.263 -15.646  0.00  0.00     0.206 C 
ATOM     57  O54 NTO d 869     -24.239  17.504 -19.583  0.00  0.00    -0.254 OA
ATOM     58  S55 NTO d 869     -24.205  18.238 -20.812  0.00  0.00     0.251 S 
ATOM     59  O5A NTO d 869     -22.195  16.059 -15.121  0.00  0.00    -0.391 OA
ATOM     60  O4G NTO d 869     -23.503  18.314 -16.188  0.00  0.00    -0.348 OA
ATOM     61  O3C NTO d 869     -16.917  19.095 -20.541  0.00  0.00    -0.572 OA
ATOM     62  O3M NTO d 869     -19.024  20.455 -17.254  0.00  0.00    -0.348 OA
ATOM     63  O44 NTO d 869     -18.909  17.644 -14.566  0.00  0.00    -0.646 OA
ATOM     64  C23 NTO d 869     -10.794  20.529 -18.366  0.00  0.00     0.206 C 
ATOM     65  C41 NTO d 869     -20.374  19.067 -15.803  0.00  0.00     0.152 C 
ATOM     66  O22 NTO d 869     -12.937  20.083 -17.267  0.00  0.00    -0.340 OA
ATOM     67  O1C NTO d 869      -5.900  20.707 -14.493  0.00  0.00    -0.391 OA
ATOM     68  C15 NTO d 869      -6.503  17.719 -18.317  0.00  0.00     0.067 C 
ATOM     69  N3G NTO d 869     -18.046  21.323 -19.807  0.00  0.00    -0.210 NA
ATOM     70  C40 NTO d 869     -19.998  20.487 -16.204  0.00  0.00     0.103 C 
ATOM     71  S1G NTO d 869      -7.787  19.843 -12.109  0.00  0.00     0.156 S 
ATOM     72  O1L NTO d 869      -9.484  19.563 -16.140  0.00  0.00    -0.348 OA
ATOM     73  O57 NTO d 869     -25.447  19.071 -20.925  0.00  0.00    -0.572 OA
ATOM     74  O34 NTO d 869     -15.396  22.666 -14.615  0.00  0.00    -0.254 OA
ATOM     75  O1H NTO d 869      -6.391  20.376 -12.243  0.00  0.00    -0.296 OA
ATOM     76  O27 NTO d 869     -11.014  18.116 -14.127  0.00  0.00    -0.390 OA
ATOM     77  C50 NTO d 869     -23.668  17.008 -16.762  0.00  0.00     0.095 C 
ATOM     78  O3E NTO d 869     -15.523  17.928 -18.906  0.00  0.00    -0.572 OA
ATOM     79  O25 NTO d 869      -9.755  21.229 -18.365  0.00  0.00    -0.646 OA
ATOM     80  S3H NTO d 869     -19.108  22.485 -20.245  0.00  0.00     0.156 S 
ATOM     81  S35 NTO d 869     -14.607  23.182 -13.535  0.00  0.00     0.251 S 
ATOM     82  O1I NTO d 869      -7.740  18.409 -11.668  0.00  0.00    -0.296 OA
ATOM     83  C13 NTO d 869      -7.248  18.604 -17.314  0.00  0.00     0.090 C 
ATOM     84  O58 NTO d 869     -24.140  17.273 -21.957  0.00  0.00    -0.572 OA
ATOM     85  O3A NTO d 869     -15.414  20.318 -19.128  0.00  0.00    -0.247 OA
ATOM     86  C1B NTO d 869      -6.897  20.141 -15.347  0.00  0.00     0.083 C 
ATOM     87  O4C NTO d 869     -24.411  20.752 -14.480  0.00  0.00    -0.572 OA
ATOM     88  O4E NTO d 869     -25.709  22.170 -15.990  0.00  0.00    -0.572 OA
ATOM     89  O36 NTO d 869     -13.192  22.701 -13.662  0.00  0.00    -0.572 OA
ATOM     90  O2A NTO d 869     -13.731  18.954 -13.849  0.00  0.00    -0.388 OA
ATOM     91  C30 NTO d 869     -15.800  20.769 -16.771  0.00  0.00     0.096 C 
ATOM     92  H   NTO d 869     -16.827  22.522 -18.641  0.00  0.00     0.076 H 
ATOM     93  H   NTO d 869     -25.177  13.581 -17.434  0.00  0.00     0.131 H 
ATOM     94  H   NTO d 869     -22.752  19.121 -17.916  0.00  0.00     0.133 H 
ATOM     95  H   NTO d 869      -9.480  19.544 -13.469  0.00  0.00     0.140 HD
ATOM     96  H   NTO d 869     -22.852  11.187 -17.367  0.00  0.00     0.231 HD
ATOM     97  H   NTO d 869     -19.163  22.483 -17.655  0.00  0.00     0.131 H 
ATOM     98  H   NTO d 869     -13.186  17.972 -15.570  0.00  0.00     0.094 H 
ATOM     99  H   NTO d 869     -10.970  18.305 -16.741  0.00  0.00     0.092 H 
ATOM    100  H   NTO d 869      -7.159  18.451 -14.060  0.00  0.00     0.076 H 
ATOM    101  H   NTO d 869     -19.518  23.540 -21.942  0.00  0.00     0.231 HD
ATOM    102  H   NTO d 869     -17.474  20.202 -15.602  0.00  0.00     0.090 H 
ATOM    103  H   NTO d 869     -21.189  21.277 -17.797  0.00  0.00     0.091 H 
ATOM    104  H   NTO d 869     -25.777  17.059 -16.623  0.00  0.00     0.090 H 
ATOM    105  H   NTO d 869     -23.003  14.355 -16.908  0.00  0.00     0.076 H 
ATOM    106  H   NTO d 869     -24.236  16.178 -14.865  0.00  0.00     0.089 H 
ATOM    107  H   NTO d 869     -11.503  21.292 -16.506  0.00  0.00     0.104 H 
ATOM    108  H   NTO d 869     -11.423  20.108 -14.377  0.00  0.00     0.091 H 
ATOM    109  H   NTO d 869     -21.270  22.515 -15.225  0.00  0.00     0.210 HD
ATOM    110  H   NTO d 869      -8.579  21.578 -11.386  0.00  0.00     0.231 HD
ATOM    111  H   NTO d 869     -28.136  13.827 -15.854  0.00  0.00     0.066 H 
ATOM    112  H   NTO d 869     -27.032  12.812 -16.750  0.00  0.00     0.066 H 
ATOM    113  H   NTO d 869     -27.620  14.298 -17.456  0.00  0.00     0.066 H 
ATOM    114  H   NTO d 869     -19.546  24.392 -19.672  0.00  0.00     0.231 HD
ATOM    115  H   NTO d 869     -21.087  11.549 -15.711  0.00  0.00     0.231 HD
ATOM    116  H   NTO d 869     -16.993  19.565 -18.070  0.00  0.00     0.092 H 
ATOM    117  H   NTO d 869      -9.430  17.840 -14.986  0.00  0.00     0.131 H 
ATOM    118  H   NTO d 869     -13.609  20.946 -15.547  0.00  0.00     0.133 H 
ATOM    119  H   NTO d 869     -24.697  13.375 -14.824  0.00  0.00     0.140 HD
ATOM    120  H   NTO d 869     -15.613  20.704 -14.075  0.00  0.00     0.080 H 
ATOM    121  H   NTO d 869     -16.989  21.751 -13.733  0.00  0.00     0.080 H 
ATOM    122  H   NTO d 869      -5.509  18.701 -16.087  0.00  0.00     0.091 H 
ATOM    123  H   NTO d 869     -22.490  20.423 -15.218  0.00  0.00     0.097 H 
ATOM    124  H   NTO d 869     -24.963  18.834 -18.206  0.00  0.00     0.080 H 
ATOM    125  H   NTO d 869     -26.161  17.792 -18.950  0.00  0.00     0.080 H 
ATOM    126  H   NTO d 869     -21.139  22.660 -20.327  0.00  0.00     0.231 HD
ATOM    127  H   NTO d 869      -6.241  20.949 -17.708  0.00  0.00     0.210 HD
ATOM    128  H   NTO d 869     -23.086  10.244 -15.142  0.00  0.00     0.231 HD
ATOM    129  H   NTO d 869     -21.560  15.879 -15.831  0.00  0.00     0.210 HD
ATOM    130  H   NTO d 869     -20.920  19.082 -14.883  0.00  0.00     0.104 H 
ATOM    131  H   NTO d 869      -6.329  21.183 -13.765  0.00  0.00     0.210 HD
ATOM    132  H   NTO d 869      -5.957  18.341 -18.995  0.00  0.00     0.080 H 
ATOM    133  H   NTO d 869      -5.836  17.077 -17.779  0.00  0.00     0.080 H 
ATOM    134  H   NTO d 869     -18.547  20.438 -19.722  0.00  0.00     0.140 HD
ATOM    135  H   NTO d 869     -19.606  20.983 -15.342  0.00  0.00     0.092 H 
ATOM    136  H   NTO d 869      -6.426  21.303 -12.527  0.00  0.00     0.231 HD
ATOM    137  H   NTO d 869     -11.145  17.277 -14.596  0.00  0.00     0.210 HD
ATOM    138  H   NTO d 869     -22.932  16.859 -17.524  0.00  0.00     0.091 H 
ATOM    139  H   NTO d 869      -8.644  18.068 -11.582  0.00  0.00     0.231 HD
ATOM    140  H   NTO d 869      -7.894  19.300 -17.805  0.00  0.00     0.090 H 
ATOM    141  H   NTO d 869      -7.507  20.923 -15.748  0.00  0.00     0.089 H 
ATOM    142  H   NTO d 869     -13.614  19.824 -13.437  0.00  0.00     0.210 HD
ATOM    143  H   NTO d 869     -15.149  21.610 -16.892  0.00  0.00     0.091 H 
ENDROOT
TORSDOF 46
ENDMDL
MODEL 21
REMARK VINA RESULT:      -7.1      4.364     13.802
REMARK  0 active torsions:
REMARK  status: ('A' for Active; 'I' for Inactive)
REMARK       I    between atoms: O4A_2  and  C49_47 
REMARK       I    between atoms: O4A_2  and  S4B_15 
REMARK       I    between atoms: C3F_4  and  N3G_69 
REMARK       I    between atoms: S17_5  and  O16_54 
REMARK       I    between atoms: C5L_6  and  O5M_26 
REMARK       I    between atoms: C4F_7  and  O4G_60 
REMARK       I    between atoms: N1F_9  and  C1E_19 
REMARK       I    between atoms: N1F_9  and  S1G_71 
REMARK       I    between atoms: O5J_11  and  S5H_38 
REMARK       I    between atoms: C3L_12  and  O3M_62 
REMARK       I    between atoms: C29_13  and  O2A_90 
REMARK       I    between atoms: S3B_14  and  O3A_85 
REMARK       I    between atoms: C20_18  and  O1L_72 
REMARK       I    between atoms: O3J_20  and  S3H_80 
REMARK       I    between atoms: C31_23  and  C33_44 
REMARK       I    between atoms: C46_25  and  O47_33 
REMARK       I    between atoms: O5M_26  and  C5N_35 
REMARK       I    between atoms: C51_28  and  C53_48 
REMARK       I    between atoms: C5F_29  and  N5G_43 
REMARK       I    between atoms: C59_30  and  O5A_59 
REMARK       I    between atoms: C21_31  and  C23_64 
REMARK       I    between atoms: C26_32  and  O27_76 
REMARK       I    between atoms: O1J_34  and  S1G_71 
REMARK       I    between atoms: O3K_36  and  S3H_80 
REMARK       I    between atoms: O5I_37  and  S5H_38 
REMARK       I    between atoms: S5H_38  and  O5K_53 
REMARK       I    between atoms: S5H_38  and  N5G_43 
REMARK       I    between atoms: C39_39  and  O3A_85 
REMARK       I    between atoms: C1K_40  and  O1L_72 
REMARK       I    between atoms: C2C_41  and  O2D_45 
REMARK       I    between atoms: C33_44  and  O34_74 
REMARK       I    between atoms: O2D_45  and  C30_91 
REMARK       I    between atoms: C12_46  and  O10_51 
REMARK       I    between atoms: C53_48  and  O54_57 
REMARK       I    between atoms: O3I_50  and  S3H_80 
REMARK       I    between atoms: O16_54  and  C15_68 
REMARK       I    between atoms: C43_56  and  C41_65 
REMARK       I    between atoms: O54_57  and  S55_58 
REMARK       I    between atoms: O4G_60  and  C50_77 
REMARK       I    between atoms: O3M_62  and  C40_70 
REMARK       I    between atoms: O1C_67  and  C1B_86 
REMARK       I    between atoms: C15_68  and  C13_83 
REMARK       I    between atoms: N3G_69  and  S3H_80 
REMARK       I    between atoms: S1G_71  and  O1H_75 
REMARK       I    between atoms: S1G_71  and  O1I_82 
REMARK       I    between atoms: O34_74  and  S35_81 
ROOT
ATOM      1  O42 NTO d 869      -9.503  19.237 -20.061  0.00  0.00    -0.340 OA
ATOM      2  O4A NTO d 869      -6.335  20.778 -19.011  0.00  0.00    -0.244 OA
ATOM      3  O32 NTO d 869     -11.522  21.863 -16.229  0.00  0.00    -0.349 OA
ATOM      4  C3F NTO d 869     -11.583  19.655 -15.269  0.00  0.00     0.083 C 
ATOM      5  S17 NTO d 869     -22.871  15.606 -14.764  0.00  0.00     0.251 S 
ATOM      6  C5L NTO d 869      -7.254  16.857 -24.564  0.00  0.00     0.149 C 
ATOM      7  C4F NTO d 869      -8.089  19.487 -20.081  0.00  0.00     0.161 C 
ATOM      8  O14 NTO d 869     -21.908  19.481 -15.542  0.00  0.00    -0.349 OA
ATOM      9  N1F NTO d 869     -21.258  23.110 -15.591  0.00  0.00    -0.210 NA
ATOM     10  O37 NTO d 869     -14.482  25.562 -16.813  0.00  0.00    -0.572 OA
ATOM     11  O5J NTO d 869      -9.772  15.384 -25.659  0.00  0.00    -0.296 OA
ATOM     12  C3L NTO d 869     -10.800  20.623 -16.155  0.00  0.00     0.150 C 
ATOM     13  C29 NTO d 869     -17.150  21.130 -17.347  0.00  0.00     0.110 C 
ATOM     14  S3B NTO d 869     -13.833  17.207 -15.781  0.00  0.00     0.252 S 
ATOM     15  S4B NTO d 869      -5.748  22.011 -19.437  0.00  0.00     0.252 S 
ATOM     16  O24 NTO d 869     -17.621  18.184 -13.656  0.00  0.00    -0.646 OA
ATOM     17  O45 NTO d 869     -12.301  19.381 -19.164  0.00  0.00    -0.646 OA
ATOM     18  C20 NTO d 869     -18.809  20.413 -15.637  0.00  0.00     0.103 C 
ATOM     19  C1E NTO d 869     -22.025  21.882 -15.345  0.00  0.00     0.081 C 
ATOM     20  O3J NTO d 869      -9.142  17.669 -13.299  0.00  0.00    -0.296 OA
ATOM     21  O38 NTO d 869     -14.035  25.539 -14.400  0.00  0.00    -0.572 OA
ATOM     22  O18 NTO d 869     -23.636  15.601 -16.054  0.00  0.00    -0.572 OA
ATOM     23  C31 NTO d 869     -12.776  21.687 -16.908  0.00  0.00     0.091 C 
ATOM     24  O52 NTO d 869      -6.590  16.594 -23.317  0.00  0.00    -0.349 OA
ATOM     25  C46 NTO d 869      -8.548  20.835 -18.017  0.00  0.00     0.094 C 
ATOM     26  O5M NTO d 869      -6.440  17.615 -25.469  0.00  0.00    -0.364 OA
ATOM     27  O3D NTO d 869     -14.666  16.310 -14.915  0.00  0.00    -0.572 OA
ATOM     28  C51 NTO d 869      -6.419  17.771 -22.511  0.00  0.00     0.091 C 
ATOM     29  C5F NTO d 869      -8.613  17.525 -24.347  0.00  0.00     0.081 C 
ATOM     30  C59 NTO d 869      -8.469  18.773 -23.476  0.00  0.00     0.083 C 
ATOM     31  C21 NTO d 869     -17.656  20.353 -14.647  0.00  0.00     0.152 C 
ATOM     32  C26 NTO d 869     -18.474  21.489 -16.669  0.00  0.00     0.092 C 
ATOM     33  O47 NTO d 869      -8.183  22.014 -17.293  0.00  0.00    -0.390 OA
ATOM     34  O1J NTO d 869     -21.494  25.543 -16.318  0.00  0.00    -0.296 OA
ATOM     35  C5N NTO d 869      -5.555  16.723 -26.155  0.00  0.00     0.007 C 
ATOM     36  O3K NTO d 869      -9.279  20.042 -13.835  0.00  0.00    -0.296 OA
ATOM     37  O5I NTO d 869     -11.597  17.015 -25.544  0.00  0.00    -0.296 OA
ATOM     38  S5H NTO d 869     -10.245  16.728 -26.127  0.00  0.00     0.156 S 
ATOM     39  C39 NTO d 869     -12.921  19.376 -15.957  0.00  0.00     0.108 C 
ATOM     40  C1K NTO d 869     -21.163  20.689 -15.760  0.00  0.00     0.150 C 
ATOM     41  C2C NTO d 869     -16.045  20.936 -16.305  0.00  0.00     0.160 C 
ATOM     42  O19 NTO d 869     -23.806  15.351 -13.620  0.00  0.00    -0.572 OA
ATOM     43  N5G NTO d 869      -9.201  17.886 -25.646  0.00  0.00    -0.210 NA
ATOM     44  C33 NTO d 869     -13.500  23.034 -16.998  0.00  0.00     0.067 C 
ATOM     45  O2D NTO d 869     -14.855  20.485 -16.974  0.00  0.00    -0.348 OA
ATOM     46  C12 NTO d 869     -22.989  20.416 -13.560  0.00  0.00     0.089 C 
ATOM     47  C49 NTO d 869      -7.733  20.761 -19.309  0.00  0.00     0.134 C 
ATOM     48  C53 NTO d 869      -5.737  17.335 -21.212  0.00  0.00     0.067 C 
ATOM     49  O4D NTO d 869      -6.118  23.103 -18.477  0.00  0.00    -0.572 OA
ATOM     50  O3I NTO d 869      -8.283  18.483 -15.445  0.00  0.00    -0.296 OA
ATOM     51  O10 NTO d 869     -23.078  20.247 -12.144  0.00  0.00    -0.390 OA
ATOM     52  O1A NTO d 869     -21.821  14.538 -14.808  0.00  0.00    -0.572 OA
ATOM     53  O5K NTO d 869     -10.332  16.716 -27.625  0.00  0.00    -0.296 OA
ATOM     54  O16 NTO d 869     -22.236  16.878 -14.592  0.00  0.00    -0.254 OA
ATOM     55  O56 NTO d 869      -6.820  16.204 -18.189  0.00  0.00    -0.572 OA
ATOM     56  C43 NTO d 869     -11.744  20.152 -19.978  0.00  0.00     0.206 C 
ATOM     57  O54 NTO d 869      -6.502  16.315 -20.568  0.00  0.00    -0.254 OA
ATOM     58  S55 NTO d 869      -6.034  15.699 -19.362  0.00  0.00     0.251 S 
ATOM     59  O5A NTO d 869      -9.766  19.286 -23.154  0.00  0.00    -0.391 OA
ATOM     60  O4G NTO d 869      -7.574  19.609 -21.415  0.00  0.00    -0.348 OA
ATOM     61  O3C NTO d 869     -12.474  16.596 -15.952  0.00  0.00    -0.572 OA
ATOM     62  O3M NTO d 869     -10.729  20.028 -17.458  0.00  0.00    -0.348 OA
ATOM     63  O44 NTO d 869     -12.342  20.714 -20.932  0.00  0.00    -0.646 OA
ATOM     64  C23 NTO d 869     -18.027  19.366 -13.551  0.00  0.00     0.206 C 
ATOM     65  C41 NTO d 869     -10.260  20.432 -19.797  0.00  0.00     0.152 C 
ATOM     66  O22 NTO d 869     -16.435  19.976 -15.309  0.00  0.00    -0.340 OA
ATOM     67  O1C NTO d 869     -23.227  22.822 -13.468  0.00  0.00    -0.391 OA
ATOM     68  C15 NTO d 869     -22.943  17.968 -13.997  0.00  0.00     0.067 C 
ATOM     69  N3G NTO d 869     -10.816  18.409 -15.091  0.00  0.00    -0.210 NA
ATOM     70  C40 NTO d 869     -10.034  20.893 -18.364  0.00  0.00     0.103 C 
ATOM     71  S1G NTO d 869     -22.271  24.278 -16.106  0.00  0.00     0.156 S 
ATOM     72  O1L NTO d 869     -20.007  20.720 -14.911  0.00  0.00    -0.348 OA
ATOM     73  O57 NTO d 869      -4.585  16.031 -19.167  0.00  0.00    -0.572 OA
ATOM     74  O34 NTO d 869     -13.818  23.546 -15.701  0.00  0.00    -0.254 OA
ATOM     75  O1H NTO d 869     -23.340  24.499 -15.077  0.00  0.00    -0.296 OA
ATOM     76  O27 NTO d 869     -19.505  21.555 -17.657  0.00  0.00    -0.390 OA
ATOM     77  C50 NTO d 869      -7.760  18.405 -22.174  0.00  0.00     0.095 C 
ATOM     78  O3E NTO d 869     -14.482  17.349 -17.126  0.00  0.00    -0.572 OA
ATOM     79  O25 NTO d 869     -18.738  19.783 -12.606  0.00  0.00    -0.646 OA
ATOM     80  S3H NTO d 869      -9.353  18.658 -14.407  0.00  0.00     0.156 S 
ATOM     81  S35 NTO d 869     -14.580  24.752 -15.554  0.00  0.00     0.251 S 
ATOM     82  O1I NTO d 869     -22.897  23.852 -17.402  0.00  0.00    -0.296 OA
ATOM     83  C13 NTO d 869     -22.154  19.273 -14.142  0.00  0.00     0.090 C 
ATOM     84  O58 NTO d 869      -6.198  14.213 -19.477  0.00  0.00    -0.572 OA
ATOM     85  O3A NTO d 869     -13.712  18.490 -15.156  0.00  0.00    -0.247 OA
ATOM     86  C1B NTO d 869     -22.338  21.771 -13.853  0.00  0.00     0.083 C 
ATOM     87  O4C NTO d 869      -6.240  22.356 -20.811  0.00  0.00    -0.572 OA
ATOM     88  O4E NTO d 869      -4.259  21.847 -19.473  0.00  0.00    -0.572 OA
ATOM     89  O36 NTO d 869     -16.017  24.419 -15.289  0.00  0.00    -0.572 OA
ATOM     90  O2A NTO d 869     -16.781  22.176 -18.248  0.00  0.00    -0.388 OA
ATOM     91  C30 NTO d 869     -13.673  20.691 -16.185  0.00  0.00     0.096 C 
ATOM     92  H   NTO d 869     -11.752  20.076 -14.300  0.00  0.00     0.076 H 
ATOM     93  H   NTO d 869      -7.425  15.908 -25.025  0.00  0.00     0.131 H 
ATOM     94  H   NTO d 869      -7.639  18.638 -19.611  0.00  0.00     0.133 H 
ATOM     95  H   NTO d 869     -20.551  22.933 -16.304  0.00  0.00     0.140 HD
ATOM     96  H   NTO d 869     -10.398  14.702 -25.949  0.00  0.00     0.231 HD
ATOM     97  H   NTO d 869      -9.820  20.812 -15.769  0.00  0.00     0.131 H 
ATOM     98  H   NTO d 869     -17.276  20.214 -17.886  0.00  0.00     0.094 H 
ATOM     99  H   NTO d 869     -18.959  19.484 -16.146  0.00  0.00     0.092 H 
ATOM    100  H   NTO d 869     -22.939  21.900 -15.903  0.00  0.00     0.076 H 
ATOM    101  H   NTO d 869      -8.273  17.818 -12.894  0.00  0.00     0.231 HD
ATOM    102  H   NTO d 869     -12.567  21.305 -17.886  0.00  0.00     0.090 H 
ATOM    103  H   NTO d 869      -8.351  19.972 -17.416  0.00  0.00     0.091 H 
ATOM    104  H   NTO d 869      -5.836  18.491 -23.047  0.00  0.00     0.090 H 
ATOM    105  H   NTO d 869      -9.257  16.833 -23.844  0.00  0.00     0.076 H 
ATOM    106  H   NTO d 869      -7.905  19.509 -24.009  0.00  0.00     0.089 H 
ATOM    107  H   NTO d 869     -17.485  21.317 -14.215  0.00  0.00     0.104 H 
ATOM    108  H   NTO d 869     -18.393  22.438 -16.181  0.00  0.00     0.091 H 
ATOM    109  H   NTO d 869      -8.362  22.796 -17.839  0.00  0.00     0.210 HD
ATOM    110  H   NTO d 869     -21.090  25.818 -15.480  0.00  0.00     0.231 HD
ATOM    111  H   NTO d 869      -4.943  17.279 -26.833  0.00  0.00     0.066 H 
ATOM    112  H   NTO d 869      -6.127  16.002 -26.700  0.00  0.00     0.066 H 
ATOM    113  H   NTO d 869      -4.934  16.220 -25.443  0.00  0.00     0.066 H 
ATOM    114  H   NTO d 869      -8.407  20.179 -13.432  0.00  0.00     0.231 HD
ATOM    115  H   NTO d 869     -12.222  16.329 -25.827  0.00  0.00     0.231 HD
ATOM    116  H   NTO d 869     -12.736  18.911 -16.902  0.00  0.00     0.092 H 
ATOM    117  H   NTO d 869     -20.882  20.730 -16.792  0.00  0.00     0.131 H 
ATOM    118  H   NTO d 869     -15.865  21.867 -15.812  0.00  0.00     0.133 H 
ATOM    119  H   NTO d 869      -8.459  17.980 -26.338  0.00  0.00     0.140 HD
ATOM    120  H   NTO d 869     -14.405  22.905 -17.553  0.00  0.00     0.080 H 
ATOM    121  H   NTO d 869     -12.850  23.732 -17.484  0.00  0.00     0.080 H 
ATOM    122  H   NTO d 869     -23.960  20.396 -14.009  0.00  0.00     0.091 H 
ATOM    123  H   NTO d 869      -7.968  21.611 -19.914  0.00  0.00     0.097 H 
ATOM    124  H   NTO d 869      -5.653  18.178 -20.559  0.00  0.00     0.080 H 
ATOM    125  H   NTO d 869      -4.766  16.949 -21.442  0.00  0.00     0.080 H 
ATOM    126  H   NTO d 869      -7.414  18.631 -15.041  0.00  0.00     0.231 HD
ATOM    127  H   NTO d 869     -22.188  20.270 -11.759  0.00  0.00     0.210 HD
ATOM    128  H   NTO d 869     -10.954  16.027 -27.907  0.00  0.00     0.231 HD
ATOM    129  H   NTO d 869     -10.269  18.612 -22.671  0.00  0.00     0.210 HD
ATOM    130  H   NTO d 869      -9.938  21.191 -20.479  0.00  0.00     0.104 H 
ATOM    131  H   NTO d 869     -22.814  23.679 -13.654  0.00  0.00     0.210 HD
ATOM    132  H   NTO d 869     -23.093  17.763 -12.958  0.00  0.00     0.080 H 
ATOM    133  H   NTO d 869     -23.883  18.080 -14.496  0.00  0.00     0.080 H 
ATOM    134  H   NTO d 869     -10.679  17.977 -16.006  0.00  0.00     0.140 HD
ATOM    135  H   NTO d 869     -10.394  21.896 -18.278  0.00  0.00     0.092 H 
ATOM    136  H   NTO d 869     -22.931  24.774 -14.241  0.00  0.00     0.231 HD
ATOM    137  H   NTO d 869     -19.582  20.696 -18.103  0.00  0.00     0.210 HD
ATOM    138  H   NTO d 869      -8.334  17.707 -21.600  0.00  0.00     0.091 H 
ATOM    139  H   NTO d 869     -22.203  23.711 -18.065  0.00  0.00     0.231 HD
ATOM    140  H   NTO d 869     -21.222  19.232 -13.617  0.00  0.00     0.090 H 
ATOM    141  H   NTO d 869     -21.428  21.853 -13.296  0.00  0.00     0.089 H 
ATOM    142  H   NTO d 869     -16.669  23.003 -17.754  0.00  0.00     0.210 HD
ATOM    143  H   NTO d 869     -13.955  21.073 -15.226  0.00  0.00     0.091 H 
ENDROOT
TORSDOF 46
ENDMDL
MODEL 22
REMARK VINA RESULT:      -7.0      2.919     13.639
REMARK  0 active torsions:
REMARK  status: ('A' for Active; 'I' for Inactive)
REMARK       I    between atoms: O4A_2  and  C49_47 
REMARK       I    between atoms: O4A_2  and  S4B_15 
REMARK       I    between atoms: C3F_4  and  N3G_69 
REMARK       I    between atoms: S17_5  and  O16_54 
REMARK       I    between atoms: C5L_6  and  O5M_26 
REMARK       I    between atoms: C4F_7  and  O4G_60 
REMARK       I    between atoms: N1F_9  and  C1E_19 
REMARK       I    between atoms: N1F_9  and  S1G_71 
REMARK       I    between atoms: O5J_11  and  S5H_38 
REMARK       I    between atoms: C3L_12  and  O3M_62 
REMARK       I    between atoms: C29_13  and  O2A_90 
REMARK       I    between atoms: S3B_14  and  O3A_85 
REMARK       I    between atoms: C20_18  and  O1L_72 
REMARK       I    between atoms: O3J_20  and  S3H_80 
REMARK       I    between atoms: C31_23  and  C33_44 
REMARK       I    between atoms: C46_25  and  O47_33 
REMARK       I    between atoms: O5M_26  and  C5N_35 
REMARK       I    between atoms: C51_28  and  C53_48 
REMARK       I    between atoms: C5F_29  and  N5G_43 
REMARK       I    between atoms: C59_30  and  O5A_59 
REMARK       I    between atoms: C21_31  and  C23_64 
REMARK       I    between atoms: C26_32  and  O27_76 
REMARK       I    between atoms: O1J_34  and  S1G_71 
REMARK       I    between atoms: O3K_36  and  S3H_80 
REMARK       I    between atoms: O5I_37  and  S5H_38 
REMARK       I    between atoms: S5H_38  and  O5K_53 
REMARK       I    between atoms: S5H_38  and  N5G_43 
REMARK       I    between atoms: C39_39  and  O3A_85 
REMARK       I    between atoms: C1K_40  and  O1L_72 
REMARK       I    between atoms: C2C_41  and  O2D_45 
REMARK       I    between atoms: C33_44  and  O34_74 
REMARK       I    between atoms: O2D_45  and  C30_91 
REMARK       I    between atoms: C12_46  and  O10_51 
REMARK       I    between atoms: C53_48  and  O54_57 
REMARK       I    between atoms: O3I_50  and  S3H_80 
REMARK       I    between atoms: O16_54  and  C15_68 
REMARK       I    between atoms: C43_56  and  C41_65 
REMARK       I    between atoms: O54_57  and  S55_58 
REMARK       I    between atoms: O4G_60  and  C50_77 
REMARK       I    between atoms: O3M_62  and  C40_70 
REMARK       I    between atoms: O1C_67  and  C1B_86 
REMARK       I    between atoms: C15_68  and  C13_83 
REMARK       I    between atoms: N3G_69  and  S3H_80 
REMARK       I    between atoms: S1G_71  and  O1H_75 
REMARK       I    between atoms: S1G_71  and  O1I_82 
REMARK       I    between atoms: O34_74  and  S35_81 
ROOT
ATOM      1  O42 NTO d 869      -9.989  18.601 -21.150  0.00  0.00    -0.340 OA
ATOM      2  O4A NTO d 869      -8.575  21.585 -22.762  0.00  0.00    -0.244 OA
ATOM      3  O32 NTO d 869     -14.290  21.273 -21.013  0.00  0.00    -0.349 OA
ATOM      4  C3F NTO d 869     -13.686  21.378 -18.684  0.00  0.00     0.083 C 
ATOM      5  S17 NTO d 869     -21.025  14.506 -12.128  0.00  0.00     0.251 S 
ATOM      6  C5L NTO d 869      -5.361  15.590 -21.873  0.00  0.00     0.149 C 
ATOM      7  C4F NTO d 869      -8.968  19.423 -21.734  0.00  0.00     0.161 C 
ATOM      8  O14 NTO d 869     -21.750  15.504 -16.005  0.00  0.00    -0.349 OA
ATOM      9  N1F NTO d 869     -22.891  16.839 -19.247  0.00  0.00    -0.210 NA
ATOM     10  O37 NTO d 869     -18.141  20.244 -23.637  0.00  0.00    -0.572 OA
ATOM     11  O5J NTO d 869      -6.271  12.942 -20.506  0.00  0.00    -0.296 OA
ATOM     12  C3L NTO d 869     -13.168  21.375 -20.121  0.00  0.00     0.150 C 
ATOM     13  C29 NTO d 869     -18.017  17.125 -19.478  0.00  0.00     0.110 C 
ATOM     14  S3B NTO d 869     -14.154  19.063 -16.289  0.00  0.00     0.252 S 
ATOM     15  S4B NTO d 869      -8.512  21.914 -24.153  0.00  0.00     0.252 S 
ATOM     16  O24 NTO d 869     -18.449  18.960 -15.122  0.00  0.00    -0.646 OA
ATOM     17  O45 NTO d 869     -12.636  17.831 -20.122  0.00  0.00    -0.646 OA
ATOM     18  C20 NTO d 869     -19.668  17.375 -17.633  0.00  0.00     0.103 C 
ATOM     19  C1E NTO d 869     -23.030  16.272 -17.900  0.00  0.00     0.081 C 
ATOM     20  O3J NTO d 869     -11.573  23.704 -16.706  0.00  0.00    -0.296 OA
ATOM     21  O38 NTO d 869     -18.701  22.389 -22.584  0.00  0.00    -0.572 OA
ATOM     22  O18 NTO d 869     -21.139  13.069 -12.541  0.00  0.00    -0.572 OA
ATOM     23  C31 NTO d 869     -14.949  20.005 -20.865  0.00  0.00     0.091 C 
ATOM     24  O52 NTO d 869      -5.188  16.863 -21.229  0.00  0.00    -0.349 OA
ATOM     25  C46 NTO d 869     -10.751  21.185 -21.766  0.00  0.00     0.094 C 
ATOM     26  O5M NTO d 869      -4.713  15.530 -23.150  0.00  0.00    -0.364 OA
ATOM     27  O3D NTO d 869     -14.737  19.042 -14.908  0.00  0.00    -0.572 OA
ATOM     28  C51 NTO d 869      -5.905  17.925 -21.879  0.00  0.00     0.091 C 
ATOM     29  C5F NTO d 869      -6.839  15.211 -21.980  0.00  0.00     0.081 C 
ATOM     30  C59 NTO d 869      -7.637  16.330 -22.652  0.00  0.00     0.083 C 
ATOM     31  C21 NTO d 869     -19.100  18.768 -17.409  0.00  0.00     0.152 C 
ATOM     32  C26 NTO d 869     -19.502  17.043 -19.115  0.00  0.00     0.092 C 
ATOM     33  O47 NTO d 869     -11.283  22.288 -22.507  0.00  0.00    -0.390 OA
ATOM     34  O1J NTO d 869     -23.925  16.821 -21.578  0.00  0.00    -0.296 OA
ATOM     35  C5N NTO d 869      -3.330  15.217 -22.954  0.00  0.00     0.007 C 
ATOM     36  O3K NTO d 869     -12.575  23.873 -18.920  0.00  0.00    -0.296 OA
ATOM     37  O5I NTO d 869      -8.527  12.500 -21.352  0.00  0.00    -0.296 OA
ATOM     38  S5H NTO d 869      -7.091  12.693 -21.737  0.00  0.00     0.156 S 
ATOM     39  C39 NTO d 869     -14.361  20.029 -18.431  0.00  0.00     0.108 C 
ATOM     40  C1K NTO d 869     -21.630  16.077 -17.317  0.00  0.00     0.150 C 
ATOM     41  C2C NTO d 869     -17.445  18.495 -19.103  0.00  0.00     0.160 C 
ATOM     42  O19 NTO d 869     -22.095  14.831 -11.128  0.00  0.00    -0.572 OA
ATOM     43  N5G NTO d 869      -6.977  13.966 -22.750  0.00  0.00    -0.210 NA
ATOM     44  C33 NTO d 869     -16.116  19.919 -21.853  0.00  0.00     0.067 C 
ATOM     45  O2D NTO d 869     -16.029  18.485 -19.349  0.00  0.00    -0.348 OA
ATOM     46  C12 NTO d 869     -23.808  16.747 -15.569  0.00  0.00     0.089 C 
ATOM     47  C49 NTO d 869      -9.569  20.585 -22.529  0.00  0.00     0.134 C 
ATOM     48  C53 NTO d 869      -5.658  19.200 -21.070  0.00  0.00     0.067 C 
ATOM     49  O4D NTO d 869      -9.681  22.779 -24.519  0.00  0.00    -0.572 OA
ATOM     50  O3I NTO d 869     -10.439  22.702 -18.633  0.00  0.00    -0.296 OA
ATOM     51  O10 NTO d 869     -24.345  17.772 -14.730  0.00  0.00    -0.390 OA
ATOM     52  O1A NTO d 869     -19.676  14.742 -11.522  0.00  0.00    -0.572 OA
ATOM     53  O5K NTO d 869      -6.579  11.457 -22.417  0.00  0.00    -0.296 OA
ATOM     54  O16 NTO d 869     -21.173  15.345 -13.280  0.00  0.00    -0.254 OA
ATOM     55  O56 NTO d 869      -7.161  20.685 -18.400  0.00  0.00    -0.572 OA
ATOM     56  C43 NTO d 869     -12.235  17.706 -21.302  0.00  0.00     0.206 C 
ATOM     57  O54 NTO d 869      -6.045  19.007 -19.708  0.00  0.00    -0.254 OA
ATOM     58  S55 NTO d 869      -5.849  20.042 -18.737  0.00  0.00     0.251 S 
ATOM     59  O5A NTO d 869      -9.033  16.024 -22.595  0.00  0.00    -0.391 OA
ATOM     60  O4G NTO d 869      -8.100  18.682 -22.604  0.00  0.00    -0.348 OA
ATOM     61  O3C NTO d 869     -12.720  19.493 -16.207  0.00  0.00    -0.572 OA
ATOM     62  O3M NTO d 869     -12.335  20.216 -20.259  0.00  0.00    -0.348 OA
ATOM     63  O44 NTO d 869     -12.606  16.784 -22.074  0.00  0.00    -0.646 OA
ATOM     64  C23 NTO d 869     -19.361  19.155 -15.961  0.00  0.00     0.206 C 
ATOM     65  C41 NTO d 869     -11.248  18.734 -21.833  0.00  0.00     0.152 C 
ATOM     66  O22 NTO d 869     -17.696  18.800 -17.722  0.00  0.00    -0.340 OA
ATOM     67  O1C NTO d 869     -25.146  17.368 -17.486  0.00  0.00    -0.391 OA
ATOM     68  C15 NTO d 869     -22.470  15.738 -13.731  0.00  0.00     0.067 C 
ATOM     69  N3G NTO d 869     -12.565  21.585 -17.749  0.00  0.00    -0.210 NA
ATOM     70  C40 NTO d 869     -11.831  20.120 -21.597  0.00  0.00     0.103 C 
ATOM     71  S1G NTO d 869     -24.043  16.210 -20.213  0.00  0.00     0.156 S 
ATOM     72  O1L NTO d 869     -21.047  17.385 -17.236  0.00  0.00    -0.348 OA
ATOM     73  O57 NTO d 869      -4.920  21.077 -19.297  0.00  0.00    -0.572 OA
ATOM     74  O34 NTO d 869     -17.106  20.917 -21.584  0.00  0.00    -0.254 OA
ATOM     75  O1H NTO d 869     -25.394  16.506 -19.633  0.00  0.00    -0.296 OA
ATOM     76  O27 NTO d 869     -19.977  15.719 -19.375  0.00  0.00    -0.390 OA
ATOM     77  C50 NTO d 869      -7.400  17.642 -21.905  0.00  0.00     0.095 C 
ATOM     78  O3E NTO d 869     -14.222  17.685 -16.881  0.00  0.00    -0.572 OA
ATOM     79  O25 NTO d 869     -20.485  19.633 -15.678  0.00  0.00    -0.646 OA
ATOM     80  S3H NTO d 869     -11.774  22.991 -18.010  0.00  0.00     0.156 S 
ATOM     81  S35 NTO d 869     -18.328  20.959 -22.332  0.00  0.00     0.251 S 
ATOM     82  O1I NTO d 869     -23.848  14.725 -20.311  0.00  0.00    -0.296 OA
ATOM     83  C13 NTO d 869     -22.388  16.420 -15.100  0.00  0.00     0.090 C 
ATOM     84  O58 NTO d 869      -5.249  19.445 -17.500  0.00  0.00    -0.572 OA
ATOM     85  O3A NTO d 869     -14.891  19.983 -17.101  0.00  0.00    -0.247 OA
ATOM     86  C1B NTO d 869     -23.802  17.251 -17.015  0.00  0.00     0.083 C 
ATOM     87  O4C NTO d 869      -8.537  20.656 -24.970  0.00  0.00    -0.572 OA
ATOM     88  O4E NTO d 869      -7.232  22.649 -24.416  0.00  0.00    -0.572 OA
ATOM     89  O36 NTO d 869     -19.424  20.293 -21.555  0.00  0.00    -0.572 OA
ATOM     90  O2A NTO d 869     -17.860  16.907 -20.881  0.00  0.00    -0.388 OA
ATOM     91  C30 NTO d 869     -15.483  19.810 -19.452  0.00  0.00     0.096 C 
ATOM     92  H   NTO d 869     -14.388  22.172 -18.533  0.00  0.00     0.076 H 
ATOM     93  H   NTO d 869      -4.882  14.865 -21.249  0.00  0.00     0.131 H 
ATOM     94  H   NTO d 869      -8.396  19.800 -20.912  0.00  0.00     0.133 H 
ATOM     95  H   NTO d 869     -21.970  16.610 -19.620  0.00  0.00     0.140 HD
ATOM     96  H   NTO d 869      -6.344  12.181 -19.909  0.00  0.00     0.231 HD
ATOM     97  H   NTO d 869     -12.620  22.266 -20.349  0.00  0.00     0.131 H 
ATOM     98  H   NTO d 869     -17.487  16.373 -18.932  0.00  0.00     0.094 H 
ATOM     99  H   NTO d 869     -19.163  16.630 -17.055  0.00  0.00     0.092 H 
ATOM    100  H   NTO d 869     -23.554  15.339 -17.945  0.00  0.00     0.076 H 
ATOM    101  H   NTO d 869     -11.104  24.538 -16.862  0.00  0.00     0.231 HD
ATOM    102  H   NTO d 869     -14.230  19.238 -21.062  0.00  0.00     0.090 H 
ATOM    103  H   NTO d 869     -10.425  21.525 -20.805  0.00  0.00     0.091 H 
ATOM    104  H   NTO d 869      -5.567  18.021 -22.890  0.00  0.00     0.090 H 
ATOM    105  H   NTO d 869      -7.227  15.065 -20.993  0.00  0.00     0.076 H 
ATOM    106  H   NTO d 869      -7.321  16.422 -23.670  0.00  0.00     0.089 H 
ATOM    107  H   NTO d 869     -19.575  19.474 -18.058  0.00  0.00     0.104 H 
ATOM    108  H   NTO d 869     -20.064  17.740 -19.701  0.00  0.00     0.091 H 
ATOM    109  H   NTO d 869     -11.578  21.979 -23.378  0.00  0.00     0.210 HD
ATOM    110  H   NTO d 869     -24.051  17.780 -21.514  0.00  0.00     0.231 HD
ATOM    111  H   NTO d 869      -2.838  15.170 -23.903  0.00  0.00     0.066 H 
ATOM    112  H   NTO d 869      -3.245  14.272 -22.460  0.00  0.00     0.066 H 
ATOM    113  H   NTO d 869      -2.875  15.976 -22.353  0.00  0.00     0.066 H 
ATOM    114  H   NTO d 869     -12.097  24.704 -19.068  0.00  0.00     0.231 HD
ATOM    115  H   NTO d 869      -8.601  11.743 -20.749  0.00  0.00     0.231 HD
ATOM    116  H   NTO d 869     -13.635  19.251 -18.538  0.00  0.00     0.092 H 
ATOM    117  H   NTO d 869     -21.028  15.424 -17.914  0.00  0.00     0.131 H 
ATOM    118  H   NTO d 869     -17.921  19.245 -19.698  0.00  0.00     0.133 H 
ATOM    119  H   NTO d 869      -6.161  13.849 -23.350  0.00  0.00     0.140 HD
ATOM    120  H   NTO d 869     -16.567  18.953 -21.776  0.00  0.00     0.080 H 
ATOM    121  H   NTO d 869     -15.733  20.084 -22.839  0.00  0.00     0.080 H 
ATOM    122  H   NTO d 869     -24.402  15.859 -15.515  0.00  0.00     0.091 H 
ATOM    123  H   NTO d 869      -9.917  20.218 -23.472  0.00  0.00     0.097 H 
ATOM    124  H   NTO d 869      -6.232  20.000 -21.489  0.00  0.00     0.080 H 
ATOM    125  H   NTO d 869      -4.616  19.437 -21.104  0.00  0.00     0.080 H 
ATOM    126  H   NTO d 869      -9.969  23.536 -18.789  0.00  0.00     0.231 HD
ATOM    127  H   NTO d 869     -23.792  18.566 -14.795  0.00  0.00     0.210 HD
ATOM    128  H   NTO d 869      -6.649  10.703 -21.811  0.00  0.00     0.231 HD
ATOM    129  H   NTO d 869      -9.309  15.944 -21.669  0.00  0.00     0.210 HD
ATOM    130  H   NTO d 869     -11.080  18.583 -22.879  0.00  0.00     0.104 H 
ATOM    131  H   NTO d 869     -25.141  17.686 -18.402  0.00  0.00     0.210 HD
ATOM    132  H   NTO d 869     -22.895  16.421 -13.025  0.00  0.00     0.080 H 
ATOM    133  H   NTO d 869     -23.082  14.864 -13.819  0.00  0.00     0.080 H 
ATOM    134  H   NTO d 869     -11.904  20.814 -17.856  0.00  0.00     0.140 HD
ATOM    135  H   NTO d 869     -12.617  20.275 -22.307  0.00  0.00     0.092 H 
ATOM    136  H   NTO d 869     -25.516  17.466 -19.572  0.00  0.00     0.231 HD
ATOM    137  H   NTO d 869     -19.470  15.083 -18.845  0.00  0.00     0.210 HD
ATOM    138  H   NTO d 869      -7.756  17.587 -20.898  0.00  0.00     0.091 H 
ATOM    139  H   NTO d 869     -22.973  14.538 -20.686  0.00  0.00     0.231 HD
ATOM    140  H   NTO d 869     -21.826  17.329 -15.056  0.00  0.00     0.090 H 
ATOM    141  H   NTO d 869     -23.326  18.209 -17.054  0.00  0.00     0.089 H 
ATOM    142  H   NTO d 869     -18.343  17.591 -21.370  0.00  0.00     0.210 HD
ATOM    143  H   NTO d 869     -16.253  20.522 -19.244  0.00  0.00     0.091 H 
ENDROOT
TORSDOF 46
ENDMDL
MODEL 23
REMARK VINA RESULT:      -6.8      3.488      5.489
REMARK  0 active torsions:
REMARK  status: ('A' for Active; 'I' for Inactive)
REMARK       I    between atoms: O4A_2  and  C49_47 
REMARK       I    between atoms: O4A_2  and  S4B_15 
REMARK       I    between atoms: C3F_4  and  N3G_69 
REMARK       I    between atoms: S17_5  and  O16_54 
REMARK       I    between atoms: C5L_6  and  O5M_26 
REMARK       I    between atoms: C4F_7  and  O4G_60 
REMARK       I    between atoms: N1F_9  and  C1E_19 
REMARK       I    between atoms: N1F_9  and  S1G_71 
REMARK       I    between atoms: O5J_11  and  S5H_38 
REMARK       I    between atoms: C3L_12  and  O3M_62 
REMARK       I    between atoms: C29_13  and  O2A_90 
REMARK       I    between atoms: S3B_14  and  O3A_85 
REMARK       I    between atoms: C20_18  and  O1L_72 
REMARK       I    between atoms: O3J_20  and  S3H_80 
REMARK       I    between atoms: C31_23  and  C33_44 
REMARK       I    between atoms: C46_25  and  O47_33 
REMARK       I    between atoms: O5M_26  and  C5N_35 
REMARK       I    between atoms: C51_28  and  C53_48 
REMARK       I    between atoms: C5F_29  and  N5G_43 
REMARK       I    between atoms: C59_30  and  O5A_59 
REMARK       I    between atoms: C21_31  and  C23_64 
REMARK       I    between atoms: C26_32  and  O27_76 
REMARK       I    between atoms: O1J_34  and  S1G_71 
REMARK       I    between atoms: O3K_36  and  S3H_80 
REMARK       I    between atoms: O5I_37  and  S5H_38 
REMARK       I    between atoms: S5H_38  and  O5K_53 
REMARK       I    between atoms: S5H_38  and  N5G_43 
REMARK       I    between atoms: C39_39  and  O3A_85 
REMARK       I    between atoms: C1K_40  and  O1L_72 
REMARK       I    between atoms: C2C_41  and  O2D_45 
REMARK       I    between atoms: C33_44  and  O34_74 
REMARK       I    between atoms: O2D_45  and  C30_91 
REMARK       I    between atoms: C12_46  and  O10_51 
REMARK       I    between atoms: C53_48  and  O54_57 
REMARK       I    between atoms: O3I_50  and  S3H_80 
REMARK       I    between atoms: O16_54  and  C15_68 
REMARK       I    between atoms: C43_56  and  C41_65 
REMARK       I    between atoms: O54_57  and  S55_58 
REMARK       I    between atoms: O4G_60  and  C50_77 
REMARK       I    between atoms: O3M_62  and  C40_70 
REMARK       I    between atoms: O1C_67  and  C1B_86 
REMARK       I    between atoms: C15_68  and  C13_83 
REMARK       I    between atoms: N3G_69  and  S3H_80 
REMARK       I    between atoms: S1G_71  and  O1H_75 
REMARK       I    between atoms: S1G_71  and  O1I_82 
REMARK       I    between atoms: O34_74  and  S35_81 
ROOT
ATOM      1  O42 NTO d 869     -22.341  16.824 -14.582  0.00  0.00    -0.340 OA
ATOM      2  O4A NTO d 869     -25.002  19.279 -13.949  0.00  0.00    -0.244 OA
ATOM      3  O32 NTO d 869     -19.705  20.799 -16.285  0.00  0.00    -0.349 OA
ATOM      4  C3F NTO d 869     -20.214  19.735 -18.385  0.00  0.00     0.083 C 
ATOM      5  S17 NTO d 869     -10.353  14.740 -23.061  0.00  0.00     0.251 S 
ATOM      6  C5L NTO d 869     -25.136  12.656 -12.170  0.00  0.00     0.149 C 
ATOM      7  C4F NTO d 869     -23.642  17.283 -14.187  0.00  0.00     0.161 C 
ATOM      8  O14 NTO d 869     -10.285  17.352 -19.943  0.00  0.00    -0.349 OA
ATOM      9  N1F NTO d 869      -9.976  20.174 -17.591  0.00  0.00    -0.210 NA
ATOM     10  O37 NTO d 869     -15.892  22.610 -14.057  0.00  0.00    -0.572 OA
ATOM     11  O5J NTO d 869     -23.085  10.354 -12.623  0.00  0.00    -0.296 OA
ATOM     12  C3L NTO d 869     -20.722  20.062 -16.981  0.00  0.00     0.150 C 
ATOM     13  C29 NTO d 869     -14.459  18.411 -16.770  0.00  0.00     0.110 C 
ATOM     14  S3B NTO d 869     -18.674  17.123 -19.840  0.00  0.00     0.252 S 
ATOM     15  S4B NTO d 869     -25.252  20.055 -12.773  0.00  0.00     0.252 S 
ATOM     16  O24 NTO d 869     -14.758  18.431 -21.506  0.00  0.00    -0.646 OA
ATOM     17  O45 NTO d 869     -19.599  16.933 -15.642  0.00  0.00    -0.646 OA
ATOM     18  C20 NTO d 869     -13.039  18.616 -18.802  0.00  0.00     0.103 C 
ATOM     19  C1E NTO d 869      -9.551  19.253 -18.653  0.00  0.00     0.081 C 
ATOM     20  O3J NTO d 869     -23.082  19.978 -20.731  0.00  0.00    -0.296 OA
ATOM     21  O38 NTO d 869     -16.325  24.203 -15.873  0.00  0.00    -0.572 OA
ATOM     22  O18 NTO d 869      -9.617  13.771 -22.186  0.00  0.00    -0.572 OA
ATOM     23  C31 NTO d 869     -18.541  19.987 -16.067  0.00  0.00     0.091 C 
ATOM     24  O52 NTO d 869     -25.843  13.377 -13.193  0.00  0.00    -0.349 OA
ATOM     25  C46 NTO d 869     -22.847  19.502 -15.044  0.00  0.00     0.094 C 
ATOM     26  O5M NTO d 869     -25.729  12.818 -10.876  0.00  0.00    -0.364 OA
ATOM     27  O3D NTO d 869     -18.099  16.827 -21.193  0.00  0.00    -0.572 OA
ATOM     28  C51 NTO d 869     -25.703  14.802 -13.074  0.00  0.00     0.091 C 
ATOM     29  C5F NTO d 869     -23.650  13.019 -12.152  0.00  0.00     0.081 C 
ATOM     30  C59 NTO d 869     -23.466  14.533 -12.046  0.00  0.00     0.083 C 
ATOM     31  C21 NTO d 869     -14.166  19.427 -19.422  0.00  0.00     0.152 C 
ATOM     32  C26 NTO d 869     -13.087  18.840 -17.292  0.00  0.00     0.092 C 
ATOM     33  O47 NTO d 869     -22.894  20.916 -14.829  0.00  0.00    -0.390 OA
ATOM     34  O1J NTO d 869      -9.122  21.494 -15.583  0.00  0.00    -0.296 OA
ATOM     35  C5N NTO d 869     -26.815  11.895 -10.744  0.00  0.00     0.007 C 
ATOM     36  O3K NTO d 869     -22.338  21.394 -18.892  0.00  0.00    -0.296 OA
ATOM     37  O5I NTO d 869     -20.902  11.281 -12.013  0.00  0.00    -0.296 OA
ATOM     38  S5H NTO d 869     -22.282  10.971 -11.517  0.00  0.00     0.156 S 
ATOM     39  C39 NTO d 869     -18.995  18.824 -18.237  0.00  0.00     0.108 C 
ATOM     40  C1K NTO d 869     -10.693  18.271 -18.918  0.00  0.00     0.150 C 
ATOM     41  C2C NTO d 869     -15.575  19.144 -17.520  0.00  0.00     0.160 C 
ATOM     42  O19 NTO d 869      -9.513  15.081 -24.256  0.00  0.00    -0.572 OA
ATOM     43  N5G NTO d 869     -22.991  12.353 -11.018  0.00  0.00    -0.210 NA
ATOM     44  C33 NTO d 869     -17.494  20.794 -15.294  0.00  0.00     0.067 C 
ATOM     45  O2D NTO d 869     -16.842  18.624 -17.083  0.00  0.00    -0.348 OA
ATOM     46  C12 NTO d 869      -8.995  19.083 -21.087  0.00  0.00     0.089 C 
ATOM     47  C49 NTO d 869     -23.656  18.797 -13.954  0.00  0.00     0.134 C 
ATOM     48  C53 NTO d 869     -26.472  15.431 -14.239  0.00  0.00     0.067 C 
ATOM     49  O4D NTO d 869     -24.611  21.403 -12.914  0.00  0.00    -0.572 OA
ATOM     50  O3I NTO d 869     -23.705  19.410 -18.430  0.00  0.00    -0.296 OA
ATOM     51  O10 NTO d 869      -8.950  19.831 -22.305  0.00  0.00    -0.390 OA
ATOM     52  O1A NTO d 869     -11.643  14.123 -23.509  0.00  0.00    -0.572 OA
ATOM     53  O5K NTO d 869     -22.204  10.002 -10.375  0.00  0.00    -0.296 OA
ATOM     54  O16 NTO d 869     -10.637  15.931 -22.318  0.00  0.00    -0.254 OA
ATOM     55  O56 NTO d 869     -25.713  16.267 -17.451  0.00  0.00    -0.572 OA
ATOM     56  C43 NTO d 869     -19.940  17.110 -14.451  0.00  0.00     0.206 C 
ATOM     57  O54 NTO d 869     -25.995  14.917 -15.484  0.00  0.00    -0.254 OA
ATOM     58  S55 NTO d 869     -26.604  15.308 -16.720  0.00  0.00     0.251 S 
ATOM     59  O5A NTO d 869     -22.080  14.859 -12.192  0.00  0.00    -0.391 OA
ATOM     60  O4G NTO d 869     -24.111  16.639 -12.993  0.00  0.00    -0.348 OA
ATOM     61  O3C NTO d 869     -20.144  16.831 -19.861  0.00  0.00    -0.572 OA
ATOM     62  O3M NTO d 869     -20.947  18.809 -16.320  0.00  0.00    -0.348 OA
ATOM     63  O44 NTO d 869     -19.218  16.810 -13.464  0.00  0.00    -0.646 OA
ATOM     64  C23 NTO d 869     -14.060  19.302 -20.934  0.00  0.00     0.206 C 
ATOM     65  C41 NTO d 869     -21.301  17.733 -14.182  0.00  0.00     0.152 C 
ATOM     66  O22 NTO d 869     -15.444  18.973 -18.940  0.00  0.00    -0.340 OA
ATOM     67  O1C NTO d 869      -8.144  20.898 -19.732  0.00  0.00    -0.391 OA
ATOM     68  C15 NTO d 869      -9.672  16.981 -22.230  0.00  0.00     0.067 C 
ATOM     69  N3G NTO d 869     -21.277  19.067 -19.158  0.00  0.00    -0.210 NA
ATOM     70  C40 NTO d 869     -21.398  19.027 -14.978  0.00  0.00     0.103 C 
ATOM     71  S1G NTO d 869      -8.697  20.522 -16.643  0.00  0.00     0.156 S 
ATOM     72  O1L NTO d 869     -11.800  19.062 -19.372  0.00  0.00    -0.348 OA
ATOM     73  O57 NTO d 869     -27.918  15.973 -16.436  0.00  0.00    -0.572 OA
ATOM     74  O34 NTO d 869     -17.051  21.932 -16.041  0.00  0.00    -0.254 OA
ATOM     75  O1H NTO d 869      -7.606  21.120 -17.480  0.00  0.00    -0.296 OA
ATOM     76  O27 NTO d 869     -12.075  18.059 -16.650  0.00  0.00    -0.390 OA
ATOM     77  C50 NTO d 869     -24.243  15.220 -13.167  0.00  0.00     0.095 C 
ATOM     78  O3E NTO d 869     -18.012  16.252 -18.814  0.00  0.00    -0.572 OA
ATOM     79  O25 NTO d 869     -13.264  20.066 -21.529  0.00  0.00    -0.646 OA
ATOM     80  S3H NTO d 869     -22.624  19.980 -19.302  0.00  0.00     0.156 S 
ATOM     81  S35 NTO d 869     -16.005  22.776 -15.544  0.00  0.00     0.251 S 
ATOM     82  O1I NTO d 869      -8.204  19.260 -15.996  0.00  0.00    -0.296 OA
ATOM     83  C13 NTO d 869     -10.098  18.028 -21.197  0.00  0.00     0.090 C 
ATOM     84  O58 NTO d 869     -26.829  14.089 -17.562  0.00  0.00    -0.572 OA
ATOM     85  O3A NTO d 869     -18.459  18.503 -19.525  0.00  0.00    -0.247 OA
ATOM     86  C1B NTO d 869      -9.275  20.046 -19.930  0.00  0.00     0.083 C 
ATOM     87  O4C NTO d 869     -24.689  19.348 -11.575  0.00  0.00    -0.572 OA
ATOM     88  O4E NTO d 869     -26.733  20.209 -12.605  0.00  0.00    -0.572 OA
ATOM     89  O36 NTO d 869     -14.701  22.402 -16.184  0.00  0.00    -0.572 OA
ATOM     90  O2A NTO d 869     -14.548  18.703 -15.375  0.00  0.00    -0.388 OA
ATOM     91  C30 NTO d 869     -17.930  19.514 -17.380  0.00  0.00     0.096 C 
ATOM     92  H   NTO d 869     -19.941  20.628 -18.909  0.00  0.00     0.076 H 
ATOM     93  H   NTO d 869     -25.216  11.618 -12.418  0.00  0.00     0.131 H 
ATOM     94  H   NTO d 869     -24.295  17.033 -14.997  0.00  0.00     0.133 H 
ATOM     95  H   NTO d 869     -10.706  19.735 -17.031  0.00  0.00     0.140 HD
ATOM     96  H   NTO d 869     -22.657   9.533 -12.914  0.00  0.00     0.231 HD
ATOM     97  H   NTO d 869     -21.620  20.644 -17.009  0.00  0.00     0.131 H 
ATOM     98  H   NTO d 869     -14.575  17.359 -16.929  0.00  0.00     0.094 H 
ATOM     99  H   NTO d 869     -13.134  17.568 -18.997  0.00  0.00     0.092 H 
ATOM    100  H   NTO d 869      -8.665  18.731 -18.356  0.00  0.00     0.076 H 
ATOM    101  H   NTO d 869     -23.881  20.520 -20.815  0.00  0.00     0.231 HD
ATOM    102  H   NTO d 869     -18.842  19.127 -15.507  0.00  0.00     0.090 H 
ATOM    103  H   NTO d 869     -23.259  19.272 -16.004  0.00  0.00     0.091 H 
ATOM    104  H   NTO d 869     -26.081  15.123 -12.126  0.00  0.00     0.090 H 
ATOM    105  H   NTO d 869     -23.206  12.687 -13.067  0.00  0.00     0.076 H 
ATOM    106  H   NTO d 869     -23.822  14.863 -11.092  0.00  0.00     0.089 H 
ATOM    107  H   NTO d 869     -14.082  20.457 -19.143  0.00  0.00     0.104 H 
ATOM    108  H   NTO d 869     -12.919  19.876 -17.080  0.00  0.00     0.091 H 
ATOM    109  H   NTO d 869     -22.520  21.122 -13.958  0.00  0.00     0.210 HD
ATOM    110  H   NTO d 869      -9.440  22.309 -16.001  0.00  0.00     0.231 HD
ATOM    111  H   NTO d 869     -27.264  12.009  -9.779  0.00  0.00     0.066 H 
ATOM    112  H   NTO d 869     -26.449  10.896 -10.851  0.00  0.00     0.066 H 
ATOM    113  H   NTO d 869     -27.544  12.092 -11.502  0.00  0.00     0.066 H 
ATOM    114  H   NTO d 869     -23.144  21.925 -18.982  0.00  0.00     0.231 HD
ATOM    115  H   NTO d 869     -20.475  10.462 -12.312  0.00  0.00     0.231 HD
ATOM    116  H   NTO d 869     -19.296  17.916 -17.755  0.00  0.00     0.092 H 
ATOM    117  H   NTO d 869     -10.956  17.708 -18.047  0.00  0.00     0.131 H 
ATOM    118  H   NTO d 869     -15.508  20.190 -17.307  0.00  0.00     0.133 H 
ATOM    119  H   NTO d 869     -23.686  12.138 -10.303  0.00  0.00     0.140 HD
ATOM    120  H   NTO d 869     -16.653  20.166 -15.087  0.00  0.00     0.080 H 
ATOM    121  H   NTO d 869     -17.942  21.143 -14.387  0.00  0.00     0.080 H 
ATOM    122  H   NTO d 869      -8.063  18.589 -20.908  0.00  0.00     0.091 H 
ATOM    123  H   NTO d 869     -23.211  19.006 -13.004  0.00  0.00     0.097 H 
ATOM    124  H   NTO d 869     -26.335  16.491 -14.220  0.00  0.00     0.080 H 
ATOM    125  H   NTO d 869     -27.510  15.192 -14.140  0.00  0.00     0.080 H 
ATOM    126  H   NTO d 869     -24.506  19.951 -18.514  0.00  0.00     0.231 HD
ATOM    127  H   NTO d 869      -9.804  20.269 -22.446  0.00  0.00     0.210 HD
ATOM    128  H   NTO d 869     -21.782   9.182 -10.676  0.00  0.00     0.231 HD
ATOM    129  H   NTO d 869     -21.767  14.557 -13.059  0.00  0.00     0.210 HD
ATOM    130  H   NTO d 869     -21.417  17.939 -13.138  0.00  0.00     0.104 H 
ATOM    131  H   NTO d 869      -8.322  21.507 -19.000  0.00  0.00     0.210 HD
ATOM    132  H   NTO d 869      -9.579  17.451 -23.187  0.00  0.00     0.080 H 
ATOM    133  H   NTO d 869      -8.736  16.561 -21.927  0.00  0.00     0.080 H 
ATOM    134  H   NTO d 869     -21.522  18.195 -18.689  0.00  0.00     0.140 HD
ATOM    135  H   NTO d 869     -20.790  19.762 -14.492  0.00  0.00     0.092 H 
ATOM    136  H   NTO d 869      -7.928  21.935 -17.896  0.00  0.00     0.231 HD
ATOM    137  H   NTO d 869     -12.223  17.119 -16.839  0.00  0.00     0.210 HD
ATOM    138  H   NTO d 869     -23.868  14.942 -14.130  0.00  0.00     0.091 H 
ATOM    139  H   NTO d 869      -8.913  18.876 -15.456  0.00  0.00     0.231 HD
ATOM    140  H   NTO d 869     -11.008  18.515 -21.479  0.00  0.00     0.090 H 
ATOM    141  H   NTO d 869     -10.132  20.642 -20.166  0.00  0.00     0.089 H 
ATOM    142  H   NTO d 869     -14.441  19.657 -15.236  0.00  0.00     0.210 HD
ATOM    143  H   NTO d 869     -17.557  20.348 -17.937  0.00  0.00     0.091 H 
ENDROOT
TORSDOF 46
ENDMDL
MODEL 24
REMARK VINA RESULT:      -6.7      3.444      5.277
REMARK  0 active torsions:
REMARK  status: ('A' for Active; 'I' for Inactive)
REMARK       I    between atoms: O4A_2  and  C49_47 
REMARK       I    between atoms: O4A_2  and  S4B_15 
REMARK       I    between atoms: C3F_4  and  N3G_69 
REMARK       I    between atoms: S17_5  and  O16_54 
REMARK       I    between atoms: C5L_6  and  O5M_26 
REMARK       I    between atoms: C4F_7  and  O4G_60 
REMARK       I    between atoms: N1F_9  and  C1E_19 
REMARK       I    between atoms: N1F_9  and  S1G_71 
REMARK       I    between atoms: O5J_11  and  S5H_38 
REMARK       I    between atoms: C3L_12  and  O3M_62 
REMARK       I    between atoms: C29_13  and  O2A_90 
REMARK       I    between atoms: S3B_14  and  O3A_85 
REMARK       I    between atoms: C20_18  and  O1L_72 
REMARK       I    between atoms: O3J_20  and  S3H_80 
REMARK       I    between atoms: C31_23  and  C33_44 
REMARK       I    between atoms: C46_25  and  O47_33 
REMARK       I    between atoms: O5M_26  and  C5N_35 
REMARK       I    between atoms: C51_28  and  C53_48 
REMARK       I    between atoms: C5F_29  and  N5G_43 
REMARK       I    between atoms: C59_30  and  O5A_59 
REMARK       I    between atoms: C21_31  and  C23_64 
REMARK       I    between atoms: C26_32  and  O27_76 
REMARK       I    between atoms: O1J_34  and  S1G_71 
REMARK       I    between atoms: O3K_36  and  S3H_80 
REMARK       I    between atoms: O5I_37  and  S5H_38 
REMARK       I    between atoms: S5H_38  and  O5K_53 
REMARK       I    between atoms: S5H_38  and  N5G_43 
REMARK       I    between atoms: C39_39  and  O3A_85 
REMARK       I    between atoms: C1K_40  and  O1L_72 
REMARK       I    between atoms: C2C_41  and  O2D_45 
REMARK       I    between atoms: C33_44  and  O34_74 
REMARK       I    between atoms: O2D_45  and  C30_91 
REMARK       I    between atoms: C12_46  and  O10_51 
REMARK       I    between atoms: C53_48  and  O54_57 
REMARK       I    between atoms: O3I_50  and  S3H_80 
REMARK       I    between atoms: O16_54  and  C15_68 
REMARK       I    between atoms: C43_56  and  C41_65 
REMARK       I    between atoms: O54_57  and  S55_58 
REMARK       I    between atoms: O4G_60  and  C50_77 
REMARK       I    between atoms: O3M_62  and  C40_70 
REMARK       I    between atoms: O1C_67  and  C1B_86 
REMARK       I    between atoms: C15_68  and  C13_83 
REMARK       I    between atoms: N3G_69  and  S3H_80 
REMARK       I    between atoms: S1G_71  and  O1H_75 
REMARK       I    between atoms: S1G_71  and  O1I_82 
REMARK       I    between atoms: O34_74  and  S35_81 
ROOT
ATOM      1  O42 NTO d 869     -21.128  18.395 -15.909  0.00  0.00    -0.340 OA
ATOM      2  O4A NTO d 869     -22.865  21.030 -14.025  0.00  0.00    -0.244 OA
ATOM      3  O32 NTO d 869     -17.274  21.677 -16.061  0.00  0.00    -0.349 OA
ATOM      4  C3F NTO d 869     -18.019  21.838 -18.345  0.00  0.00     0.083 C 
ATOM      5  S17 NTO d 869     -10.150  16.552 -25.709  0.00  0.00     0.251 S 
ATOM      6  C5L NTO d 869     -25.225  14.694 -15.182  0.00  0.00     0.149 C 
ATOM      7  C4F NTO d 869     -22.223  19.019 -15.221  0.00  0.00     0.161 C 
ATOM      8  O14 NTO d 869      -9.357  17.402 -21.810  0.00  0.00    -0.349 OA
ATOM      9  N1F NTO d 869      -8.238  18.684 -18.540  0.00  0.00    -0.210 NA
ATOM     10  O37 NTO d 869     -13.170  21.067 -13.701  0.00  0.00    -0.572 OA
ATOM     11  O5J NTO d 869     -24.021  12.300 -16.773  0.00  0.00    -0.296 OA
ATOM     12  C3L NTO d 869     -18.448  21.668 -16.889  0.00  0.00     0.150 C 
ATOM     13  C29 NTO d 869     -13.080  18.231 -18.059  0.00  0.00     0.110 C 
ATOM     14  S3B NTO d 869     -17.358  19.772 -20.917  0.00  0.00     0.252 S 
ATOM     15  S4B NTO d 869     -22.895  21.259 -12.613  0.00  0.00     0.252 S 
ATOM     16  O24 NTO d 869     -13.167  20.380 -22.290  0.00  0.00    -0.646 OA
ATOM     17  O45 NTO d 869     -18.461  18.091 -17.112  0.00  0.00    -0.646 OA
ATOM     18  C20 NTO d 869     -11.591  18.838 -19.957  0.00  0.00     0.103 C 
ATOM     19  C1E NTO d 869      -8.095  18.229 -19.928  0.00  0.00     0.081 C 
ATOM     20  O3J NTO d 869     -20.554  23.945 -20.053  0.00  0.00    -0.296 OA
ATOM     21  O38 NTO d 869     -12.987  23.333 -14.625  0.00  0.00    -0.572 OA
ATOM     22  O18 NTO d 869      -9.807  15.125 -25.404  0.00  0.00    -0.572 OA
ATOM     23  C31 NTO d 869     -16.448  20.533 -16.329  0.00  0.00     0.091 C 
ATOM     24  O52 NTO d 869     -25.616  15.965 -15.726  0.00  0.00    -0.349 OA
ATOM     25  C46 NTO d 869     -20.714  21.020 -15.149  0.00  0.00     0.094 C 
ATOM     26  O5M NTO d 869     -25.783  14.459 -13.883  0.00  0.00    -0.364 OA
ATOM     27  O3D NTO d 869     -16.858  19.925 -22.322  0.00  0.00    -0.572 OA
ATOM     28  C51 NTO d 869     -25.023  17.078 -15.037  0.00  0.00     0.091 C 
ATOM     29  C5F NTO d 869     -23.703  14.532 -15.172  0.00  0.00     0.081 C 
ATOM     30  C59 NTO d 869     -23.039  15.712 -14.461  0.00  0.00     0.083 C 
ATOM     31  C21 NTO d 869     -12.366  20.142 -20.056  0.00  0.00     0.152 C 
ATOM     32  C26 NTO d 869     -11.623  18.393 -18.496  0.00  0.00     0.092 C 
ATOM     33  O47 NTO d 869     -20.305  22.140 -14.358  0.00  0.00    -0.390 OA
ATOM     34  O1J NTO d 869      -7.080  18.673 -16.268  0.00  0.00    -0.296 OA
ATOM     35  C5N NTO d 869     -27.115  13.958 -14.034  0.00  0.00     0.007 C 
ATOM     36  O3K NTO d 869     -19.463  24.122 -17.881  0.00  0.00    -0.296 OA
ATOM     37  O5I NTO d 869     -21.680  12.145 -16.068  0.00  0.00    -0.296 OA
ATOM     38  S5H NTO d 869     -23.105  12.098 -15.603  0.00  0.00     0.156 S 
ATOM     39  C39 NTO d 869     -17.171  20.622 -18.724  0.00  0.00     0.108 C 
ATOM     40  C1K NTO d 869      -9.483  17.866 -20.457  0.00  0.00     0.150 C 
ATOM     41  C2C NTO d 869     -13.865  19.522 -18.309  0.00  0.00     0.160 C 
ATOM     42  O19 NTO d 869      -9.198  17.094 -26.733  0.00  0.00    -0.572 OA
ATOM     43  N5G NTO d 869     -23.343  13.275 -14.498  0.00  0.00    -0.210 NA
ATOM     44  C33 NTO d 869     -15.227  20.559 -15.405  0.00  0.00     0.067 C 
ATOM     45  O2D NTO d 869     -15.248  19.287 -17.997  0.00  0.00    -0.348 OA
ATOM     46  C12 NTO d 869      -7.529  18.960 -22.254  0.00  0.00     0.089 C 
ATOM     47  C49 NTO d 869     -21.751  20.205 -14.375  0.00  0.00     0.134 C 
ATOM     48  C53 NTO d 869     -25.498  18.351 -15.742  0.00  0.00     0.067 C 
ATOM     49  O4D NTO d 869     -21.843  22.263 -12.243  0.00  0.00    -0.572 OA
ATOM     50  O3I NTO d 869     -21.420  22.668 -18.149  0.00  0.00    -0.296 OA
ATOM     51  O10 NTO d 869      -7.194  20.104 -23.044  0.00  0.00    -0.390 OA
ATOM     52  O1A NTO d 869     -11.552  16.623 -26.233  0.00  0.00    -0.572 OA
ATOM     53  O5K NTO d 869     -23.393  10.761 -14.988  0.00  0.00    -0.296 OA
ATOM     54  O16 NTO d 869     -10.060  17.329 -24.509  0.00  0.00    -0.254 OA
ATOM     55  O56 NTO d 869     -24.380  20.207 -18.368  0.00  0.00    -0.572 OA
ATOM     56  C43 NTO d 869     -18.772  17.834 -15.927  0.00  0.00     0.206 C 
ATOM     57  O54 NTO d 869     -25.166  18.304 -17.130  0.00  0.00    -0.254 OA
ATOM     58  S55 NTO d 869     -25.564  19.357 -18.016  0.00  0.00     0.251 S 
ATOM     59  O5A NTO d 869     -21.618  15.620 -14.605  0.00  0.00    -0.391 OA
ATOM     60  O4G NTO d 869     -22.923  18.104 -14.365  0.00  0.00    -0.348 OA
ATOM     61  O3C NTO d 869     -18.842  19.990 -20.901  0.00  0.00    -0.572 OA
ATOM     62  O3M NTO d 869     -19.095  20.392 -16.793  0.00  0.00    -0.348 OA
ATOM     63  O44 NTO d 869     -18.228  16.931 -15.240  0.00  0.00    -0.646 OA
ATOM     64  C23 NTO d 869     -12.247  20.654 -21.484  0.00  0.00     0.206 C 
ATOM     65  C41 NTO d 869     -19.865  18.670 -15.278  0.00  0.00     0.152 C 
ATOM     66  O22 NTO d 869     -13.740  19.947 -19.676  0.00  0.00    -0.340 OA
ATOM     67  O1C NTO d 869      -6.187  19.650 -20.363  0.00  0.00    -0.391 OA
ATOM     68  C15 NTO d 869      -8.809  17.882 -24.093  0.00  0.00     0.067 C 
ATOM     69  N3G NTO d 869     -19.210  21.935 -19.209  0.00  0.00    -0.210 NA
ATOM     70  C40 NTO d 869     -19.503  20.139 -15.443  0.00  0.00     0.103 C 
ATOM     71  S1G NTO d 869      -6.954  18.173 -17.676  0.00  0.00     0.156 S 
ATOM     72  O1L NTO d 869     -10.253  19.076 -20.417  0.00  0.00    -0.348 OA
ATOM     73  O57 NTO d 869     -26.600  20.206 -17.341  0.00  0.00    -0.572 OA
ATOM     74  O34 NTO d 869     -14.408  21.706 -15.650  0.00  0.00    -0.254 OA
ATOM     75  O1H NTO d 869      -5.695  18.701 -18.297  0.00  0.00    -0.296 OA
ATOM     76  O27 NTO d 869     -10.947  17.140 -18.353  0.00  0.00    -0.390 OA
ATOM     77  C50 NTO d 869     -23.505  17.018 -15.101  0.00  0.00     0.095 C 
ATOM     78  O3E NTO d 869     -17.059  18.386 -20.427  0.00  0.00    -0.572 OA
ATOM     79  O25 NTO d 869     -11.222  21.310 -21.785  0.00  0.00    -0.646 OA
ATOM     80  S3H NTO d 869     -20.178  23.189 -18.813  0.00  0.00     0.156 S 
ATOM     81  S35 NTO d 869     -13.163  21.882 -14.960  0.00  0.00     0.251 S 
ATOM     82  O1I NTO d 869      -6.926  16.672 -17.674  0.00  0.00    -0.296 OA
ATOM     83  C13 NTO d 869      -8.910  18.456 -22.677  0.00  0.00     0.090 C 
ATOM     84  O58 NTO d 869     -26.141  18.756 -19.262  0.00  0.00    -0.572 OA
ATOM     85  O3A NTO d 869     -16.717  20.739 -20.078  0.00  0.00    -0.247 OA
ATOM     86  C1B NTO d 869      -7.525  19.365 -20.778  0.00  0.00     0.083 C 
ATOM     87  O4C NTO d 869     -22.642  19.970 -11.889  0.00  0.00    -0.572 OA
ATOM     88  O4E NTO d 869     -24.250  21.778 -12.239  0.00  0.00    -0.572 OA
ATOM     89  O36 NTO d 869     -12.029  21.436 -15.832  0.00  0.00    -0.572 OA
ATOM     90  O2A NTO d 869     -13.124  17.905 -16.669  0.00  0.00    -0.388 OA
ATOM     91  C30 NTO d 869     -15.973  20.507 -17.776  0.00  0.00     0.096 C 
ATOM     92  H   NTO d 869     -17.448  22.735 -18.473  0.00  0.00     0.076 H 
ATOM     93  H   NTO d 869     -25.629  13.947 -15.831  0.00  0.00     0.131 H 
ATOM     94  H   NTO d 869     -22.889  19.358 -15.986  0.00  0.00     0.133 H 
ATOM     95  H   NTO d 869      -9.093  18.299 -18.140  0.00  0.00     0.140 HD
ATOM     96  H   NTO d 869     -23.873  11.597 -17.425  0.00  0.00     0.231 HD
ATOM     97  H   NTO d 869     -19.104  22.453 -16.573  0.00  0.00     0.131 H 
ATOM     98  H   NTO d 869     -13.526  17.444 -18.631  0.00  0.00     0.094 H 
ATOM     99  H   NTO d 869     -12.016  18.063 -20.562  0.00  0.00     0.092 H 
ATOM    100  H   NTO d 869      -7.441  17.384 -19.974  0.00  0.00     0.076 H 
ATOM    101  H   NTO d 869     -21.129  24.689 -19.816  0.00  0.00     0.231 HD
ATOM    102  H   NTO d 869     -17.036  19.657 -16.152  0.00  0.00     0.090 H 
ATOM    103  H   NTO d 869     -21.140  21.367 -16.067  0.00  0.00     0.091 H 
ATOM    104  H   NTO d 869     -25.314  17.059 -14.007  0.00  0.00     0.090 H 
ATOM    105  H   NTO d 869     -23.356  14.507 -16.183  0.00  0.00     0.076 H 
ATOM    106  H   NTO d 869     -23.306  15.691 -13.425  0.00  0.00     0.089 H 
ATOM    107  H   NTO d 869     -11.962  20.869 -19.382  0.00  0.00     0.104 H 
ATOM    108  H   NTO d 869     -11.135  19.127 -17.890  0.00  0.00     0.091 H 
ATOM    109  H   NTO d 869     -19.920  21.824 -13.526  0.00  0.00     0.210 HD
ATOM    110  H   NTO d 869      -7.098  19.643 -16.269  0.00  0.00     0.231 HD
ATOM    111  H   NTO d 869     -27.540  13.778 -13.069  0.00  0.00     0.066 H 
ATOM    112  H   NTO d 869     -27.091  13.043 -14.589  0.00  0.00     0.066 H 
ATOM    113  H   NTO d 869     -27.709  14.677 -14.558  0.00  0.00     0.066 H 
ATOM    114  H   NTO d 869     -20.047  24.862 -17.653  0.00  0.00     0.231 HD
ATOM    115  H   NTO d 869     -21.532  11.447 -16.726  0.00  0.00     0.231 HD
ATOM    116  H   NTO d 869     -17.770  19.740 -18.638  0.00  0.00     0.092 H 
ATOM    117  H   NTO d 869      -9.950  17.096 -19.879  0.00  0.00     0.131 H 
ATOM    118  H   NTO d 869     -13.468  20.296 -17.686  0.00  0.00     0.133 H 
ATOM    119  H   NTO d 869     -24.098  13.000 -13.870  0.00  0.00     0.140 HD
ATOM    120  H   NTO d 869     -14.646  19.676 -15.572  0.00  0.00     0.080 H 
ATOM    121  H   NTO d 869     -15.572  20.603 -14.393  0.00  0.00     0.080 H 
ATOM    122  H   NTO d 869      -6.817  18.175 -22.399  0.00  0.00     0.091 H 
ATOM    123  H   NTO d 869     -21.300  19.835 -13.478  0.00  0.00     0.097 H 
ATOM    124  H   NTO d 869     -25.023  19.199 -15.295  0.00  0.00     0.080 H 
ATOM    125  H   NTO d 869     -26.560  18.429 -15.641  0.00  0.00     0.080 H 
ATOM    126  H   NTO d 869     -21.996  23.411 -17.913  0.00  0.00     0.231 HD
ATOM    127  H   NTO d 869      -7.851  20.801 -22.897  0.00  0.00     0.210 HD
ATOM    128  H   NTO d 869     -23.250  10.064 -15.648  0.00  0.00     0.231 HD
ATOM    129  H   NTO d 869     -21.387  15.640 -15.546  0.00  0.00     0.210 HD
ATOM    130  H   NTO d 869     -19.949  18.431 -14.239  0.00  0.00     0.104 H 
ATOM    131  H   NTO d 869      -6.185  19.906 -19.428  0.00  0.00     0.210 HD
ATOM    132  H   NTO d 869      -8.529  18.663 -24.769  0.00  0.00     0.080 H 
ATOM    133  H   NTO d 869      -8.074  17.104 -24.096  0.00  0.00     0.080 H 
ATOM    134  H   NTO d 869     -19.745  21.070 -19.125  0.00  0.00     0.140 HD
ATOM    135  H   NTO d 869     -18.709  20.364 -14.763  0.00  0.00     0.092 H 
ATOM    136  H   NTO d 869      -5.717  19.671 -18.296  0.00  0.00     0.231 HD
ATOM    137  H   NTO d 869     -11.387  16.470 -18.901  0.00  0.00     0.210 HD
ATOM    138  H   NTO d 869     -23.202  17.081 -16.126  0.00  0.00     0.091 H 
ATOM    139  H   NTO d 869      -7.742  16.335 -17.272  0.00  0.00     0.231 HD
ATOM    140  H   NTO d 869      -9.599  19.273 -22.630  0.00  0.00     0.090 H 
ATOM    141  H   NTO d 869      -8.130  20.238 -20.649  0.00  0.00     0.089 H 
ATOM    142  H   NTO d 869     -12.717  18.621 -16.156  0.00  0.00     0.210 HD
ATOM    143  H   NTO d 869     -15.327  21.338 -17.969  0.00  0.00     0.091 H 
ENDROOT
TORSDOF 46
ENDMDL
MODEL 25
REMARK VINA RESULT:      -6.5      4.118      6.547
REMARK  0 active torsions:
REMARK  status: ('A' for Active; 'I' for Inactive)
REMARK       I    between atoms: O4A_2  and  C49_47 
REMARK       I    between atoms: O4A_2  and  S4B_15 
REMARK       I    between atoms: C3F_4  and  N3G_69 
REMARK       I    between atoms: S17_5  and  O16_54 
REMARK       I    between atoms: C5L_6  and  O5M_26 
REMARK       I    between atoms: C4F_7  and  O4G_60 
REMARK       I    between atoms: N1F_9  and  C1E_19 
REMARK       I    between atoms: N1F_9  and  S1G_71 
REMARK       I    between atoms: O5J_11  and  S5H_38 
REMARK       I    between atoms: C3L_12  and  O3M_62 
REMARK       I    between atoms: C29_13  and  O2A_90 
REMARK       I    between atoms: S3B_14  and  O3A_85 
REMARK       I    between atoms: C20_18  and  O1L_72 
REMARK       I    between atoms: O3J_20  and  S3H_80 
REMARK       I    between atoms: C31_23  and  C33_44 
REMARK       I    between atoms: C46_25  and  O47_33 
REMARK       I    between atoms: O5M_26  and  C5N_35 
REMARK       I    between atoms: C51_28  and  C53_48 
REMARK       I    between atoms: C5F_29  and  N5G_43 
REMARK       I    between atoms: C59_30  and  O5A_59 
REMARK       I    between atoms: C21_31  and  C23_64 
REMARK       I    between atoms: C26_32  and  O27_76 
REMARK       I    between atoms: O1J_34  and  S1G_71 
REMARK       I    between atoms: O3K_36  and  S3H_80 
REMARK       I    between atoms: O5I_37  and  S5H_38 
REMARK       I    between atoms: S5H_38  and  O5K_53 
REMARK       I    between atoms: S5H_38  and  N5G_43 
REMARK       I    between atoms: C39_39  and  O3A_85 
REMARK       I    between atoms: C1K_40  and  O1L_72 
REMARK       I    between atoms: C2C_41  and  O2D_45 
REMARK       I    between atoms: C33_44  and  O34_74 
REMARK       I    between atoms: O2D_45  and  C30_91 
REMARK       I    between atoms: C12_46  and  O10_51 
REMARK       I    between atoms: C53_48  and  O54_57 
REMARK       I    between atoms: O3I_50  and  S3H_80 
REMARK       I    between atoms: O16_54  and  C15_68 
REMARK       I    between atoms: C43_56  and  C41_65 
REMARK       I    between atoms: O54_57  and  S55_58 
REMARK       I    between atoms: O4G_60  and  C50_77 
REMARK       I    between atoms: O3M_62  and  C40_70 
REMARK       I    between atoms: O1C_67  and  C1B_86 
REMARK       I    between atoms: C15_68  and  C13_83 
REMARK       I    between atoms: N3G_69  and  S3H_80 
REMARK       I    between atoms: S1G_71  and  O1H_75 
REMARK       I    between atoms: S1G_71  and  O1I_82 
REMARK       I    between atoms: O34_74  and  S35_81 
ROOT
ATOM      1  O42 NTO d 869     -21.744  18.253 -20.550  0.00  0.00    -0.340 OA
ATOM      2  O4A NTO d 869     -25.010  19.485 -19.396  0.00  0.00    -0.244 OA
ATOM      3  O32 NTO d 869     -20.004  20.130 -16.180  0.00  0.00    -0.349 OA
ATOM      4  C3F NTO d 869     -19.125  21.781 -17.696  0.00  0.00     0.083 C 
ATOM      5  S17 NTO d 869      -7.220  20.629 -18.716  0.00  0.00     0.251 S 
ATOM      6  C5L NTO d 869     -23.886  15.751 -25.040  0.00  0.00     0.149 C 
ATOM      7  C4F NTO d 869     -23.151  18.531 -20.630  0.00  0.00     0.161 C 
ATOM      8  O14 NTO d 869      -9.419  18.771 -15.841  0.00  0.00    -0.349 OA
ATOM      9  N1F NTO d 869     -11.128  17.565 -12.805  0.00  0.00    -0.210 NA
ATOM     10  O37 NTO d 869     -18.432  17.434 -12.569  0.00  0.00    -0.572 OA
ATOM     11  O5J NTO d 869     -21.258  14.632 -26.287  0.00  0.00    -0.296 OA
ATOM     12  C3L NTO d 869     -20.297  20.852 -17.386  0.00  0.00     0.150 C 
ATOM     13  C29 NTO d 869     -14.682  17.864 -16.146  0.00  0.00     0.110 C 
ATOM     14  S3B NTO d 869     -16.360  21.614 -19.605  0.00  0.00     0.252 S 
ATOM     15  S4B NTO d 869     -26.003  18.813 -18.616  0.00  0.00     0.252 S 
ATOM     16  O24 NTO d 869     -12.744  22.100 -17.054  0.00  0.00    -0.646 OA
ATOM     17  O45 NTO d 869     -19.011  18.228 -19.462  0.00  0.00    -0.646 OA
ATOM     18  C20 NTO d 869     -12.626  19.192 -15.700  0.00  0.00     0.103 C 
ATOM     19  C1E NTO d 869      -9.998  18.026 -13.621  0.00  0.00     0.081 C 
ATOM     20  O3J NTO d 869     -20.495  24.934 -19.099  0.00  0.00    -0.296 OA
ATOM     21  O38 NTO d 869     -18.446  19.707 -11.644  0.00  0.00    -0.572 OA
ATOM     22  O18 NTO d 869      -6.714  19.276 -19.116  0.00  0.00    -0.572 OA
ATOM     23  C31 NTO d 869     -18.886  19.248 -16.368  0.00  0.00     0.091 C 
ATOM     24  O52 NTO d 869     -24.224  17.138 -24.873  0.00  0.00    -0.349 OA
ATOM     25  C46 NTO d 869     -22.784  19.740 -18.464  0.00  0.00     0.094 C 
ATOM     26  O5M NTO d 869     -25.027  14.892 -24.930  0.00  0.00    -0.364 OA
ATOM     27  O3D NTO d 869     -15.164  22.486 -19.851  0.00  0.00    -0.572 OA
ATOM     28  C51 NTO d 869     -24.605  17.465 -23.527  0.00  0.00     0.091 C 
ATOM     29  C5F NTO d 869     -22.773  15.324 -24.080  0.00  0.00     0.081 C 
ATOM     30  C59 NTO d 869     -23.140  15.676 -22.638  0.00  0.00     0.083 C 
ATOM     31  C21 NTO d 869     -13.527  20.410 -15.565  0.00  0.00     0.152 C 
ATOM     32  C26 NTO d 869     -13.435  17.971 -15.267  0.00  0.00     0.092 C 
ATOM     33  O47 NTO d 869     -23.361  20.046 -17.192  0.00  0.00    -0.390 OA
ATOM     34  O1J NTO d 869     -11.758  15.956 -10.929  0.00  0.00    -0.296 OA
ATOM     35  C5N NTO d 869     -25.703  14.855 -26.191  0.00  0.00     0.007 C 
ATOM     36  O3K NTO d 869     -21.168  23.544 -17.214  0.00  0.00    -0.296 OA
ATOM     37  O5I NTO d 869     -20.016  13.631 -24.429  0.00  0.00    -0.296 OA
ATOM     38  S5H NTO d 869     -21.295  13.590 -25.209  0.00  0.00     0.156 S 
ATOM     39  C39 NTO d 869     -17.898  20.907 -17.961  0.00  0.00     0.108 C 
ATOM     40  C1K NTO d 869     -10.518  18.335 -15.025  0.00  0.00     0.150 C 
ATOM     41  C2C NTO d 869     -15.489  19.164 -16.097  0.00  0.00     0.160 C 
ATOM     42  O19 NTO d 869      -6.076  21.482 -18.256  0.00  0.00    -0.572 OA
ATOM     43  N5G NTO d 869     -22.544  13.877 -24.199  0.00  0.00    -0.210 NA
ATOM     44  C33 NTO d 869     -18.625  18.473 -15.074  0.00  0.00     0.067 C 
ATOM     45  O2D NTO d 869     -16.582  19.064 -17.026  0.00  0.00    -0.348 OA
ATOM     46  C12 NTO d 869      -8.357  19.888 -13.945  0.00  0.00     0.089 C 
ATOM     47  C49 NTO d 869     -23.740  18.844 -19.252  0.00  0.00     0.134 C 
ATOM     48  C53 NTO d 869     -24.900  18.967 -23.492  0.00  0.00     0.067 C 
ATOM     49  O4D NTO d 869     -25.825  19.160 -17.168  0.00  0.00    -0.572 OA
ATOM     50  O3I NTO d 869     -21.901  22.964 -19.482  0.00  0.00    -0.296 OA
ATOM     51  O10 NTO d 869      -7.988  21.184 -13.467  0.00  0.00    -0.390 OA
ATOM     52  O1A NTO d 869      -7.893  21.273 -19.890  0.00  0.00    -0.572 OA
ATOM     53  O5K NTO d 869     -21.457  12.241 -25.845  0.00  0.00    -0.296 OA
ATOM     54  O16 NTO d 869      -8.171  20.485 -17.654  0.00  0.00    -0.254 OA
ATOM     55  O56 NTO d 869     -23.044  21.772 -22.966  0.00  0.00    -0.572 OA
ATOM     56  C43 NTO d 869     -19.901  17.374 -19.249  0.00  0.00     0.206 C 
ATOM     57  O54 NTO d 869     -23.769  19.706 -23.956  0.00  0.00    -0.254 OA
ATOM     58  S55 NTO d 869     -23.824  21.132 -24.076  0.00  0.00     0.251 S 
ATOM     59  O5A NTO d 869     -22.023  15.417 -21.782  0.00  0.00    -0.391 OA
ATOM     60  O4G NTO d 869     -23.891  17.443 -21.202  0.00  0.00    -0.348 OA
ATOM     61  O3C NTO d 869     -17.480  22.061 -20.496  0.00  0.00    -0.572 OA
ATOM     62  O3M NTO d 869     -20.400  19.935 -18.484  0.00  0.00    -0.348 OA
ATOM     63  O44 NTO d 869     -19.665  16.155 -19.041  0.00  0.00    -0.646 OA
ATOM     64  C23 NTO d 869     -12.700  21.646 -15.886  0.00  0.00     0.206 C 
ATOM     65  C41 NTO d 869     -21.349  17.838 -19.231  0.00  0.00     0.152 C 
ATOM     66  O22 NTO d 869     -14.670  20.296 -16.432  0.00  0.00    -0.340 OA
ATOM     67  O1C NTO d 869      -8.841  19.016 -11.741  0.00  0.00    -0.391 OA
ATOM     68  C15 NTO d 869      -7.737  20.417 -16.295  0.00  0.00     0.067 C 
ATOM     69  N3G NTO d 869     -19.441  22.610 -18.874  0.00  0.00    -0.210 NA
ATOM     70  C40 NTO d 869     -21.463  19.002 -18.256  0.00  0.00     0.103 C 
ATOM     71  S1G NTO d 869     -10.613  16.398 -11.791  0.00  0.00     0.156 S 
ATOM     72  O1L NTO d 869     -11.473  19.395 -14.872  0.00  0.00    -0.348 OA
ATOM     73  O57 NTO d 869     -25.253  21.580 -23.998  0.00  0.00    -0.572 OA
ATOM     74  O34 NTO d 869     -18.266  19.348 -14.000  0.00  0.00    -0.254 OA
ATOM     75  O1H NTO d 869      -9.506  16.937 -10.934  0.00  0.00    -0.296 OA
ATOM     76  O27 NTO d 869     -12.648  16.786 -15.421  0.00  0.00    -0.390 OA
ATOM     77  C50 NTO d 869     -23.480  17.163 -22.548  0.00  0.00     0.095 C 
ATOM     78  O3E NTO d 869     -16.014  20.190 -19.925  0.00  0.00    -0.572 OA
ATOM     79  O25 NTO d 869     -12.002  22.135 -14.967  0.00  0.00    -0.646 OA
ATOM     80  S3H NTO d 869     -20.777  23.527 -18.662  0.00  0.00     0.156 S 
ATOM     81  S35 NTO d 869     -17.889  18.824 -12.720  0.00  0.00     0.251 S 
ATOM     82  O1I NTO d 869     -10.111  15.233 -12.593  0.00  0.00    -0.296 OA
ATOM     83  C13 NTO d 869      -8.894  20.023 -15.372  0.00  0.00     0.090 C 
ATOM     84  O58 NTO d 869     -23.242  21.534 -25.397  0.00  0.00    -0.572 OA
ATOM     85  O3A NTO d 869     -16.756  21.729 -18.234  0.00  0.00    -0.247 OA
ATOM     86  C1B NTO d 869      -9.424  19.306 -13.014  0.00  0.00     0.083 C 
ATOM     87  O4C NTO d 869     -25.871  17.330 -18.802  0.00  0.00    -0.572 OA
ATOM     88  O4E NTO d 869     -27.358  19.250 -19.082  0.00  0.00    -0.572 OA
ATOM     89  O36 NTO d 869     -16.395  18.787 -12.603  0.00  0.00    -0.572 OA
ATOM     90  O2A NTO d 869     -15.492  16.780 -15.689  0.00  0.00    -0.388 OA
ATOM     91  C30 NTO d 869     -17.624  20.012 -16.748  0.00  0.00     0.096 C 
ATOM     92  H   NTO d 869     -18.932  22.440 -16.875  0.00  0.00     0.076 H 
ATOM     93  H   NTO d 869     -23.515  15.646 -26.038  0.00  0.00     0.131 H 
ATOM     94  H   NTO d 869     -23.240  19.385 -21.268  0.00  0.00     0.133 H 
ATOM     95  H   NTO d 869     -11.857  17.191 -13.412  0.00  0.00     0.140 HD
ATOM     96  H   NTO d 869     -20.513  14.455 -26.883  0.00  0.00     0.231 HD
ATOM     97  H   NTO d 869     -21.211  21.395 -17.256  0.00  0.00     0.131 H 
ATOM     98  H   NTO d 869     -14.378  17.690 -17.157  0.00  0.00     0.094 H 
ATOM     99  H   NTO d 869     -12.290  19.043 -16.705  0.00  0.00     0.092 H 
ATOM    100  H   NTO d 869      -9.237  17.274 -13.657  0.00  0.00     0.076 H 
ATOM    101  H   NTO d 869     -21.289  25.477 -18.973  0.00  0.00     0.231 HD
ATOM    102  H   NTO d 869     -19.128  18.579 -17.167  0.00  0.00     0.090 H 
ATOM    103  H   NTO d 869     -22.610  20.646 -19.006  0.00  0.00     0.091 H 
ATOM    104  H   NTO d 869     -25.458  16.884 -23.243  0.00  0.00     0.090 H 
ATOM    105  H   NTO d 869     -21.878  15.849 -24.340  0.00  0.00     0.076 H 
ATOM    106  H   NTO d 869     -23.980  15.085 -22.336  0.00  0.00     0.089 H 
ATOM    107  H   NTO d 869     -13.907  20.484 -14.567  0.00  0.00     0.104 H 
ATOM    108  H   NTO d 869     -13.715  18.076 -14.239  0.00  0.00     0.091 H 
ATOM    109  H   NTO d 869     -23.519  19.224 -16.701  0.00  0.00     0.210 HD
ATOM    110  H   NTO d 869     -12.082  16.709 -10.411  0.00  0.00     0.231 HD
ATOM    111  H   NTO d 869     -26.558  14.215 -26.120  0.00  0.00     0.066 H 
ATOM    112  H   NTO d 869     -25.039  14.480 -26.942  0.00  0.00     0.066 H 
ATOM    113  H   NTO d 869     -26.018  15.843 -26.456  0.00  0.00     0.066 H 
ATOM    114  H   NTO d 869     -21.961  24.091 -17.100  0.00  0.00     0.231 HD
ATOM    115  H   NTO d 869     -19.269  13.461 -25.024  0.00  0.00     0.231 HD
ATOM    116  H   NTO d 869     -18.088  20.290 -18.815  0.00  0.00     0.092 H 
ATOM    117  H   NTO d 869     -10.964  17.481 -15.491  0.00  0.00     0.131 H 
ATOM    118  H   NTO d 869     -15.857  19.308 -15.103  0.00  0.00     0.133 H 
ATOM    119  H   NTO d 869     -23.385  13.431 -24.567  0.00  0.00     0.140 HD
ATOM    120  H   NTO d 869     -17.828  17.779 -15.239  0.00  0.00     0.080 H 
ATOM    121  H   NTO d 869     -19.526  17.961 -14.802  0.00  0.00     0.080 H 
ATOM    122  H   NTO d 869      -7.513  19.231 -13.956  0.00  0.00     0.091 H 
ATOM    123  H   NTO d 869     -23.875  17.927 -18.716  0.00  0.00     0.097 H 
ATOM    124  H   NTO d 869     -25.125  19.259 -22.488  0.00  0.00     0.080 H 
ATOM    125  H   NTO d 869     -25.734  19.172 -24.131  0.00  0.00     0.080 H 
ATOM    126  H   NTO d 869     -22.695  23.507 -19.357  0.00  0.00     0.231 HD
ATOM    127  H   NTO d 869      -8.768  21.761 -13.465  0.00  0.00     0.210 HD
ATOM    128  H   NTO d 869     -20.713  12.075 -26.444  0.00  0.00     0.231 HD
ATOM    129  H   NTO d 869     -21.268  15.956 -22.063  0.00  0.00     0.210 HD
ATOM    130  H   NTO d 869     -21.992  17.041 -18.922  0.00  0.00     0.104 H 
ATOM    131  H   NTO d 869      -9.518  18.647 -11.152  0.00  0.00     0.210 HD
ATOM    132  H   NTO d 869      -7.363  21.375 -15.998  0.00  0.00     0.080 H 
ATOM    133  H   NTO d 869      -6.969  19.675 -16.217  0.00  0.00     0.080 H 
ATOM    134  H   NTO d 869     -19.591  21.996 -19.675  0.00  0.00     0.140 HD
ATOM    135  H   NTO d 869     -21.412  18.609 -17.263  0.00  0.00     0.092 H 
ATOM    136  H   NTO d 869      -9.834  17.689 -10.418  0.00  0.00     0.231 HD
ATOM    137  H   NTO d 869     -12.392  16.686 -16.351  0.00  0.00     0.210 HD
ATOM    138  H   NTO d 869     -22.637  17.772 -22.797  0.00  0.00     0.091 H 
ATOM    139  H   NTO d 869     -10.830  14.887 -13.145  0.00  0.00     0.231 HD
ATOM    140  H   NTO d 869      -9.670  20.760 -15.374  0.00  0.00     0.090 H 
ATOM    141  H   NTO d 869     -10.212  20.020 -12.890  0.00  0.00     0.089 H 
ATOM    142  H   NTO d 869     -15.764  16.943 -14.773  0.00  0.00     0.210 HD
ATOM    143  H   NTO d 869     -17.316  20.645 -15.943  0.00  0.00     0.091 H 
ENDROOT
TORSDOF 46
ENDMDL
MODEL 26
REMARK VINA RESULT:      -6.5      2.284      2.772
REMARK  0 active torsions:
REMARK  status: ('A' for Active; 'I' for Inactive)
REMARK       I    between atoms: O4A_2  and  C49_47 
REMARK       I    between atoms: O4A_2  and  S4B_15 
REMARK       I    between atoms: C3F_4  and  N3G_69 
REMARK       I    between atoms: S17_5  and  O16_54 
REMARK       I    between atoms: C5L_6  and  O5M_26 
REMARK       I    between atoms: C4F_7  and  O4G_60 
REMARK       I    between atoms: N1F_9  and  C1E_19 
REMARK       I    between atoms: N1F_9  and  S1G_71 
REMARK       I    between atoms: O5J_11  and  S5H_38 
REMARK       I    between atoms: C3L_12  and  O3M_62 
REMARK       I    between atoms: C29_13  and  O2A_90 
REMARK       I    between atoms: S3B_14  and  O3A_85 
REMARK       I    between atoms: C20_18  and  O1L_72 
REMARK       I    between atoms: O3J_20  and  S3H_80 
REMARK       I    between atoms: C31_23  and  C33_44 
REMARK       I    between atoms: C46_25  and  O47_33 
REMARK       I    between atoms: O5M_26  and  C5N_35 
REMARK       I    between atoms: C51_28  and  C53_48 
REMARK       I    between atoms: C5F_29  and  N5G_43 
REMARK       I    between atoms: C59_30  and  O5A_59 
REMARK       I    between atoms: C21_31  and  C23_64 
REMARK       I    between atoms: C26_32  and  O27_76 
REMARK       I    between atoms: O1J_34  and  S1G_71 
REMARK       I    between atoms: O3K_36  and  S3H_80 
REMARK       I    between atoms: O5I_37  and  S5H_38 
REMARK       I    between atoms: S5H_38  and  O5K_53 
REMARK       I    between atoms: S5H_38  and  N5G_43 
REMARK       I    between atoms: C39_39  and  O3A_85 
REMARK       I    between atoms: C1K_40  and  O1L_72 
REMARK       I    between atoms: C2C_41  and  O2D_45 
REMARK       I    between atoms: C33_44  and  O34_74 
REMARK       I    between atoms: O2D_45  and  C30_91 
REMARK       I    between atoms: C12_46  and  O10_51 
REMARK       I    between atoms: C53_48  and  O54_57 
REMARK       I    between atoms: O3I_50  and  S3H_80 
REMARK       I    between atoms: O16_54  and  C15_68 
REMARK       I    between atoms: C43_56  and  C41_65 
REMARK       I    between atoms: O54_57  and  S55_58 
REMARK       I    between atoms: O4G_60  and  C50_77 
REMARK       I    between atoms: O3M_62  and  C40_70 
REMARK       I    between atoms: O1C_67  and  C1B_86 
REMARK       I    between atoms: C15_68  and  C13_83 
REMARK       I    between atoms: N3G_69  and  S3H_80 
REMARK       I    between atoms: S1G_71  and  O1H_75 
REMARK       I    between atoms: S1G_71  and  O1I_82 
REMARK       I    between atoms: O34_74  and  S35_81 
ROOT
ATOM      1  O42 NTO d 869     -20.948  17.529 -20.718  0.00  0.00    -0.340 OA
ATOM      2  O4A NTO d 869     -23.537  18.781 -23.007  0.00  0.00    -0.244 OA
ATOM      3  O32 NTO d 869     -17.901  20.792 -23.111  0.00  0.00    -0.349 OA
ATOM      4  C3F NTO d 869     -17.078  18.728 -24.041  0.00  0.00     0.083 C 
ATOM      5  S17 NTO d 869      -6.223  16.163 -19.606  0.00  0.00     0.251 S 
ATOM      6  C5L NTO d 869     -24.532  14.407 -17.817  0.00  0.00     0.149 C 
ATOM      7  C4F NTO d 869     -22.248  17.601 -21.324  0.00  0.00     0.161 C 
ATOM      8  O14 NTO d 869      -8.029  19.782 -19.169  0.00  0.00    -0.349 OA
ATOM      9  N1F NTO d 869      -9.201  23.277 -19.252  0.00  0.00    -0.210 NA
ATOM     10  O37 NTO d 869     -16.123  24.735 -21.094  0.00  0.00    -0.572 OA
ATOM     11  O5J NTO d 869     -22.548  13.139 -15.777  0.00  0.00    -0.296 OA
ATOM     12  C3L NTO d 869     -18.311  19.489 -23.558  0.00  0.00     0.150 C 
ATOM     13  C29 NTO d 869     -13.292  20.628 -19.620  0.00  0.00     0.110 C 
ATOM     14  S3B NTO d 869     -14.922  16.530 -22.685  0.00  0.00     0.252 S 
ATOM     15  S4B NTO d 869     -24.439  19.878 -22.836  0.00  0.00     0.252 S 
ATOM     16  O24 NTO d 869     -10.794  18.191 -22.836  0.00  0.00    -0.646 OA
ATOM     17  O45 NTO d 869     -18.102  18.112 -20.256  0.00  0.00    -0.646 OA
ATOM     18  C20 NTO d 869     -10.962  20.313 -20.434  0.00  0.00     0.103 C 
ATOM     19  C1E NTO d 869      -8.220  22.186 -19.183  0.00  0.00     0.081 C 
ATOM     20  O3J NTO d 869     -18.062  16.692 -26.985  0.00  0.00    -0.296 OA
ATOM     21  O38 NTO d 869     -15.459  24.926 -23.449  0.00  0.00    -0.572 OA
ATOM     22  O18 NTO d 869      -6.109  16.108 -18.112  0.00  0.00    -0.572 OA
ATOM     23  C31 NTO d 869     -17.061  20.695 -21.950  0.00  0.00     0.091 C 
ATOM     24  O52 NTO d 869     -24.532  14.205 -19.240  0.00  0.00    -0.349 OA
ATOM     25  C46 NTO d 869     -21.153  19.216 -22.899  0.00  0.00     0.094 C 
ATOM     26  O5M NTO d 869     -25.768  14.954 -17.341  0.00  0.00    -0.364 OA
ATOM     27  O3D NTO d 869     -13.663  15.843 -23.124  0.00  0.00    -0.572 OA
ATOM     28  C51 NTO d 869     -24.518  15.435 -19.983  0.00  0.00     0.091 C 
ATOM     29  C5F NTO d 869     -23.339  15.255 -17.370  0.00  0.00     0.081 C 
ATOM     30  C59 NTO d 869     -23.283  16.566 -18.156  0.00  0.00     0.083 C 
ATOM     31  C21 NTO d 869     -11.541  20.224 -21.838  0.00  0.00     0.152 C 
ATOM     32  C26 NTO d 869     -11.881  21.219 -19.615  0.00  0.00     0.092 C 
ATOM     33  O47 NTO d 869     -21.346  20.416 -23.654  0.00  0.00    -0.390 OA
ATOM     34  O1J NTO d 869      -9.696  25.624 -18.388  0.00  0.00    -0.296 OA
ATOM     35  C5N NTO d 869     -26.709  13.890 -17.167  0.00  0.00     0.007 C 
ATOM     36  O3K NTO d 869     -18.551  18.989 -26.338  0.00  0.00    -0.296 OA
ATOM     37  O5I NTO d 869     -21.141  14.981 -14.985  0.00  0.00    -0.296 OA
ATOM     38  S5H NTO d 869     -22.547  14.469 -15.085  0.00  0.00     0.156 S 
ATOM     39  C39 NTO d 869     -16.150  18.539 -22.839  0.00  0.00     0.108 C 
ATOM     40  C1K NTO d 869      -8.976  20.859 -19.254  0.00  0.00     0.150 C 
ATOM     41  C2C NTO d 869     -13.784  20.418 -21.055  0.00  0.00     0.160 C 
ATOM     42  O19 NTO d 869      -4.854  16.153 -20.219  0.00  0.00    -0.572 OA
ATOM     43  N5G NTO d 869     -23.444  15.538 -15.931  0.00  0.00    -0.210 NA
ATOM     44  C33 NTO d 869     -16.672  22.101 -21.484  0.00  0.00     0.067 C 
ATOM     45  O2D NTO d 869     -15.058  19.754 -21.012  0.00  0.00    -0.348 OA
ATOM     46  C12 NTO d 869      -6.354  21.056 -20.409  0.00  0.00     0.089 C 
ATOM     47  C49 NTO d 869     -22.427  18.900 -22.115  0.00  0.00     0.134 C 
ATOM     48  C53 NTO d 869     -24.483  15.067 -21.468  0.00  0.00     0.067 C 
ATOM     49  O4D NTO d 869     -23.865  21.107 -23.476  0.00  0.00    -0.572 OA
ATOM     50  O3I NTO d 869     -19.890  17.151 -25.419  0.00  0.00    -0.296 OA
ATOM     51  O10 NTO d 869      -5.629  21.058 -21.641  0.00  0.00    -0.390 OA
ATOM     52  O1A NTO d 869      -7.002  14.977 -20.087  0.00  0.00    -0.572 OA
ATOM     53  O5K NTO d 869     -23.123  14.301 -13.710  0.00  0.00    -0.296 OA
ATOM     54  O16 NTO d 869      -6.911  17.360 -19.987  0.00  0.00    -0.254 OA
ATOM     55  O56 NTO d 869     -22.024  14.419 -23.731  0.00  0.00    -0.572 OA
ATOM     56  C43 NTO d 869     -19.074  18.713 -19.744  0.00  0.00     0.206 C 
ATOM     57  O54 NTO d 869     -23.363  14.225 -21.746  0.00  0.00    -0.254 OA
ATOM     58  S55 NTO d 869     -23.153  13.695 -23.060  0.00  0.00     0.251 S 
ATOM     59  O5A NTO d 869     -22.076  17.265 -17.837  0.00  0.00    -0.391 OA
ATOM     60  O4G NTO d 869     -23.307  17.511 -20.359  0.00  0.00    -0.348 OA
ATOM     61  O3C NTO d 869     -16.102  15.743 -23.170  0.00  0.00    -0.572 OA
ATOM     62  O3M NTO d 869     -18.850  18.748 -22.455  0.00  0.00    -0.348 OA
ATOM     63  O44 NTO d 869     -19.050  19.234 -18.599  0.00  0.00    -0.646 OA
ATOM     64  C23 NTO d 869     -10.575  19.418 -22.694  0.00  0.00     0.206 C 
ATOM     65  C41 NTO d 869     -20.352  18.829 -20.560  0.00  0.00     0.152 C 
ATOM     66  O22 NTO d 869     -12.851  19.630 -21.811  0.00  0.00    -0.340 OA
ATOM     67  O1C NTO d 869      -6.484  23.468 -20.276  0.00  0.00    -0.391 OA
ATOM     68  C15 NTO d 869      -6.198  18.587 -20.151  0.00  0.00     0.067 C 
ATOM     69  N3G NTO d 869     -17.481  17.425 -24.600  0.00  0.00    -0.210 NA
ATOM     70  C40 NTO d 869     -19.999  19.416 -21.919  0.00  0.00     0.103 C 
ATOM     71  S1G NTO d 869      -8.715  24.494 -18.285  0.00  0.00     0.156 S 
ATOM     72  O1L NTO d 869      -9.633  20.843 -20.529  0.00  0.00    -0.348 OA
ATOM     73  O57 NTO d 869     -24.403  13.869 -23.869  0.00  0.00    -0.572 OA
ATOM     74  O34 NTO d 869     -15.904  22.789 -22.475  0.00  0.00    -0.254 OA
ATOM     75  O1H NTO d 869      -7.354  24.957 -18.713  0.00  0.00    -0.296 OA
ATOM     76  O27 NTO d 869     -11.410  21.299 -18.266  0.00  0.00    -0.390 OA
ATOM     77  C50 NTO d 869     -23.283  16.261 -19.653  0.00  0.00     0.095 C 
ATOM     78  O3E NTO d 869     -14.957  16.599 -21.187  0.00  0.00    -0.572 OA
ATOM     79  O25 NTO d 869      -9.599  20.021 -23.198  0.00  0.00    -0.646 OA
ATOM     80  S3H NTO d 869     -18.516  17.570 -25.856  0.00  0.00     0.156 S 
ATOM     81  S35 NTO d 869     -15.357  24.088 -22.210  0.00  0.00     0.251 S 
ATOM     82  O1I NTO d 869      -8.660  24.006 -16.867  0.00  0.00    -0.296 OA
ATOM     83  C13 NTO d 869      -7.166  19.762 -20.317  0.00  0.00     0.090 C 
ATOM     84  O58 NTO d 869     -22.822  12.237 -22.951  0.00  0.00    -0.572 OA
ATOM     85  O3A NTO d 869     -14.959  17.850 -23.239  0.00  0.00    -0.247 OA
ATOM     86  C1B NTO d 869      -7.273  22.280 -20.379  0.00  0.00     0.083 C 
ATOM     87  O4C NTO d 869     -24.659  20.125 -21.372  0.00  0.00    -0.572 OA
ATOM     88  O4E NTO d 869     -25.747  19.531 -23.479  0.00  0.00    -0.572 OA
ATOM     89  O36 NTO d 869     -13.916  23.964 -21.816  0.00  0.00    -0.572 OA
ATOM     90  O2A NTO d 869     -14.179  21.515 -18.935  0.00  0.00    -0.388 OA
ATOM     91  C30 NTO d 869     -15.792  19.902 -22.238  0.00  0.00     0.096 C 
ATOM     92  H   NTO d 869     -16.571  19.272 -24.811  0.00  0.00     0.076 H 
ATOM     93  H   NTO d 869     -24.431  13.440 -17.372  0.00  0.00     0.131 H 
ATOM     94  H   NTO d 869     -22.306  16.761 -21.984  0.00  0.00     0.133 H 
ATOM     95  H   NTO d 869     -10.111  22.937 -18.942  0.00  0.00     0.140 HD
ATOM     96  H   NTO d 869     -22.012  12.509 -15.268  0.00  0.00     0.231 HD
ATOM     97  H   NTO d 869     -19.040  19.599 -24.334  0.00  0.00     0.131 H 
ATOM     98  H   NTO d 869     -13.272  19.680 -19.124  0.00  0.00     0.094 H 
ATOM     99  H   NTO d 869     -10.905  19.359 -19.954  0.00  0.00     0.092 H 
ATOM    100  H   NTO d 869      -7.659  22.253 -18.274  0.00  0.00     0.076 H 
ATOM    101  H   NTO d 869     -18.677  16.778 -27.730  0.00  0.00     0.231 HD
ATOM    102  H   NTO d 869     -17.612  20.183 -21.189  0.00  0.00     0.090 H 
ATOM    103  H   NTO d 869     -20.927  18.408 -23.562  0.00  0.00     0.091 H 
ATOM    104  H   NTO d 869     -25.382  16.015 -19.734  0.00  0.00     0.090 H 
ATOM    105  H   NTO d 869     -22.440  14.707 -17.561  0.00  0.00     0.076 H 
ATOM    106  H   NTO d 869     -24.133  17.163 -17.900  0.00  0.00     0.089 H 
ATOM    107  H   NTO d 869     -11.656  21.203 -22.256  0.00  0.00     0.104 H 
ATOM    108  H   NTO d 869     -11.889  22.199 -20.043  0.00  0.00     0.091 H 
ATOM    109  H   NTO d 869     -21.550  21.148 -23.052  0.00  0.00     0.210 HD
ATOM    110  H   NTO d 869      -9.731  25.939 -19.304  0.00  0.00     0.231 HD
ATOM    111  H   NTO d 869     -27.636  14.289 -16.811  0.00  0.00     0.066 H 
ATOM    112  H   NTO d 869     -26.327  13.188 -16.456  0.00  0.00     0.066 H 
ATOM    113  H   NTO d 869     -26.869  13.398 -18.104  0.00  0.00     0.066 H 
ATOM    114  H   NTO d 869     -19.168  19.063 -27.083  0.00  0.00     0.231 HD
ATOM    115  H   NTO d 869     -20.602  14.350 -14.483  0.00  0.00     0.231 HD
ATOM    116  H   NTO d 869     -16.654  17.952 -22.100  0.00  0.00     0.092 H 
ATOM    117  H   NTO d 869      -9.682  20.749 -18.458  0.00  0.00     0.131 H 
ATOM    118  H   NTO d 869     -13.875  21.370 -21.534  0.00  0.00     0.133 H 
ATOM    119  H   NTO d 869     -24.419  15.463 -15.643  0.00  0.00     0.140 HD
ATOM    120  H   NTO d 869     -16.093  22.022 -20.588  0.00  0.00     0.080 H 
ATOM    121  H   NTO d 869     -17.571  22.656 -21.310  0.00  0.00     0.080 H 
ATOM    122  H   NTO d 869      -5.687  21.104 -19.574  0.00  0.00     0.091 H 
ATOM    123  H   NTO d 869     -22.619  19.700 -21.430  0.00  0.00     0.097 H 
ATOM    124  H   NTO d 869     -24.406  15.961 -22.051  0.00  0.00     0.080 H 
ATOM    125  H   NTO d 869     -25.382  14.542 -21.717  0.00  0.00     0.080 H 
ATOM    126  H   NTO d 869     -20.505  17.236 -26.163  0.00  0.00     0.231 HD
ATOM    127  H   NTO d 869      -6.252  21.015 -22.383  0.00  0.00     0.210 HD
ATOM    128  H   NTO d 869     -22.587  13.666 -13.211  0.00  0.00     0.231 HD
ATOM    129  H   NTO d 869     -21.313  16.715 -18.073  0.00  0.00     0.210 HD
ATOM    130  H   NTO d 869     -21.056  19.463 -20.061  0.00  0.00     0.104 H 
ATOM    131  H   NTO d 869      -7.067  24.243 -20.257  0.00  0.00     0.210 HD
ATOM    132  H   NTO d 869      -5.578  18.519 -21.021  0.00  0.00     0.080 H 
ATOM    133  H   NTO d 869      -5.601  18.756 -19.279  0.00  0.00     0.080 H 
ATOM    134  H   NTO d 869     -17.934  16.881 -23.866  0.00  0.00     0.140 HD
ATOM    135  H   NTO d 869     -19.801  20.459 -21.789  0.00  0.00     0.092 H 
ATOM    136  H   NTO d 869      -7.394  25.271 -19.630  0.00  0.00     0.231 HD
ATOM    137  H   NTO d 869     -11.401  20.412 -17.873  0.00  0.00     0.210 HD
ATOM    138  H   NTO d 869     -22.414  15.707 -19.939  0.00  0.00     0.091 H 
ATOM    139  H   NTO d 869      -9.542  23.708 -16.593  0.00  0.00     0.231 HD
ATOM    140  H   NTO d 869      -7.755  19.667 -21.206  0.00  0.00     0.090 H 
ATOM    141  H   NTO d 869      -7.848  22.313 -21.281  0.00  0.00     0.089 H 
ATOM    142  H   NTO d 869     -14.193  22.372 -19.388  0.00  0.00     0.210 HD
ATOM    143  H   NTO d 869     -15.184  20.420 -22.950  0.00  0.00     0.091 H 
ENDROOT
TORSDOF 46
ENDMDL
MODEL 27
REMARK VINA RESULT:      -6.4      3.437      4.584
REMARK  0 active torsions:
REMARK  status: ('A' for Active; 'I' for Inactive)
REMARK       I    between atoms: O4A_2  and  C49_47 
REMARK       I    between atoms: O4A_2  and  S4B_15 
REMARK       I    between atoms: C3F_4  and  N3G_69 
REMARK       I    between atoms: S17_5  and  O16_54 
REMARK       I    between atoms: C5L_6  and  O5M_26 
REMARK       I    between atoms: C4F_7  and  O4G_60 
REMARK       I    between atoms: N1F_9  and  C1E_19 
REMARK       I    between atoms: N1F_9  and  S1G_71 
REMARK       I    between atoms: O5J_11  and  S5H_38 
REMARK       I    between atoms: C3L_12  and  O3M_62 
REMARK       I    between atoms: C29_13  and  O2A_90 
REMARK       I    between atoms: S3B_14  and  O3A_85 
REMARK       I    between atoms: C20_18  and  O1L_72 
REMARK       I    between atoms: O3J_20  and  S3H_80 
REMARK       I    between atoms: C31_23  and  C33_44 
REMARK       I    between atoms: C46_25  and  O47_33 
REMARK       I    between atoms: O5M_26  and  C5N_35 
REMARK       I    between atoms: C51_28  and  C53_48 
REMARK       I    between atoms: C5F_29  and  N5G_43 
REMARK       I    between atoms: C59_30  and  O5A_59 
REMARK       I    between atoms: C21_31  and  C23_64 
REMARK       I    between atoms: C26_32  and  O27_76 
REMARK       I    between atoms: O1J_34  and  S1G_71 
REMARK       I    between atoms: O3K_36  and  S3H_80 
REMARK       I    between atoms: O5I_37  and  S5H_38 
REMARK       I    between atoms: S5H_38  and  O5K_53 
REMARK       I    between atoms: S5H_38  and  N5G_43 
REMARK       I    between atoms: C39_39  and  O3A_85 
REMARK       I    between atoms: C1K_40  and  O1L_72 
REMARK       I    between atoms: C2C_41  and  O2D_45 
REMARK       I    between atoms: C33_44  and  O34_74 
REMARK       I    between atoms: O2D_45  and  C30_91 
REMARK       I    between atoms: C12_46  and  O10_51 
REMARK       I    between atoms: C53_48  and  O54_57 
REMARK       I    between atoms: O3I_50  and  S3H_80 
REMARK       I    between atoms: O16_54  and  C15_68 
REMARK       I    between atoms: C43_56  and  C41_65 
REMARK       I    between atoms: O54_57  and  S55_58 
REMARK       I    between atoms: O4G_60  and  C50_77 
REMARK       I    between atoms: O3M_62  and  C40_70 
REMARK       I    between atoms: O1C_67  and  C1B_86 
REMARK       I    between atoms: C15_68  and  C13_83 
REMARK       I    between atoms: N3G_69  and  S3H_80 
REMARK       I    between atoms: S1G_71  and  O1H_75 
REMARK       I    between atoms: S1G_71  and  O1I_82 
REMARK       I    between atoms: O34_74  and  S35_81 
ROOT
ATOM      1  O42 NTO d 869     -17.544  18.298 -15.942  0.00  0.00    -0.340 OA
ATOM      2  O4A NTO d 869     -20.259  20.764 -15.696  0.00  0.00    -0.244 OA
ATOM      3  O32 NTO d 869     -14.828  22.151 -17.796  0.00  0.00    -0.349 OA
ATOM      4  C3F NTO d 869     -15.188  20.908 -19.827  0.00  0.00     0.083 C 
ATOM      5  S17 NTO d 869      -4.997  15.667 -23.399  0.00  0.00     0.251 S 
ATOM      6  C5L NTO d 869     -20.465  14.311 -13.377  0.00  0.00     0.149 C 
ATOM      7  C4F NTO d 869     -18.872  18.773 -15.674  0.00  0.00     0.161 C 
ATOM      8  O14 NTO d 869      -5.158  18.532 -20.515  0.00  0.00    -0.349 OA
ATOM      9  N1F NTO d 869      -5.029  21.545 -18.394  0.00  0.00    -0.210 NA
ATOM     10  O37 NTO d 869     -11.187  24.192 -15.480  0.00  0.00    -0.572 OA
ATOM     11  O5J NTO d 869     -18.371  12.006 -13.496  0.00  0.00    -0.296 OA
ATOM     12  C3L NTO d 869     -15.791  21.345 -18.493  0.00  0.00     0.150 C 
ATOM     13  C29 NTO d 869      -9.545  19.799 -17.727  0.00  0.00     0.110 C 
ATOM     14  S3B NTO d 869     -13.533  18.204 -20.951  0.00  0.00     0.252 S 
ATOM     15  S4B NTO d 869     -20.593  21.632 -14.609  0.00  0.00     0.252 S 
ATOM     16  O24 NTO d 869      -9.524  19.417 -22.457  0.00  0.00    -0.646 OA
ATOM     17  O45 NTO d 869     -14.737  18.354 -16.822  0.00  0.00    -0.646 OA
ATOM     18  C20 NTO d 869      -7.992  19.851 -19.670  0.00  0.00     0.103 C 
ATOM     19  C1E NTO d 869      -4.527  20.544 -19.344  0.00  0.00     0.081 C 
ATOM     20  O3J NTO d 869     -17.892  20.917 -22.370  0.00  0.00    -0.296 OA
ATOM     21  O38 NTO d 869     -11.509  25.621 -17.449  0.00  0.00    -0.572 OA
ATOM     22  O18 NTO d 869      -4.315  14.784 -22.398  0.00  0.00    -0.572 OA
ATOM     23  C31 NTO d 869     -13.676  21.375 -17.432  0.00  0.00     0.091 C 
ATOM     24  O52 NTO d 869     -21.106  14.935 -14.501  0.00  0.00    -0.349 OA
ATOM     25  C46 NTO d 869     -18.038  20.922 -16.660  0.00  0.00     0.094 C 
ATOM     26  O5M NTO d 869     -21.144  14.574 -12.143  0.00  0.00    -0.364 OA
ATOM     27  O3D NTO d 869     -12.866  17.803 -22.233  0.00  0.00    -0.572 OA
ATOM     28  C51 NTO d 869     -20.985  16.367 -14.495  0.00  0.00     0.091 C 
ATOM     29  C5F NTO d 869     -18.986  14.694 -13.291  0.00  0.00     0.081 C 
ATOM     30  C59 NTO d 869     -18.820  16.214 -13.301  0.00  0.00     0.083 C 
ATOM     31  C21 NTO d 869      -9.081  20.592 -20.430  0.00  0.00     0.152 C 
ATOM     32  C26 NTO d 869      -8.143  20.201 -18.191  0.00  0.00     0.092 C 
ATOM     33  O47 NTO d 869     -18.109  22.348 -16.570  0.00  0.00    -0.390 OA
ATOM     34  O1J NTO d 869      -4.322  23.039 -16.453  0.00  0.00    -0.296 OA
ATOM     35  C5N NTO d 869     -22.230  13.652 -12.006  0.00  0.00     0.007 C 
ATOM     36  O3K NTO d 869     -17.284  22.491 -20.613  0.00  0.00    -0.296 OA
ATOM     37  O5I NTO d 869     -16.240  13.010 -12.823  0.00  0.00    -0.296 OA
ATOM     38  S5H NTO d 869     -17.649  12.725 -12.395  0.00  0.00     0.156 S 
ATOM     39  C39 NTO d 869     -13.974  20.028 -19.521  0.00  0.00     0.108 C 
ATOM     40  C1K NTO d 869      -5.641  19.528 -19.601  0.00  0.00     0.150 C 
ATOM     41  C2C NTO d 869     -10.613  20.452 -18.608  0.00  0.00     0.160 C 
ATOM     42  O19 NTO d 869      -4.081  15.917 -24.560  0.00  0.00    -0.572 OA
ATOM     43  N5G NTO d 869     -18.400  14.135 -12.064  0.00  0.00    -0.210 NA
ATOM     44  C33 NTO d 869     -12.689  22.258 -16.663  0.00  0.00     0.067 C 
ATOM     45  O2D NTO d 869     -11.902  19.954 -18.215  0.00  0.00    -0.348 OA
ATOM     46  C12 NTO d 869      -3.807  20.177 -21.713  0.00  0.00     0.089 C 
ATOM     47  C49 NTO d 869     -18.912  20.300 -15.571  0.00  0.00     0.134 C 
ATOM     48  C53 NTO d 869     -21.678  16.886 -15.757  0.00  0.00     0.067 C 
ATOM     49  O4D NTO d 869     -19.954  22.972 -14.820  0.00  0.00    -0.572 OA
ATOM     50  O3I NTO d 869     -18.665  20.536 -20.076  0.00  0.00    -0.296 OA
ATOM     51  O10 NTO d 869      -3.686  20.821 -22.984  0.00  0.00    -0.390 OA
ATOM     52  O1A NTO d 869      -6.250  14.998 -23.877  0.00  0.00    -0.572 OA
ATOM     53  O5K NTO d 869     -17.641  11.856 -11.173  0.00  0.00    -0.296 OA
ATOM     54  O16 NTO d 869      -5.340  16.912 -22.779  0.00  0.00    -0.254 OA
ATOM     55  O56 NTO d 869     -20.711  17.460 -18.970  0.00  0.00    -0.572 OA
ATOM     56  C43 NTO d 869     -15.159  18.626 -15.675  0.00  0.00     0.206 C 
ATOM     57  O54 NTO d 869     -21.115  16.275 -16.920  0.00  0.00    -0.254 OA
ATOM     58  S55 NTO d 869     -21.642  16.554 -18.222  0.00  0.00     0.251 S 
ATOM     59  O5A NTO d 869     -17.430  16.545 -13.382  0.00  0.00    -0.391 OA
ATOM     60  O4G NTO d 869     -19.415  18.224 -14.464  0.00  0.00    -0.348 OA
ATOM     61  O3C NTO d 869     -14.997  17.891 -21.044  0.00  0.00    -0.572 OA
ATOM     62  O3M NTO d 869     -16.051  20.149 -17.745  0.00  0.00    -0.348 OA
ATOM     63  O44 NTO d 869     -14.503  18.420 -14.621  0.00  0.00    -0.646 OA
ATOM     64  C23 NTO d 869      -8.872  20.342 -21.916  0.00  0.00     0.206 C 
ATOM     65  C41 NTO d 869     -16.540  19.252 -15.551  0.00  0.00     0.152 C 
ATOM     66  O22 NTO d 869     -10.385  20.164 -19.998  0.00  0.00    -0.340 OA
ATOM     67  O1C NTO d 869      -3.063  22.110 -20.463  0.00  0.00    -0.391 OA
ATOM     68  C15 NTO d 869      -4.391  17.978 -22.717  0.00  0.00     0.067 C 
ATOM     69  N3G NTO d 869     -16.191  20.164 -20.610  0.00  0.00    -0.210 NA
ATOM     70  C40 NTO d 869     -16.592  20.473 -16.458  0.00  0.00     0.103 C 
ATOM     71  S1G NTO d 869      -3.819  21.987 -17.396  0.00  0.00     0.156 S 
ATOM     72  O1L NTO d 869      -6.721  20.263 -20.193  0.00  0.00    -0.348 OA
ATOM     73  O57 NTO d 869     -22.977  17.223 -18.083  0.00  0.00    -0.572 OA
ATOM     74  O34 NTO d 869     -12.206  23.334 -17.472  0.00  0.00    -0.254 OA
ATOM     75  O1H NTO d 869      -2.679  22.527 -18.206  0.00  0.00    -0.296 OA
ATOM     76  O27 NTO d 869      -7.171  19.489 -17.420  0.00  0.00    -0.390 OA
ATOM     77  C50 NTO d 869     -19.525  16.795 -14.525  0.00  0.00     0.095 C 
ATOM     78  O3E NTO d 869     -12.936  17.430 -19.813  0.00  0.00    -0.572 OA
ATOM     79  O25 NTO d 869      -8.043  21.064 -22.519  0.00  0.00    -0.646 OA
ATOM     80  S3H NTO d 869     -17.532  21.044 -20.920  0.00  0.00     0.156 S 
ATOM     81  S35 NTO d 869     -11.201  24.231 -16.980  0.00  0.00     0.251 S 
ATOM     82  O1I NTO d 869      -3.362  20.791 -16.614  0.00  0.00    -0.296 OA
ATOM     83  C13 NTO d 869      -4.892  19.103 -21.806  0.00  0.00     0.090 C 
ATOM     84  O58 NTO d 869     -21.801  15.265 -18.971  0.00  0.00    -0.572 OA
ATOM     85  O3A NTO d 869     -13.350  19.608 -20.740  0.00  0.00    -0.247 OA
ATOM     86  C1B NTO d 869      -4.172  21.230 -20.663  0.00  0.00     0.083 C 
ATOM     87  O4C NTO d 869     -20.108  21.036 -13.321  0.00  0.00    -0.572 OA
ATOM     88  O4E NTO d 869     -22.083  21.780 -14.554  0.00  0.00    -0.572 OA
ATOM     89  O36 NTO d 869      -9.855  23.822 -17.498  0.00  0.00    -0.572 OA
ATOM     90  O2A NTO d 869      -9.729  20.205 -16.370  0.00  0.00    -0.388 OA
ATOM     91  C30 NTO d 869     -12.974  20.802 -18.657  0.00  0.00     0.096 C 
ATOM     92  H   NTO d 869     -14.886  21.757 -20.405  0.00  0.00     0.076 H 
ATOM     93  H   NTO d 869     -20.520  13.256 -13.541  0.00  0.00     0.131 H 
ATOM     94  H   NTO d 869     -19.467  18.447 -16.501  0.00  0.00     0.133 H 
ATOM     95  H   NTO d 869      -5.793  21.145 -17.849  0.00  0.00     0.140 HD
ATOM     96  H   NTO d 869     -17.918  11.170 -13.687  0.00  0.00     0.231 HD
ATOM     97  H   NTO d 869     -16.689  21.911 -18.629  0.00  0.00     0.131 H 
ATOM     98  H   NTO d 869      -9.642  18.736 -17.804  0.00  0.00     0.094 H 
ATOM     99  H   NTO d 869      -8.067  18.789 -19.782  0.00  0.00     0.092 H 
ATOM    100  H   NTO d 869      -3.660  20.060 -18.946  0.00  0.00     0.076 H 
ATOM    101  H   NTO d 869     -18.688  21.439 -22.553  0.00  0.00     0.231 HD
ATOM    102  H   NTO d 869     -14.008  20.561 -16.823  0.00  0.00     0.090 H 
ATOM    103  H   NTO d 869     -18.382  20.607 -17.623  0.00  0.00     0.091 H 
ATOM    104  H   NTO d 869     -21.428  16.761 -13.604  0.00  0.00     0.090 H 
ATOM    105  H   NTO d 869     -18.479  14.293 -14.143  0.00  0.00     0.076 H 
ATOM    106  H   NTO d 869     -19.242  16.618 -12.404  0.00  0.00     0.089 H 
ATOM    107  H   NTO d 869      -9.023  21.643 -20.234  0.00  0.00     0.104 H 
ATOM    108  H   NTO d 869      -7.997  21.253 -18.057  0.00  0.00     0.091 H 
ATOM    109  H   NTO d 869     -17.796  22.632 -15.696  0.00  0.00     0.210 HD
ATOM    110  H   NTO d 869      -4.617  23.813 -16.959  0.00  0.00     0.231 HD
ATOM    111  H   NTO d 869     -22.744  13.840 -11.086  0.00  0.00     0.066 H 
ATOM    112  H   NTO d 869     -21.850  12.651 -12.004  0.00  0.00     0.066 H 
ATOM    113  H   NTO d 869     -22.907  13.774 -12.825  0.00  0.00     0.066 H 
ATOM    114  H   NTO d 869     -18.086  23.003 -20.800  0.00  0.00     0.231 HD
ATOM    115  H   NTO d 869     -15.788  12.174 -13.022  0.00  0.00     0.231 HD
ATOM    116  H   NTO d 869     -14.300  19.161 -18.986  0.00  0.00     0.092 H 
ATOM    117  H   NTO d 869      -5.958  19.037 -18.704  0.00  0.00     0.131 H 
ATOM    118  H   NTO d 869     -10.568  21.513 -18.481  0.00  0.00     0.133 H 
ATOM    119  H   NTO d 869     -19.139  13.971 -11.381  0.00  0.00     0.140 HD
ATOM    120  H   NTO d 869     -11.860  21.660 -16.348  0.00  0.00     0.080 H 
ATOM    121  H   NTO d 869     -13.200  22.676 -15.820  0.00  0.00     0.080 H 
ATOM    122  H   NTO d 869      -2.886  19.713 -21.431  0.00  0.00     0.091 H 
ATOM    123  H   NTO d 869     -18.534  20.594 -14.614  0.00  0.00     0.097 H 
ATOM    124  H   NTO d 869     -21.551  17.946 -15.818  0.00  0.00     0.080 H 
ATOM    125  H   NTO d 869     -22.719  16.643 -15.707  0.00  0.00     0.080 H 
ATOM    126  H   NTO d 869     -19.462  21.057 -20.259  0.00  0.00     0.231 HD
ATOM    127  H   NTO d 869      -4.531  21.234 -23.218  0.00  0.00     0.210 HD
ATOM    128  H   NTO d 869     -17.193  11.019 -11.375  0.00  0.00     0.231 HD
ATOM    129  H   NTO d 869     -17.057  16.175 -14.197  0.00  0.00     0.210 HD
ATOM    130  H   NTO d 869     -16.727  19.542 -14.539  0.00  0.00     0.104 H 
ATOM    131  H   NTO d 869      -3.294  22.777 -19.798  0.00  0.00     0.210 HD
ATOM    132  H   NTO d 869      -4.236  18.368 -23.702  0.00  0.00     0.080 H 
ATOM    133  H   NTO d 869      -3.474  17.597 -22.317  0.00  0.00     0.080 H 
ATOM    134  H   NTO d 869     -16.461  19.331 -20.086  0.00  0.00     0.140 HD
ATOM    135  H   NTO d 869     -16.024  21.254 -15.997  0.00  0.00     0.092 H 
ATOM    136  H   NTO d 869      -2.978  23.300 -18.710  0.00  0.00     0.231 HD
ATOM    137  H   NTO d 869      -7.299  18.535 -17.538  0.00  0.00     0.210 HD
ATOM    138  H   NTO d 869     -19.084  16.442 -15.434  0.00  0.00     0.091 H 
ATOM    139  H   NTO d 869      -4.102  20.445 -16.091  0.00  0.00     0.231 HD
ATOM    140  H   NTO d 869      -5.785  19.552 -22.188  0.00  0.00     0.090 H 
ATOM    141  H   NTO d 869      -5.015  21.793 -21.004  0.00  0.00     0.089 H 
ATOM    142  H   NTO d 869      -9.639  21.169 -16.306  0.00  0.00     0.210 HD
ATOM    143  H   NTO d 869     -12.571  21.591 -19.257  0.00  0.00     0.091 H 
ENDROOT
TORSDOF 46
ENDMDL
MODEL 28
REMARK VINA RESULT:      -6.4      3.492      4.651
REMARK  0 active torsions:
REMARK  status: ('A' for Active; 'I' for Inactive)
REMARK       I    between atoms: O4A_2  and  C49_47 
REMARK       I    between atoms: O4A_2  and  S4B_15 
REMARK       I    between atoms: C3F_4  and  N3G_69 
REMARK       I    between atoms: S17_5  and  O16_54 
REMARK       I    between atoms: C5L_6  and  O5M_26 
REMARK       I    between atoms: C4F_7  and  O4G_60 
REMARK       I    between atoms: N1F_9  and  C1E_19 
REMARK       I    between atoms: N1F_9  and  S1G_71 
REMARK       I    between atoms: O5J_11  and  S5H_38 
REMARK       I    between atoms: C3L_12  and  O3M_62 
REMARK       I    between atoms: C29_13  and  O2A_90 
REMARK       I    between atoms: S3B_14  and  O3A_85 
REMARK       I    between atoms: C20_18  and  O1L_72 
REMARK       I    between atoms: O3J_20  and  S3H_80 
REMARK       I    between atoms: C31_23  and  C33_44 
REMARK       I    between atoms: C46_25  and  O47_33 
REMARK       I    between atoms: O5M_26  and  C5N_35 
REMARK       I    between atoms: C51_28  and  C53_48 
REMARK       I    between atoms: C5F_29  and  N5G_43 
REMARK       I    between atoms: C59_30  and  O5A_59 
REMARK       I    between atoms: C21_31  and  C23_64 
REMARK       I    between atoms: C26_32  and  O27_76 
REMARK       I    between atoms: O1J_34  and  S1G_71 
REMARK       I    between atoms: O3K_36  and  S3H_80 
REMARK       I    between atoms: O5I_37  and  S5H_38 
REMARK       I    between atoms: S5H_38  and  O5K_53 
REMARK       I    between atoms: S5H_38  and  N5G_43 
REMARK       I    between atoms: C39_39  and  O3A_85 
REMARK       I    between atoms: C1K_40  and  O1L_72 
REMARK       I    between atoms: C2C_41  and  O2D_45 
REMARK       I    between atoms: C33_44  and  O34_74 
REMARK       I    between atoms: O2D_45  and  C30_91 
REMARK       I    between atoms: C12_46  and  O10_51 
REMARK       I    between atoms: C53_48  and  O54_57 
REMARK       I    between atoms: O3I_50  and  S3H_80 
REMARK       I    between atoms: O16_54  and  C15_68 
REMARK       I    between atoms: C43_56  and  C41_65 
REMARK       I    between atoms: O54_57  and  S55_58 
REMARK       I    between atoms: O4G_60  and  C50_77 
REMARK       I    between atoms: O3M_62  and  C40_70 
REMARK       I    between atoms: O1C_67  and  C1B_86 
REMARK       I    between atoms: C15_68  and  C13_83 
REMARK       I    between atoms: N3G_69  and  S3H_80 
REMARK       I    between atoms: S1G_71  and  O1H_75 
REMARK       I    between atoms: S1G_71  and  O1I_82 
REMARK       I    between atoms: O34_74  and  S35_81 
ROOT
ATOM      1  O42 NTO d 869     -22.961  17.280 -19.369  0.00  0.00    -0.340 OA
ATOM      2  O4A NTO d 869     -26.022  19.259 -19.846  0.00  0.00    -0.244 OA
ATOM      3  O32 NTO d 869     -20.612  21.253 -21.454  0.00  0.00    -0.349 OA
ATOM      4  C3F NTO d 869     -20.481  19.706 -23.295  0.00  0.00     0.083 C 
ATOM      5  S17 NTO d 869      -9.209  15.836 -24.730  0.00  0.00     0.251 S 
ATOM      6  C5L NTO d 869     -25.595  13.236 -16.591  0.00  0.00     0.149 C 
ATOM      7  C4F NTO d 869     -24.371  17.553 -19.343  0.00  0.00     0.161 C 
ATOM      8  O14 NTO d 869     -10.217  18.993 -22.370  0.00  0.00    -0.349 OA
ATOM      9  N1F NTO d 869     -10.851  22.242 -20.746  0.00  0.00    -0.210 NA
ATOM     10  O37 NTO d 869     -17.696  24.173 -19.057  0.00  0.00    -0.572 OA
ATOM     11  O5J NTO d 869     -23.185  11.325 -16.091  0.00  0.00    -0.296 OA
ATOM     12  C3L NTO d 869     -21.331  20.208 -22.130  0.00  0.00     0.150 C 
ATOM     13  C29 NTO d 869     -15.103  19.861 -20.372  0.00  0.00     0.110 C 
ATOM     14  S3B NTO d 869     -18.294  17.195 -23.772  0.00  0.00     0.252 S 
ATOM     15  S4B NTO d 869     -26.637  20.196 -18.957  0.00  0.00     0.252 S 
ATOM     16  O24 NTO d 869     -14.335  18.857 -24.947  0.00  0.00    -0.646 OA
ATOM     17  O45 NTO d 869     -20.097  17.691 -19.897  0.00  0.00    -0.646 OA
ATOM     18  C20 NTO d 869     -13.309  19.914 -22.095  0.00  0.00     0.103 C 
ATOM     19  C1E NTO d 869     -10.072  21.222 -21.459  0.00  0.00     0.081 C 
ATOM     20  O3J NTO d 869     -22.755  18.914 -26.121  0.00  0.00    -0.296 OA
ATOM     21  O38 NTO d 869     -17.936  25.249 -21.249  0.00  0.00    -0.572 OA
ATOM     22  O18 NTO d 869      -8.556  15.224 -23.527  0.00  0.00    -0.572 OA
ATOM     23  C31 NTO d 869     -19.422  20.739 -20.836  0.00  0.00     0.091 C 
ATOM     24  O52 NTO d 869     -26.152  13.585 -17.869  0.00  0.00    -0.349 OA
ATOM     25  C46 NTO d 869     -23.732  19.660 -20.543  0.00  0.00     0.094 C 
ATOM     26  O5M NTO d 869     -26.480  13.543 -15.505  0.00  0.00    -0.364 OA
ATOM     27  O3D NTO d 869     -17.394  16.744 -24.884  0.00  0.00    -0.572 OA
ATOM     28  C51 NTO d 869     -26.249  15.005 -18.071  0.00  0.00     0.091 C 
ATOM     29  C5F NTO d 869     -24.219  13.872 -16.385  0.00  0.00     0.081 C 
ATOM     30  C59 NTO d 869     -24.283  15.383 -16.611  0.00  0.00     0.083 C 
ATOM     31  C21 NTO d 869     -14.374  20.352 -23.089  0.00  0.00     0.152 C 
ATOM     32  C26 NTO d 869     -13.725  20.429 -20.718  0.00  0.00     0.092 C 
ATOM     33  O47 NTO d 869     -24.029  21.053 -20.685  0.00  0.00    -0.390 OA
ATOM     34  O1J NTO d 869     -10.667  24.081 -18.990  0.00  0.00    -0.296 OA
ATOM     35  C5N NTO d 869     -27.423  12.477 -15.360  0.00  0.00     0.007 C 
ATOM     36  O3K NTO d 869     -22.653  20.789 -24.569  0.00  0.00    -0.296 OA
ATOM     37  O5I NTO d 869     -21.351  12.756 -15.327  0.00  0.00    -0.296 OA
ATOM     38  S5H NTO d 869     -22.748  12.296 -15.036  0.00  0.00     0.156 S 
ATOM     39  C39 NTO d 869     -19.207  19.093 -22.710  0.00  0.00     0.108 C 
ATOM     40  C1K NTO d 869     -10.972  20.007 -21.688  0.00  0.00     0.150 C 
ATOM     41  C2C NTO d 869     -16.117  20.199 -21.469  0.00  0.00     0.160 C 
ATOM     42  O19 NTO d 869      -8.181  16.080 -25.794  0.00  0.00    -0.572 OA
ATOM     43  N5G NTO d 869     -23.742  13.590 -15.023  0.00  0.00    -0.210 NA
ATOM     44  C33 NTO d 869     -18.702  21.872 -20.099  0.00  0.00     0.067 C 
ATOM     45  O2D NTO d 869     -17.361  19.548 -21.164  0.00  0.00    -0.348 OA
ATOM     46  C12 NTO d 869      -8.967  20.668 -23.635  0.00  0.00     0.089 C 
ATOM     47  C49 NTO d 869     -24.654  19.052 -19.486  0.00  0.00     0.134 C 
ATOM     48  C53 NTO d 869     -26.820  15.224 -19.474  0.00  0.00     0.067 C 
ATOM     49  O4D NTO d 869     -26.182  21.585 -19.294  0.00  0.00    -0.572 OA
ATOM     50  O3I NTO d 869     -23.789  18.719 -23.908  0.00  0.00    -0.296 OA
ATOM     51  O10 NTO d 869      -8.759  21.146 -24.966  0.00  0.00    -0.390 OA
ATOM     52  O1A NTO d 869     -10.264  14.907 -25.247  0.00  0.00    -0.572 OA
ATOM     53  O5K NTO d 869     -22.788  11.613 -13.701  0.00  0.00    -0.296 OA
ATOM     54  O16 NTO d 869      -9.821  17.077 -24.359  0.00  0.00    -0.254 OA
ATOM     55  O56 NTO d 869     -25.490  15.517 -22.594  0.00  0.00    -0.572 OA
ATOM     56  C43 NTO d 869     -20.718  18.040 -18.867  0.00  0.00     0.206 C 
ATOM     57  O54 NTO d 869     -26.008  14.568 -20.449  0.00  0.00    -0.254 OA
ATOM     58  S55 NTO d 869     -26.375  14.575 -21.834  0.00  0.00     0.251 S 
ATOM     59  O5A NTO d 869     -22.961  15.930 -16.572  0.00  0.00    -0.391 OA
ATOM     60  O4G NTO d 869     -24.996  17.088 -18.138  0.00  0.00    -0.348 OA
ATOM     61  O3C NTO d 869     -19.665  16.629 -23.994  0.00  0.00    -0.572 OA
ATOM     62  O3M NTO d 869     -21.515  19.097 -21.242  0.00  0.00    -0.348 OA
ATOM     63  O44 NTO d 869     -20.199  18.091 -17.721  0.00  0.00    -0.646 OA
ATOM     64  C23 NTO d 869     -13.915  19.943 -24.481  0.00  0.00     0.206 C 
ATOM     65  C41 NTO d 869     -22.179  18.433 -19.012  0.00  0.00     0.152 C 
ATOM     66  O22 NTO d 869     -15.648  19.770 -22.758  0.00  0.00    -0.340 OA
ATOM     67  O1C NTO d 869      -8.711  22.849 -22.621  0.00  0.00    -0.391 OA
ATOM     68  C15 NTO d 869      -9.062  18.287 -24.348  0.00  0.00     0.067 C 
ATOM     69  N3G NTO d 869     -21.235  18.703 -24.069  0.00  0.00    -0.210 NA
ATOM     70  C40 NTO d 869     -22.281  19.495 -20.098  0.00  0.00     0.103 C 
ATOM     71  S1G NTO d 869      -9.880  23.013 -19.688  0.00  0.00     0.156 S 
ATOM     72  O1L NTO d 869     -12.052  20.462 -22.516  0.00  0.00    -0.348 OA
ATOM     73  O57 NTO d 869     -27.801  15.021 -21.965  0.00  0.00    -0.572 OA
ATOM     74  O34 NTO d 869     -18.272  22.896 -21.001  0.00  0.00    -0.254 OA
ATOM     75  O1H NTO d 869      -8.728  23.625 -20.427  0.00  0.00    -0.296 OA
ATOM     76  O27 NTO d 869     -12.781  20.003 -19.732  0.00  0.00    -0.390 OA
ATOM     77  C50 NTO d 869     -24.881  15.666 -17.989  0.00  0.00     0.095 C 
ATOM     78  O3E NTO d 869     -17.760  16.693 -22.462  0.00  0.00    -0.572 OA
ATOM     79  O25 NTO d 869     -13.125  20.707 -25.082  0.00  0.00    -0.646 OA
ATOM     80  S3H NTO d 869     -22.634  19.294 -24.675  0.00  0.00     0.156 S 
ATOM     81  S35 NTO d 869     -17.495  24.008 -20.535  0.00  0.00     0.251 S 
ATOM     82  O1I NTO d 869      -9.368  22.027 -18.679  0.00  0.00    -0.296 OA
ATOM     83  C13 NTO d 869      -9.854  19.422 -23.692  0.00  0.00     0.090 C 
ATOM     84  O58 NTO d 869     -26.228  13.190 -22.386  0.00  0.00    -0.572 OA
ATOM     85  O3A NTO d 869     -18.356  18.625 -23.762  0.00  0.00    -0.247 OA
ATOM     86  C1B NTO d 869      -9.635  21.776 -22.815  0.00  0.00     0.083 C 
ATOM     87  O4C NTO d 869     -26.261  19.869 -17.542  0.00  0.00    -0.572 OA
ATOM     88  O4E NTO d 869     -28.125  20.096 -19.108  0.00  0.00    -0.572 OA
ATOM     89  O36 NTO d 869     -16.042  23.767 -20.813  0.00  0.00    -0.572 OA
ATOM     90  O2A NTO d 869     -15.542  20.409 -19.129  0.00  0.00    -0.388 OA
ATOM     91  C30 NTO d 869     -18.471  20.134 -21.861  0.00  0.00     0.096 C 
ATOM     92  H   NTO d 869     -20.228  20.508 -23.957  0.00  0.00     0.076 H 
ATOM     93  H   NTO d 869     -25.468  12.174 -16.594  0.00  0.00     0.131 H 
ATOM     94  H   NTO d 869     -24.783  17.023 -20.176  0.00  0.00     0.133 H 
ATOM     95  H   NTO d 869     -11.618  21.795 -20.242  0.00  0.00     0.140 HD
ATOM     96  H   NTO d 869     -22.590  10.559 -16.093  0.00  0.00     0.231 HD
ATOM     97  H   NTO d 869     -22.274  20.591 -22.461  0.00  0.00     0.131 H 
ATOM     98  H   NTO d 869     -15.028  18.796 -20.294  0.00  0.00     0.094 H 
ATOM     99  H   NTO d 869     -13.207  18.850 -22.048  0.00  0.00     0.092 H 
ATOM    100  H   NTO d 869      -9.209  20.950 -20.887  0.00  0.00     0.076 H 
ATOM    101  H   NTO d 869     -23.585  19.264 -26.479  0.00  0.00     0.231 HD
ATOM    102  H   NTO d 869     -19.714  19.970 -20.152  0.00  0.00     0.090 H 
ATOM    103  H   NTO d 869     -23.881  19.166 -21.480  0.00  0.00     0.091 H 
ATOM    104  H   NTO d 869     -26.872  15.434 -17.314  0.00  0.00     0.090 H 
ATOM    105  H   NTO d 869     -23.539  13.452 -17.095  0.00  0.00     0.076 H 
ATOM    106  H   NTO d 869     -24.887  15.826 -15.847  0.00  0.00     0.089 H 
ATOM    107  H   NTO d 869     -14.503  21.413 -23.054  0.00  0.00     0.104 H 
ATOM    108  H   NTO d 869     -13.760  21.498 -20.733  0.00  0.00     0.091 H 
ATOM    109  H   NTO d 869     -23.893  21.501 -19.835  0.00  0.00     0.210 HD
ATOM    110  H   NTO d 869     -10.998  24.719 -19.642  0.00  0.00     0.231 HD
ATOM    111  H   NTO d 869     -28.088  12.697 -14.551  0.00  0.00     0.066 H 
ATOM    112  H   NTO d 869     -26.903  11.565 -15.156  0.00  0.00     0.066 H 
ATOM    113  H   NTO d 869     -27.984  12.372 -16.265  0.00  0.00     0.066 H 
ATOM    114  H   NTO d 869     -23.487  21.128 -24.931  0.00  0.00     0.231 HD
ATOM    115  H   NTO d 869     -20.754  11.990 -15.337  0.00  0.00     0.231 HD
ATOM    116  H   NTO d 869     -19.474  18.263 -22.090  0.00  0.00     0.092 H 
ATOM    117  H   NTO d 869     -11.339  19.594 -20.772  0.00  0.00     0.131 H 
ATOM    118  H   NTO d 869     -16.250  21.260 -21.504  0.00  0.00     0.133 H 
ATOM    119  H   NTO d 869     -24.540  13.396 -14.419  0.00  0.00     0.140 HD
ATOM    120  H   NTO d 869     -17.847  21.471 -19.595  0.00  0.00     0.080 H 
ATOM    121  H   NTO d 869     -19.387  22.306 -19.400  0.00  0.00     0.080 H 
ATOM    122  H   NTO d 869      -8.038  20.409 -23.173  0.00  0.00     0.091 H 
ATOM    123  H   NTO d 869     -24.467  19.531 -18.547  0.00  0.00     0.097 H 
ATOM    124  H   NTO d 869     -26.845  16.272 -19.684  0.00  0.00     0.080 H 
ATOM    125  H   NTO d 869     -27.809  14.817 -19.514  0.00  0.00     0.080 H 
ATOM    126  H   NTO d 869     -24.620  19.068 -24.266  0.00  0.00     0.231 HD
ATOM    127  H   NTO d 869      -9.613  21.375 -25.364  0.00  0.00     0.210 HD
ATOM    128  H   NTO d 869     -22.196  10.845 -13.714  0.00  0.00     0.231 HD
ATOM    129  H   NTO d 869     -22.422  15.523 -17.268  0.00  0.00     0.210 HD
ATOM    130  H   NTO d 869     -22.554  18.821 -18.088  0.00  0.00     0.104 H 
ATOM    131  H   NTO d 869      -9.135  23.550 -22.101  0.00  0.00     0.210 HD
ATOM    132  H   NTO d 869      -8.825  18.562 -25.355  0.00  0.00     0.080 H 
ATOM    133  H   NTO d 869      -8.166  18.125 -23.784  0.00  0.00     0.080 H 
ATOM    134  H   NTO d 869     -21.452  17.915 -23.459  0.00  0.00     0.140 HD
ATOM    135  H   NTO d 869     -21.910  20.415 -19.698  0.00  0.00     0.092 H 
ATOM    136  H   NTO d 869      -9.063  24.261 -21.078  0.00  0.00     0.231 HD
ATOM    137  H   NTO d 869     -12.746  19.033 -19.715  0.00  0.00     0.210 HD
ATOM    138  H   NTO d 869     -24.264  15.274 -18.770  0.00  0.00     0.091 H 
ATOM    139  H   NTO d 869     -10.117  21.634 -18.203  0.00  0.00     0.231 HD
ATOM    140  H   NTO d 869     -10.738  19.659 -24.246  0.00  0.00     0.090 H 
ATOM    141  H   NTO d 869     -10.494  22.136 -23.341  0.00  0.00     0.089 H 
ATOM    142  H   NTO d 869     -15.608  21.374 -19.205  0.00  0.00     0.210 HD
ATOM    143  H   NTO d 869     -18.107  20.892 -22.523  0.00  0.00     0.091 H 
ENDROOT
TORSDOF 46
ENDMDL
MODEL 29
REMARK VINA RESULT:      -6.3      3.520     14.235
REMARK  0 active torsions:
REMARK  status: ('A' for Active; 'I' for Inactive)
REMARK       I    between atoms: O4A_2  and  C49_47 
REMARK       I    between atoms: O4A_2  and  S4B_15 
REMARK       I    between atoms: C3F_4  and  N3G_69 
REMARK       I    between atoms: S17_5  and  O16_54 
REMARK       I    between atoms: C5L_6  and  O5M_26 
REMARK       I    between atoms: C4F_7  and  O4G_60 
REMARK       I    between atoms: N1F_9  and  C1E_19 
REMARK       I    between atoms: N1F_9  and  S1G_71 
REMARK       I    between atoms: O5J_11  and  S5H_38 
REMARK       I    between atoms: C3L_12  and  O3M_62 
REMARK       I    between atoms: C29_13  and  O2A_90 
REMARK       I    between atoms: S3B_14  and  O3A_85 
REMARK       I    between atoms: C20_18  and  O1L_72 
REMARK       I    between atoms: O3J_20  and  S3H_80 
REMARK       I    between atoms: C31_23  and  C33_44 
REMARK       I    between atoms: C46_25  and  O47_33 
REMARK       I    between atoms: O5M_26  and  C5N_35 
REMARK       I    between atoms: C51_28  and  C53_48 
REMARK       I    between atoms: C5F_29  and  N5G_43 
REMARK       I    between atoms: C59_30  and  O5A_59 
REMARK       I    between atoms: C21_31  and  C23_64 
REMARK       I    between atoms: C26_32  and  O27_76 
REMARK       I    between atoms: O1J_34  and  S1G_71 
REMARK       I    between atoms: O3K_36  and  S3H_80 
REMARK       I    between atoms: O5I_37  and  S5H_38 
REMARK       I    between atoms: S5H_38  and  O5K_53 
REMARK       I    between atoms: S5H_38  and  N5G_43 
REMARK       I    between atoms: C39_39  and  O3A_85 
REMARK       I    between atoms: C1K_40  and  O1L_72 
REMARK       I    between atoms: C2C_41  and  O2D_45 
REMARK       I    between atoms: C33_44  and  O34_74 
REMARK       I    between atoms: O2D_45  and  C30_91 
REMARK       I    between atoms: C12_46  and  O10_51 
REMARK       I    between atoms: C53_48  and  O54_57 
REMARK       I    between atoms: O3I_50  and  S3H_80 
REMARK       I    between atoms: O16_54  and  C15_68 
REMARK       I    between atoms: C43_56  and  C41_65 
REMARK       I    between atoms: O54_57  and  S55_58 
REMARK       I    between atoms: O4G_60  and  C50_77 
REMARK       I    between atoms: O3M_62  and  C40_70 
REMARK       I    between atoms: O1C_67  and  C1B_86 
REMARK       I    between atoms: C15_68  and  C13_83 
REMARK       I    between atoms: N3G_69  and  S3H_80 
REMARK       I    between atoms: S1G_71  and  O1H_75 
REMARK       I    between atoms: S1G_71  and  O1I_82 
REMARK       I    between atoms: O34_74  and  S35_81 
ROOT
ATOM      1  O42 NTO d 869     -11.036  19.027 -22.288  0.00  0.00    -0.340 OA
ATOM      2  O4A NTO d 869      -9.294  18.108 -25.391  0.00  0.00    -0.244 OA
ATOM      3  O32 NTO d 869     -15.260  18.402 -25.013  0.00  0.00    -0.349 OA
ATOM      4  C3F NTO d 869     -15.231  20.807 -24.876  0.00  0.00     0.083 C 
ATOM      5  S17 NTO d 869     -23.888  24.693 -17.525  0.00  0.00     0.251 S 
ATOM      6  C5L NTO d 869      -6.352  19.130 -19.279  0.00  0.00     0.149 C 
ATOM      7  C4F NTO d 869      -9.909  18.790 -23.145  0.00  0.00     0.161 C 
ATOM      8  O14 NTO d 869     -23.669  20.877 -18.917  0.00  0.00    -0.349 OA
ATOM      9  N1F NTO d 869     -24.008  17.608 -20.588  0.00  0.00    -0.210 NA
ATOM     10  O37 NTO d 869     -18.365  14.844 -24.322  0.00  0.00    -0.572 OA
ATOM     11  O5J NTO d 869      -7.549  19.966 -16.525  0.00  0.00    -0.296 OA
ATOM     12  C3L NTO d 869     -14.384  19.542 -25.006  0.00  0.00     0.150 C 
ATOM     13  C29 NTO d 869     -19.223  18.577 -20.804  0.00  0.00     0.110 C 
ATOM     14  S3B NTO d 869     -16.246  22.774 -22.343  0.00  0.00     0.252 S 
ATOM     15  S4B NTO d 869      -8.902  16.813 -25.856  0.00  0.00     0.252 S 
ATOM     16  O24 NTO d 869     -20.695  22.866 -22.206  0.00  0.00    -0.646 OA
ATOM     17  O45 NTO d 869     -13.848  19.310 -21.470  0.00  0.00    -0.646 OA
ATOM     18  C20 NTO d 869     -21.269  19.990 -20.901  0.00  0.00     0.103 C 
ATOM     19  C1E NTO d 869     -24.462  18.818 -19.892  0.00  0.00     0.081 C 
ATOM     20  O3J NTO d 869     -13.667  23.456 -26.954  0.00  0.00    -0.296 OA
ATOM     21  O38 NTO d 869     -19.173  15.944 -26.362  0.00  0.00    -0.572 OA
ATOM     22  O18 NTO d 869     -23.891  24.122 -16.139  0.00  0.00    -0.572 OA
ATOM     23  C31 NTO d 869     -15.928  18.260 -23.750  0.00  0.00     0.091 C 
ATOM     24  O52 NTO d 869      -6.346  19.922 -20.478  0.00  0.00    -0.349 OA
ATOM     25  C46 NTO d 869     -11.643  18.511 -24.935  0.00  0.00     0.094 C 
ATOM     26  O5M NTO d 869      -5.418  18.045 -19.333  0.00  0.00    -0.364 OA
ATOM     27  O3D NTO d 869     -17.143  23.967 -22.197  0.00  0.00    -0.572 OA
ATOM     28  C51 NTO d 869      -6.893  19.230 -21.612  0.00  0.00     0.091 C 
ATOM     29  C5F NTO d 869      -7.760  18.636 -18.940  0.00  0.00     0.081 C 
ATOM     30  C59 NTO d 869      -8.380  17.909 -20.134  0.00  0.00     0.083 C 
ATOM     31  C21 NTO d 869     -20.778  20.483 -22.253  0.00  0.00     0.152 C 
ATOM     32  C26 NTO d 869     -20.750  18.565 -20.715  0.00  0.00     0.092 C 
ATOM     33  O47 NTO d 869     -11.988  17.779 -26.115  0.00  0.00    -0.390 OA
ATOM     34  O1J NTO d 869     -24.454  15.108 -20.820  0.00  0.00    -0.296 OA
ATOM     35  C5N NTO d 869      -4.120  18.533 -18.977  0.00  0.00     0.007 C 
ATOM     36  O3K NTO d 869     -14.110  21.095 -27.361  0.00  0.00    -0.296 OA
ATOM     37  O5I NTO d 869      -9.534  18.566 -16.211  0.00  0.00    -0.296 OA
ATOM     38  S5H NTO d 869      -8.048  18.556 -16.415  0.00  0.00     0.156 S 
ATOM     39  C39 NTO d 869     -15.940  20.753 -23.521  0.00  0.00     0.108 C 
ATOM     40  C1K NTO d 869     -23.242  19.696 -19.614  0.00  0.00     0.150 C 
ATOM     41  C2C NTO d 869     -18.765  19.214 -22.119  0.00  0.00     0.160 C 
ATOM     42  O19 NTO d 869     -25.167  25.437 -17.770  0.00  0.00    -0.572 OA
ATOM     43  N5G NTO d 869      -7.703  17.733 -17.780  0.00  0.00    -0.210 NA
ATOM     44  C33 NTO d 869     -16.824  17.019 -23.785  0.00  0.00     0.067 C 
ATOM     45  O2D NTO d 869     -17.331  19.313 -22.107  0.00  0.00    -0.348 OA
ATOM     46  C12 NTO d 869     -25.778  20.932 -20.149  0.00  0.00     0.089 C 
ATOM     47  C49 NTO d 869     -10.310  17.996 -24.392  0.00  0.00     0.134 C 
ATOM     48  C53 NTO d 869      -6.854  20.199 -22.796  0.00  0.00     0.067 C 
ATOM     49  O4D NTO d 869      -9.955  16.268 -26.774  0.00  0.00    -0.572 OA
ATOM     50  O3I NTO d 869     -12.099  21.764 -26.127  0.00  0.00    -0.296 OA
ATOM     51  O10 NTO d 869     -26.507  21.718 -21.095  0.00  0.00    -0.390 OA
ATOM     52  O1A NTO d 869     -22.724  25.625 -17.674  0.00  0.00    -0.572 OA
ATOM     53  O5K NTO d 869      -7.382  17.897 -15.243  0.00  0.00    -0.296 OA
ATOM     54  O16 NTO d 869     -23.760  23.630 -18.477  0.00  0.00    -0.254 OA
ATOM     55  O56 NTO d 869      -8.961  22.568 -24.036  0.00  0.00    -0.572 OA
ATOM     56  C43 NTO d 869     -13.175  18.254 -21.455  0.00  0.00     0.206 C 
ATOM     57  O54 NTO d 869      -7.554  21.403 -22.476  0.00  0.00    -0.254 OA
ATOM     58  S55 NTO d 869      -7.602  22.492 -23.405  0.00  0.00     0.251 S 
ATOM     59  O5A NTO d 869      -9.748  17.599 -19.851  0.00  0.00    -0.391 OA
ATOM     60  O4G NTO d 869      -8.854  18.082 -22.478  0.00  0.00    -0.348 OA
ATOM     61  O3C NTO d 869     -14.876  23.240 -22.737  0.00  0.00    -0.572 OA
ATOM     62  O3M NTO d 869     -13.536  19.490 -23.851  0.00  0.00    -0.348 OA
ATOM     63  O44 NTO d 869     -13.346  17.327 -20.622  0.00  0.00    -0.646 OA
ATOM     64  C23 NTO d 869     -21.381  21.858 -22.500  0.00  0.00     0.206 C 
ATOM     65  C41 NTO d 869     -12.096  18.080 -22.512  0.00  0.00     0.152 C 
ATOM     66  O22 NTO d 869     -19.340  20.519 -22.291  0.00  0.00    -0.340 OA
ATOM     67  O1C NTO d 869     -26.622  18.823 -20.981  0.00  0.00    -0.391 OA
ATOM     68  C15 NTO d 869     -24.914  22.925 -18.937  0.00  0.00     0.067 C 
ATOM     69  N3G NTO d 869     -14.368  21.998 -24.968  0.00  0.00    -0.210 NA
ATOM     70  C40 NTO d 869     -12.726  18.309 -23.879  0.00  0.00     0.103 C 
ATOM     71  S1G NTO d 869     -24.892  16.337 -20.079  0.00  0.00     0.156 S 
ATOM     72  O1L NTO d 869     -22.702  20.045 -20.896  0.00  0.00    -0.348 OA
ATOM     73  O57 NTO d 869      -6.572  22.277 -24.474  0.00  0.00    -0.572 OA
ATOM     74  O34 NTO d 869     -17.855  17.143 -24.769  0.00  0.00    -0.254 OA
ATOM     75  O1H NTO d 869     -26.344  16.604 -20.341  0.00  0.00    -0.296 OA
ATOM     76  O27 NTO d 869     -21.142  18.067 -19.432  0.00  0.00    -0.390 OA
ATOM     77  C50 NTO d 869      -8.336  18.819 -21.361  0.00  0.00     0.095 C 
ATOM     78  O3E NTO d 869     -16.163  22.047 -21.033  0.00  0.00    -0.572 OA
ATOM     79  O25 NTO d 869     -22.542  21.910 -22.968  0.00  0.00    -0.646 OA
ATOM     80  S3H NTO d 869     -13.546  22.076 -26.377  0.00  0.00     0.156 S 
ATOM     81  S35 NTO d 869     -18.863  16.133 -24.908  0.00  0.00     0.251 S 
ATOM     82  O1I NTO d 869     -24.671  16.139 -18.608  0.00  0.00    -0.296 OA
ATOM     83  C13 NTO d 869     -24.511  21.691 -19.750  0.00  0.00     0.090 C 
ATOM     84  O58 NTO d 869      -7.313  23.769 -22.677  0.00  0.00    -0.572 OA
ATOM     85  O3A NTO d 869     -16.772  21.907 -23.354  0.00  0.00    -0.247 OA
ATOM     86  C1B NTO d 869     -25.429  19.588 -20.793  0.00  0.00     0.083 C 
ATOM     87  O4C NTO d 869      -8.723  15.891 -24.686  0.00  0.00    -0.572 OA
ATOM     88  O4E NTO d 869      -7.601  16.939 -26.588  0.00  0.00    -0.572 OA
ATOM     89  O36 NTO d 869     -20.110  16.554 -24.189  0.00  0.00    -0.572 OA
ATOM     90  O2A NTO d 869     -18.733  17.238 -20.724  0.00  0.00    -0.388 OA
ATOM     91  C30 NTO d 869     -16.783  19.478 -23.425  0.00  0.00     0.096 C 
ATOM     92  H   NTO d 869     -15.953  20.865 -25.663  0.00  0.00     0.076 H 
ATOM     93  H   NTO d 869      -6.032  19.774 -18.486  0.00  0.00     0.131 H 
ATOM     94  H   NTO d 869      -9.553  19.758 -23.428  0.00  0.00     0.133 H 
ATOM     95  H   NTO d 869     -23.023  17.444 -20.380  0.00  0.00     0.140 HD
ATOM     96  H   NTO d 869      -7.758  20.448 -15.710  0.00  0.00     0.231 HD
ATOM     97  H   NTO d 869     -13.803  19.542 -25.905  0.00  0.00     0.131 H 
ATOM     98  H   NTO d 869     -18.835  19.155 -19.992  0.00  0.00     0.094 H 
ATOM     99  H   NTO d 869     -20.912  20.593 -20.092  0.00  0.00     0.092 H 
ATOM    100  H   NTO d 869     -24.955  18.556 -18.979  0.00  0.00     0.076 H 
ATOM    101  H   NTO d 869     -13.179  23.501 -27.791  0.00  0.00     0.231 HD
ATOM    102  H   NTO d 869     -15.178  18.164 -22.993  0.00  0.00     0.090 H 
ATOM    103  H   NTO d 869     -11.559  19.551 -25.171  0.00  0.00     0.091 H 
ATOM    104  H   NTO d 869      -6.323  18.344 -21.801  0.00  0.00     0.090 H 
ATOM    105  H   NTO d 869      -8.372  19.481 -18.703  0.00  0.00     0.076 H 
ATOM    106  H   NTO d 869      -7.830  17.010 -20.321  0.00  0.00     0.089 H 
ATOM    107  H   NTO d 869     -21.088  19.814 -23.029  0.00  0.00     0.104 H 
ATOM    108  H   NTO d 869     -21.160  17.935 -21.477  0.00  0.00     0.091 H 
ATOM    109  H   NTO d 869     -12.065  16.837 -25.900  0.00  0.00     0.210 HD
ATOM    110  H   NTO d 869     -24.597  15.236 -21.771  0.00  0.00     0.231 HD
ATOM    111  H   NTO d 869      -3.414  17.729 -19.014  0.00  0.00     0.066 H 
ATOM    112  H   NTO d 869      -4.150  18.935 -17.986  0.00  0.00     0.066 H 
ATOM    113  H   NTO d 869      -3.826  19.299 -19.664  0.00  0.00     0.066 H 
ATOM    114  H   NTO d 869     -13.615  21.150 -28.193  0.00  0.00     0.231 HD
ATOM    115  H   NTO d 869      -9.746  19.054 -15.400  0.00  0.00     0.231 HD
ATOM    116  H   NTO d 869     -15.205  20.745 -22.744  0.00  0.00     0.092 H 
ATOM    117  H   NTO d 869     -22.510  19.197 -19.013  0.00  0.00     0.131 H 
ATOM    118  H   NTO d 869     -19.089  18.601 -22.933  0.00  0.00     0.133 H 
ATOM    119  H   NTO d 869      -6.766  17.336 -17.707  0.00  0.00     0.140 HD
ATOM    120  H   NTO d 869     -17.274  16.888 -22.823  0.00  0.00     0.080 H 
ATOM    121  H   NTO d 869     -16.217  16.174 -24.039  0.00  0.00     0.080 H 
ATOM    122  H   NTO d 869     -26.363  20.753 -19.271  0.00  0.00     0.091 H 
ATOM    123  H   NTO d 869     -10.420  16.965 -24.126  0.00  0.00     0.097 H 
ATOM    124  H   NTO d 869      -7.315  19.738 -23.644  0.00  0.00     0.080 H 
ATOM    125  H   NTO d 869      -5.834  20.438 -23.016  0.00  0.00     0.080 H 
ATOM    126  H   NTO d 869     -11.610  21.810 -26.963  0.00  0.00     0.231 HD
ATOM    127  H   NTO d 869     -25.958  21.867 -21.881  0.00  0.00     0.210 HD
ATOM    128  H   NTO d 869      -7.590  18.389 -14.434  0.00  0.00     0.231 HD
ATOM    129  H   NTO d 869     -10.237  18.420 -19.684  0.00  0.00     0.210 HD
ATOM    130  H   NTO d 869     -11.682  17.095 -22.463  0.00  0.00     0.104 H 
ATOM    131  H   NTO d 869     -26.400  17.972 -21.389  0.00  0.00     0.210 HD
ATOM    132  H   NTO d 869     -25.499  23.574 -19.555  0.00  0.00     0.080 H 
ATOM    133  H   NTO d 869     -25.482  22.605 -18.088  0.00  0.00     0.080 H 
ATOM    134  H   NTO d 869     -13.696  21.974 -24.200  0.00  0.00     0.140 HD
ATOM    135  H   NTO d 869     -13.320  17.452 -24.118  0.00  0.00     0.092 H 
ATOM    136  H   NTO d 869     -26.482  16.730 -21.293  0.00  0.00     0.231 HD
ATOM    137  H   NTO d 869     -20.773  18.635 -18.737  0.00  0.00     0.210 HD
ATOM    138  H   NTO d 869      -8.923  19.701 -21.213  0.00  0.00     0.091 H 
ATOM    139  H   NTO d 869     -23.730  15.966 -18.443  0.00  0.00     0.231 HD
ATOM    140  H   NTO d 869     -23.981  21.959 -20.639  0.00  0.00     0.090 H 
ATOM    141  H   NTO d 869     -24.964  19.760 -21.741  0.00  0.00     0.089 H 
ATOM    142  H   NTO d 869     -19.089  16.718 -21.462  0.00  0.00     0.210 HD
ATOM    143  H   NTO d 869     -17.585  19.567 -24.128  0.00  0.00     0.091 H 
ENDROOT
TORSDOF 46
ENDMDL
MODEL 30
REMARK VINA RESULT:      -6.3      3.853      5.750
REMARK  0 active torsions:
REMARK  status: ('A' for Active; 'I' for Inactive)
REMARK       I    between atoms: O4A_2  and  C49_47 
REMARK       I    between atoms: O4A_2  and  S4B_15 
REMARK       I    between atoms: C3F_4  and  N3G_69 
REMARK       I    between atoms: S17_5  and  O16_54 
REMARK       I    between atoms: C5L_6  and  O5M_26 
REMARK       I    between atoms: C4F_7  and  O4G_60 
REMARK       I    between atoms: N1F_9  and  C1E_19 
REMARK       I    between atoms: N1F_9  and  S1G_71 
REMARK       I    between atoms: O5J_11  and  S5H_38 
REMARK       I    between atoms: C3L_12  and  O3M_62 
REMARK       I    between atoms: C29_13  and  O2A_90 
REMARK       I    between atoms: S3B_14  and  O3A_85 
REMARK       I    between atoms: C20_18  and  O1L_72 
REMARK       I    between atoms: O3J_20  and  S3H_80 
REMARK       I    between atoms: C31_23  and  C33_44 
REMARK       I    between atoms: C46_25  and  O47_33 
REMARK       I    between atoms: O5M_26  and  C5N_35 
REMARK       I    between atoms: C51_28  and  C53_48 
REMARK       I    between atoms: C5F_29  and  N5G_43 
REMARK       I    between atoms: C59_30  and  O5A_59 
REMARK       I    between atoms: C21_31  and  C23_64 
REMARK       I    between atoms: C26_32  and  O27_76 
REMARK       I    between atoms: O1J_34  and  S1G_71 
REMARK       I    between atoms: O3K_36  and  S3H_80 
REMARK       I    between atoms: O5I_37  and  S5H_38 
REMARK       I    between atoms: S5H_38  and  O5K_53 
REMARK       I    between atoms: S5H_38  and  N5G_43 
REMARK       I    between atoms: C39_39  and  O3A_85 
REMARK       I    between atoms: C1K_40  and  O1L_72 
REMARK       I    between atoms: C2C_41  and  O2D_45 
REMARK       I    between atoms: C33_44  and  O34_74 
REMARK       I    between atoms: O2D_45  and  C30_91 
REMARK       I    between atoms: C12_46  and  O10_51 
REMARK       I    between atoms: C53_48  and  O54_57 
REMARK       I    between atoms: O3I_50  and  S3H_80 
REMARK       I    between atoms: O16_54  and  C15_68 
REMARK       I    between atoms: C43_56  and  C41_65 
REMARK       I    between atoms: O54_57  and  S55_58 
REMARK       I    between atoms: O4G_60  and  C50_77 
REMARK       I    between atoms: O3M_62  and  C40_70 
REMARK       I    between atoms: O1C_67  and  C1B_86 
REMARK       I    between atoms: C15_68  and  C13_83 
REMARK       I    between atoms: N3G_69  and  S3H_80 
REMARK       I    between atoms: S1G_71  and  O1H_75 
REMARK       I    between atoms: S1G_71  and  O1I_82 
REMARK       I    between atoms: O34_74  and  S35_81 
ROOT
ATOM      1  O42 NTO d 869     -20.836  19.167 -21.987  0.00  0.00    -0.340 OA
ATOM      2  O4A NTO d 869     -23.685  21.408 -21.380  0.00  0.00    -0.244 OA
ATOM      3  O32 NTO d 869     -18.668  21.621 -18.123  0.00  0.00    -0.349 OA
ATOM      4  C3F NTO d 869     -17.408  22.564 -19.945  0.00  0.00     0.083 C 
ATOM      5  S17 NTO d 869      -6.175  18.333 -19.911  0.00  0.00     0.251 S 
ATOM      6  C5L NTO d 869     -23.548  16.195 -25.837  0.00  0.00     0.149 C 
ATOM      7  C4F NTO d 869     -22.128  19.748 -22.221  0.00  0.00     0.161 C 
ATOM      8  O14 NTO d 869      -8.760  17.866 -16.805  0.00  0.00    -0.349 OA
ATOM      9  N1F NTO d 869     -10.709  17.930 -13.675  0.00  0.00    -0.210 NA
ATOM     10  O37 NTO d 869     -17.812  19.642 -13.865  0.00  0.00    -0.572 OA
ATOM     11  O5J NTO d 869     -21.288  14.191 -26.602  0.00  0.00    -0.296 OA
ATOM     12  C3L NTO d 869     -18.775  22.058 -19.487  0.00  0.00     0.150 C 
ATOM     13  C29 NTO d 869     -14.084  18.217 -17.199  0.00  0.00     0.110 C 
ATOM     14  S3B NTO d 869     -14.778  21.247 -21.579  0.00  0.00     0.252 S 
ATOM     15  S4B NTO d 869     -24.813  21.220 -20.520  0.00  0.00     0.252 S 
ATOM     16  O24 NTO d 869     -11.149  21.478 -19.010  0.00  0.00    -0.646 OA
ATOM     17  O45 NTO d 869     -18.193  18.759 -20.761  0.00  0.00    -0.646 OA
ATOM     18  C20 NTO d 869     -11.759  19.075 -16.972  0.00  0.00     0.103 C 
ATOM     19  C1E NTO d 869      -9.502  17.878 -14.509  0.00  0.00     0.081 C 
ATOM     20  O3J NTO d 869     -17.949  25.487 -22.170  0.00  0.00    -0.296 OA
ATOM     21  O38 NTO d 869     -17.254  22.009 -13.538  0.00  0.00    -0.572 OA
ATOM     22  O18 NTO d 869      -6.024  16.842 -19.930  0.00  0.00    -0.572 OA
ATOM     23  C31 NTO d 869     -17.807  20.476 -18.017  0.00  0.00     0.091 C 
ATOM     24  O52 NTO d 869     -23.527  17.618 -26.041  0.00  0.00    -0.349 OA
ATOM     25  C46 NTO d 869     -21.464  21.345 -20.405  0.00  0.00     0.094 C 
ATOM     26  O5M NTO d 869     -24.868  15.697 -25.587  0.00  0.00    -0.364 OA
ATOM     27  O3D NTO d 869     -13.403  21.709 -21.959  0.00  0.00    -0.572 OA
ATOM     28  C51 NTO d 869     -23.811  18.362 -24.845  0.00  0.00     0.091 C 
ATOM     29  C5F NTO d 869     -22.575  15.772 -24.735  0.00  0.00     0.081 C 
ATOM     30  C59 NTO d 869     -22.838  16.560 -23.450  0.00  0.00     0.083 C 
ATOM     31  C21 NTO d 869     -12.327  20.468 -17.199  0.00  0.00     0.152 C 
ATOM     32  C26 NTO d 869     -12.847  18.240 -16.298  0.00  0.00     0.092 C 
ATOM     33  O47 NTO d 869     -21.943  22.098 -19.287  0.00  0.00    -0.390 OA
ATOM     34  O1J NTO d 869     -11.717  17.059 -11.501  0.00  0.00    -0.296 OA
ATOM     35  C5N NTO d 869     -25.535  15.504 -26.839  0.00  0.00     0.007 C 
ATOM     36  O3K NTO d 869     -18.943  24.833 -20.044  0.00  0.00    -0.296 OA
ATOM     37  O5I NTO d 869     -20.330  13.429 -24.480  0.00  0.00    -0.296 OA
ATOM     38  S5H NTO d 869     -21.582  13.502 -25.303  0.00  0.00     0.156 S 
ATOM     39  C39 NTO d 869     -16.440  21.380 -19.909  0.00  0.00     0.108 C 
ATOM     40  C1K NTO d 869      -9.931  17.934 -15.976  0.00  0.00     0.150 C 
ATOM     41  C2C NTO d 869     -14.540  19.642 -17.524  0.00  0.00     0.160 C 
ATOM     42  O19 NTO d 869      -4.852  18.972 -19.608  0.00  0.00    -0.572 OA
ATOM     43  N5G NTO d 869     -22.716  14.332 -24.476  0.00  0.00    -0.210 NA
ATOM     44  C33 NTO d 869     -17.746  20.019 -16.556  0.00  0.00     0.067 C 
ATOM     45  O2D NTO d 869     -15.625  19.575 -18.464  0.00  0.00    -0.348 OA
ATOM     46  C12 NTO d 869      -7.447  19.139 -15.185  0.00  0.00     0.089 C 
ATOM     47  C49 NTO d 869     -22.617  20.537 -21.002  0.00  0.00     0.134 C 
ATOM     48  C53 NTO d 869     -23.720  19.847 -25.203  0.00  0.00     0.067 C 
ATOM     49  O4D NTO d 869     -24.550  21.873 -19.195  0.00  0.00    -0.572 OA
ATOM     50  O3I NTO d 869     -19.804  23.886 -22.136  0.00  0.00    -0.296 OA
ATOM     51  O10 NTO d 869      -6.765  20.384 -15.022  0.00  0.00    -0.390 OA
ATOM     52  O1A NTO d 869      -6.668  18.798 -21.247  0.00  0.00    -0.572 OA
ATOM     53  O5K NTO d 869     -22.078  12.116 -25.592  0.00  0.00    -0.296 OA
ATOM     54  O16 NTO d 869      -7.128  18.702 -18.907  0.00  0.00    -0.254 OA
ATOM     55  O56 NTO d 869     -21.219  22.156 -25.278  0.00  0.00    -0.572 OA
ATOM     56  C43 NTO d 869     -19.268  18.230 -20.397  0.00  0.00     0.206 C 
ATOM     57  O54 NTO d 869     -22.441  20.145 -25.765  0.00  0.00    -0.254 OA
ATOM     58  S55 NTO d 869     -22.137  21.462 -26.240  0.00  0.00     0.251 S 
ATOM     59  O5A NTO d 869     -21.819  16.265 -22.490  0.00  0.00    -0.391 OA
ATOM     60  O4G NTO d 869     -23.119  18.763 -22.548  0.00  0.00    -0.348 OA
ATOM     61  O3C NTO d 869     -15.754  21.709 -22.620  0.00  0.00    -0.572 OA
ATOM     62  O3M NTO d 869     -19.108  20.944 -20.326  0.00  0.00    -0.348 OA
ATOM     63  O44 NTO d 869     -19.344  17.086 -19.879  0.00  0.00    -0.646 OA
ATOM     64  C23 NTO d 869     -11.217  21.341 -17.766  0.00  0.00     0.206 C 
ATOM     65  C41 NTO d 869     -20.553  19.021 -20.584  0.00  0.00     0.152 C 
ATOM     66  O22 NTO d 869     -13.464  20.416 -18.080  0.00  0.00    -0.340 OA
ATOM     67  O1C NTO d 869      -8.129  19.005 -12.868  0.00  0.00    -0.391 OA
ATOM     68  C15 NTO d 869      -6.721  18.881 -17.549  0.00  0.00     0.067 C 
ATOM     69  N3G NTO d 869     -17.510  23.114 -21.309  0.00  0.00    -0.210 NA
ATOM     70  C40 NTO d 869     -20.370  20.387 -19.939  0.00  0.00     0.103 C 
ATOM     71  S1G NTO d 869     -10.499  16.974 -12.373  0.00  0.00     0.156 S 
ATOM     72  O1L NTO d 869     -10.590  19.197 -16.150  0.00  0.00    -0.348 OA
ATOM     73  O57 NTO d 869     -23.408  22.248 -26.364  0.00  0.00    -0.572 OA
ATOM     74  O34 NTO d 869     -17.176  21.025 -15.714  0.00  0.00    -0.254 OA
ATOM     75  O1H NTO d 869      -9.290  17.428 -11.611  0.00  0.00    -0.296 OA
ATOM     76  O27 NTO d 869     -12.383  16.900 -16.104  0.00  0.00    -0.390 OA
ATOM     77  C50 NTO d 869     -22.795  18.057 -23.755  0.00  0.00     0.095 C 
ATOM     78  O3E NTO d 869     -14.802  19.748 -21.512  0.00  0.00    -0.572 OA
ATOM     79  O25 NTO d 869     -10.416  21.865 -16.957  0.00  0.00    -0.646 OA
ATOM     80  S3H NTO d 869     -18.573  24.350 -21.414  0.00  0.00     0.156 S 
ATOM     81  S35 NTO d 869     -16.939  20.772 -14.323  0.00  0.00     0.251 S 
ATOM     82  O1I NTO d 869     -10.308  15.556 -12.828  0.00  0.00    -0.296 OA
ATOM     83  C13 NTO d 869      -7.937  19.030 -16.631  0.00  0.00     0.090 C 
ATOM     84  O58 NTO d 869     -21.477  21.359 -27.581  0.00  0.00    -0.572 OA
ATOM     85  O3A NTO d 869     -15.130  21.801 -20.306  0.00  0.00    -0.247 OA
ATOM     86  C1B NTO d 869      -8.624  19.093 -14.206  0.00  0.00     0.083 C 
ATOM     87  O4C NTO d 869     -25.057  19.753 -20.322  0.00  0.00    -0.572 OA
ATOM     88  O4E NTO d 869     -26.017  21.839 -21.162  0.00  0.00    -0.572 OA
ATOM     89  O36 NTO d 869     -15.501  20.404 -14.109  0.00  0.00    -0.572 OA
ATOM     90  O2A NTO d 869     -15.138  17.516 -16.537  0.00  0.00    -0.388 OA
ATOM     91  C30 NTO d 869     -16.396  20.787 -18.497  0.00  0.00     0.096 C 
ATOM     92  H   NTO d 869     -17.055  23.344 -19.303  0.00  0.00     0.076 H 
ATOM     93  H   NTO d 869     -23.218  15.751 -26.752  0.00  0.00     0.131 H 
ATOM     94  H   NTO d 869     -22.003  20.406 -23.055  0.00  0.00     0.133 H 
ATOM     95  H   NTO d 869     -11.510  17.603 -14.215  0.00  0.00     0.140 HD
ATOM     96  H   NTO d 869     -20.612  13.692 -27.088  0.00  0.00     0.231 HD
ATOM     97  H   NTO d 869     -19.523  22.821 -19.552  0.00  0.00     0.131 H 
ATOM     98  H   NTO d 869     -13.836  17.721 -18.114  0.00  0.00     0.094 H 
ATOM     99  H   NTO d 869     -11.474  18.596 -17.885  0.00  0.00     0.092 H 
ATOM    100  H   NTO d 869      -8.954  16.981 -14.310  0.00  0.00     0.076 H 
ATOM    101  H   NTO d 869     -18.581  26.220 -22.232  0.00  0.00     0.231 HD
ATOM    102  H   NTO d 869     -18.212  19.704 -18.637  0.00  0.00     0.090 H 
ATOM    103  H   NTO d 869     -21.070  22.012 -21.143  0.00  0.00     0.091 H 
ATOM    104  H   NTO d 869     -24.781  18.097 -24.479  0.00  0.00     0.090 H 
ATOM    105  H   NTO d 869     -21.578  15.980 -25.061  0.00  0.00     0.076 H 
ATOM    106  H   NTO d 869     -23.798  16.288 -23.064  0.00  0.00     0.089 H 
ATOM    107  H   NTO d 869     -12.672  20.885 -16.276  0.00  0.00     0.104 H 
ATOM    108  H   NTO d 869     -13.089  18.669 -15.349  0.00  0.00     0.091 H 
ATOM    109  H   NTO d 869     -22.300  21.492 -18.618  0.00  0.00     0.210 HD
ATOM    110  H   NTO d 869     -11.840  17.975 -11.208  0.00  0.00     0.231 HD
ATOM    111  H   NTO d 869     -26.523  15.131 -26.663  0.00  0.00     0.066 H 
ATOM    112  H   NTO d 869     -24.988  14.799 -27.430  0.00  0.00     0.066 H 
ATOM    113  H   NTO d 869     -25.593  16.437 -27.360  0.00  0.00     0.066 H 
ATOM    114  H   NTO d 869     -19.574  25.566 -20.118  0.00  0.00     0.231 HD
ATOM    115  H   NTO d 869     -19.651  12.936 -24.968  0.00  0.00     0.231 HD
ATOM    116  H   NTO d 869     -16.781  20.630 -20.592  0.00  0.00     0.092 H 
ATOM    117  H   NTO d 869     -10.578  17.124 -16.241  0.00  0.00     0.131 H 
ATOM    118  H   NTO d 869     -14.857  20.121 -16.622  0.00  0.00     0.133 H 
ATOM    119  H   NTO d 869     -23.642  14.024 -24.772  0.00  0.00     0.140 HD
ATOM    120  H   NTO d 869     -17.148  19.134 -16.494  0.00  0.00     0.080 H 
ATOM    121  H   NTO d 869     -18.745  19.829 -16.222  0.00  0.00     0.080 H 
ATOM    122  H   NTO d 869      -6.795  18.316 -14.980  0.00  0.00     0.091 H 
ATOM    123  H   NTO d 869     -22.975  19.850 -20.265  0.00  0.00     0.097 H 
ATOM    124  H   NTO d 869     -23.862  20.432 -24.319  0.00  0.00     0.080 H 
ATOM    125  H   NTO d 869     -24.478  20.078 -25.923  0.00  0.00     0.080 H 
ATOM    126  H   NTO d 869     -20.437  24.619 -22.199  0.00  0.00     0.231 HD
ATOM    127  H   NTO d 869      -7.375  21.114 -15.212  0.00  0.00     0.210 HD
ATOM    128  H   NTO d 869     -21.400  11.626 -26.084  0.00  0.00     0.231 HD
ATOM    129  H   NTO d 869     -20.954  16.515 -22.849  0.00  0.00     0.210 HD
ATOM    130  H   NTO d 869     -21.375  18.510 -20.127  0.00  0.00     0.104 H 
ATOM    131  H   NTO d 869      -8.874  18.976 -12.248  0.00  0.00     0.210 HD
ATOM    132  H   NTO d 869      -6.118  19.763 -17.478  0.00  0.00     0.080 H 
ATOM    133  H   NTO d 869      -6.163  18.021 -17.243  0.00  0.00     0.080 H 
ATOM    134  H   NTO d 869     -17.811  22.371 -21.940  0.00  0.00     0.140 HD
ATOM    135  H   NTO d 869     -20.416  20.262 -18.878  0.00  0.00     0.092 H 
ATOM    136  H   NTO d 869      -9.418  18.344 -11.319  0.00  0.00     0.231 HD
ATOM    137  H   NTO d 869     -12.162  16.506 -16.963  0.00  0.00     0.210 HD
ATOM    138  H   NTO d 869     -21.826  18.358 -24.095  0.00  0.00     0.091 H 
ATOM    139  H   NTO d 869     -11.092  15.266 -13.320  0.00  0.00     0.231 HD
ATOM    140  H   NTO d 869      -8.504  19.907 -16.864  0.00  0.00     0.090 H 
ATOM    141  H   NTO d 869      -9.207  19.983 -14.312  0.00  0.00     0.089 H 
ATOM    142  H   NTO d 869     -15.358  17.970 -15.709  0.00  0.00     0.210 HD
ATOM    143  H   NTO d 869     -15.936  21.510 -17.856  0.00  0.00     0.091 H 
ENDROOT
TORSDOF 46
ENDMDL
MODEL 31
REMARK VINA RESULT:      -6.2      2.953     13.993
REMARK  0 active torsions:
REMARK  status: ('A' for Active; 'I' for Inactive)
REMARK       I    between atoms: O4A_2  and  C49_47 
REMARK       I    between atoms: O4A_2  and  S4B_15 
REMARK       I    between atoms: C3F_4  and  N3G_69 
REMARK       I    between atoms: S17_5  and  O16_54 
REMARK       I    between atoms: C5L_6  and  O5M_26 
REMARK       I    between atoms: C4F_7  and  O4G_60 
REMARK       I    between atoms: N1F_9  and  C1E_19 
REMARK       I    between atoms: N1F_9  and  S1G_71 
REMARK       I    between atoms: O5J_11  and  S5H_38 
REMARK       I    between atoms: C3L_12  and  O3M_62 
REMARK       I    between atoms: C29_13  and  O2A_90 
REMARK       I    between atoms: S3B_14  and  O3A_85 
REMARK       I    between atoms: C20_18  and  O1L_72 
REMARK       I    between atoms: O3J_20  and  S3H_80 
REMARK       I    between atoms: C31_23  and  C33_44 
REMARK       I    between atoms: C46_25  and  O47_33 
REMARK       I    between atoms: O5M_26  and  C5N_35 
REMARK       I    between atoms: C51_28  and  C53_48 
REMARK       I    between atoms: C5F_29  and  N5G_43 
REMARK       I    between atoms: C59_30  and  O5A_59 
REMARK       I    between atoms: C21_31  and  C23_64 
REMARK       I    between atoms: C26_32  and  O27_76 
REMARK       I    between atoms: O1J_34  and  S1G_71 
REMARK       I    between atoms: O3K_36  and  S3H_80 
REMARK       I    between atoms: O5I_37  and  S5H_38 
REMARK       I    between atoms: S5H_38  and  O5K_53 
REMARK       I    between atoms: S5H_38  and  N5G_43 
REMARK       I    between atoms: C39_39  and  O3A_85 
REMARK       I    between atoms: C1K_40  and  O1L_72 
REMARK       I    between atoms: C2C_41  and  O2D_45 
REMARK       I    between atoms: C33_44  and  O34_74 
REMARK       I    between atoms: O2D_45  and  C30_91 
REMARK       I    between atoms: C12_46  and  O10_51 
REMARK       I    between atoms: C53_48  and  O54_57 
REMARK       I    between atoms: O3I_50  and  S3H_80 
REMARK       I    between atoms: O16_54  and  C15_68 
REMARK       I    between atoms: C43_56  and  C41_65 
REMARK       I    between atoms: O54_57  and  S55_58 
REMARK       I    between atoms: O4G_60  and  C50_77 
REMARK       I    between atoms: O3M_62  and  C40_70 
REMARK       I    between atoms: O1C_67  and  C1B_86 
REMARK       I    between atoms: C15_68  and  C13_83 
REMARK       I    between atoms: N3G_69  and  S3H_80 
REMARK       I    between atoms: S1G_71  and  O1H_75 
REMARK       I    between atoms: S1G_71  and  O1I_82 
REMARK       I    between atoms: O34_74  and  S35_81 
ROOT
ATOM      1  O42 NTO d 869     -12.319  19.691 -20.143  0.00  0.00    -0.340 OA
ATOM      2  O4A NTO d 869     -10.971  23.073 -19.638  0.00  0.00    -0.244 OA
ATOM      3  O32 NTO d 869     -16.797  22.028 -20.524  0.00  0.00    -0.349 OA
ATOM      4  C3F NTO d 869     -17.052  21.039 -18.343  0.00  0.00     0.083 C 
ATOM      5  S17 NTO d 869     -24.901  11.966 -18.740  0.00  0.00     0.251 S 
ATOM      6  C5L NTO d 869      -7.280  17.324 -20.261  0.00  0.00     0.149 C 
ATOM      7  C4F NTO d 869     -11.316  20.683 -19.877  0.00  0.00     0.161 C 
ATOM      8  O14 NTO d 869     -24.417  14.651 -21.758  0.00  0.00    -0.349 OA
ATOM      9  N1F NTO d 869     -24.591  17.342 -24.272  0.00  0.00    -0.210 NA
ATOM     10  O37 NTO d 869     -19.284  22.358 -24.585  0.00  0.00    -0.572 OA
ATOM     11  O5J NTO d 869      -8.136  14.351 -20.630  0.00  0.00    -0.296 OA
ATOM     12  C3L NTO d 869     -16.082  21.698 -19.323  0.00  0.00     0.150 C 
ATOM     13  C29 NTO d 869     -20.057  17.667 -22.476  0.00  0.00     0.110 C 
ATOM     14  S3B NTO d 869     -17.908  17.882 -17.559  0.00  0.00     0.252 S 
ATOM     15  S4B NTO d 869     -10.494  24.008 -20.610  0.00  0.00     0.252 S 
ATOM     16  O24 NTO d 869     -22.258  17.282 -18.289  0.00  0.00    -0.646 OA
ATOM     17  O45 NTO d 869     -14.985  18.553 -20.645  0.00  0.00    -0.646 OA
ATOM     18  C20 NTO d 869     -22.256  17.047 -21.490  0.00  0.00     0.103 C 
ATOM     19  C1E NTO d 869     -25.083  16.217 -23.467  0.00  0.00     0.081 C 
ATOM     20  O3J NTO d 869     -16.174  22.171 -14.918  0.00  0.00    -0.296 OA
ATOM     21  O38 NTO d 869     -20.527  23.776 -23.015  0.00  0.00    -0.572 OA
ATOM     22  O18 NTO d 869     -24.620  10.885 -19.739  0.00  0.00    -0.572 OA
ATOM     23  C31 NTO d 869     -17.240  20.840 -21.200  0.00  0.00     0.091 C 
ATOM     24  O52 NTO d 869      -7.558  18.153 -19.121  0.00  0.00    -0.349 OA
ATOM     25  C46 NTO d 869     -13.254  22.274 -19.826  0.00  0.00     0.094 C 
ATOM     26  O5M NTO d 869      -6.235  17.857 -21.084  0.00  0.00    -0.364 OA
ATOM     27  O3D NTO d 869     -18.915  17.229 -16.661  0.00  0.00    -0.572 OA
ATOM     28  C51 NTO d 869      -8.180  19.401 -19.470  0.00  0.00     0.091 C 
ATOM     29  C5F NTO d 869      -8.545  17.048 -21.076  0.00  0.00     0.081 C 
ATOM     30  C59 NTO d 869      -9.244  18.357 -21.450  0.00  0.00     0.083 C 
ATOM     31  C21 NTO d 869     -22.045  18.174 -20.491  0.00  0.00     0.152 C 
ATOM     32  C26 NTO d 869     -21.539  17.438 -22.782  0.00  0.00     0.092 C 
ATOM     33  O47 NTO d 869     -13.681  23.597 -20.162  0.00  0.00    -0.390 OA
ATOM     34  O1J NTO d 869     -24.747  18.412 -26.581  0.00  0.00    -0.296 OA
ATOM     35  C5N NTO d 869      -4.971  17.480 -20.531  0.00  0.00     0.007 C 
ATOM     36  O3K NTO d 869     -16.371  23.353 -17.039  0.00  0.00    -0.296 OA
ATOM     37  O5I NTO d 869      -9.856  14.366 -22.373  0.00  0.00    -0.296 OA
ATOM     38  S5H NTO d 869      -8.430  14.705 -22.057  0.00  0.00     0.156 S 
ATOM     39  C39 NTO d 869     -17.533  19.732 -18.975  0.00  0.00     0.108 C 
ATOM     40  C1K NTO d 869     -23.955  15.764 -22.539  0.00  0.00     0.150 C 
ATOM     41  C2C NTO d 869     -19.891  18.704 -21.362  0.00  0.00     0.160 C 
ATOM     42  O19 NTO d 869     -26.287  11.800 -18.190  0.00  0.00    -0.572 OA
ATOM     43  N5G NTO d 869      -8.197  16.302 -22.295  0.00  0.00    -0.210 NA
ATOM     44  C33 NTO d 869     -17.966  21.230 -22.491  0.00  0.00     0.067 C 
ATOM     45  O2D NTO d 869     -18.496  18.799 -21.026  0.00  0.00    -0.348 OA
ATOM     46  C12 NTO d 869     -26.680  15.566 -21.653  0.00  0.00     0.089 C 
ATOM     47  C49 NTO d 869     -11.799  22.086 -20.257  0.00  0.00     0.134 C 
ATOM     48  C53 NTO d 869      -8.447  20.155 -18.165  0.00  0.00     0.067 C 
ATOM     49  O4D NTO d 869     -11.597  24.953 -20.984  0.00  0.00    -0.572 OA
ATOM     50  O3I NTO d 869     -14.296  22.166 -16.492  0.00  0.00    -0.296 OA
ATOM     51  O10 NTO d 869     -27.638  16.090 -20.731  0.00  0.00    -0.390 OA
ATOM     52  O1A NTO d 869     -23.901  11.885 -17.627  0.00  0.00    -0.572 OA
ATOM     53  O5K NTO d 869      -7.514  13.921 -22.950  0.00  0.00    -0.296 OA
ATOM     54  O16 NTO d 869     -24.787  13.244 -19.377  0.00  0.00    -0.254 OA
ATOM     55  O56 NTO d 869     -11.001  20.247 -15.917  0.00  0.00    -0.572 OA
ATOM     56  C43 NTO d 869     -14.189  18.985 -21.510  0.00  0.00     0.206 C 
ATOM     57  O54 NTO d 869      -9.236  19.357 -17.282  0.00  0.00    -0.254 OA
ATOM     58  S55 NTO d 869      -9.564  19.823 -15.968  0.00  0.00     0.251 S 
ATOM     59  O5A NTO d 869     -10.502  18.070 -22.068  0.00  0.00    -0.391 OA
ATOM     60  O4G NTO d 869     -10.090  20.423 -20.576  0.00  0.00    -0.348 OA
ATOM     61  O3C NTO d 869     -16.684  18.215 -16.759  0.00  0.00    -0.572 OA
ATOM     62  O3M NTO d 869     -15.067  20.728 -19.616  0.00  0.00    -0.348 OA
ATOM     63  O44 NTO d 869     -14.112  18.528 -22.680  0.00  0.00    -0.646 OA
ATOM     64  C23 NTO d 869     -22.848  17.849 -19.240  0.00  0.00     0.206 C 
ATOM     65  C41 NTO d 869     -13.272  20.135 -21.126  0.00  0.00     0.152 C 
ATOM     66  O22 NTO d 869     -20.646  18.338 -20.196  0.00  0.00    -0.340 OA
ATOM     67  O1C NTO d 869     -27.367  17.012 -23.466  0.00  0.00    -0.391 OA
ATOM     68  C15 NTO d 869     -25.899  13.811 -20.073  0.00  0.00     0.067 C 
ATOM     69  N3G NTO d 869     -16.371  20.782 -17.061  0.00  0.00    -0.210 NA
ATOM     70  C40 NTO d 869     -14.128  21.259 -20.559  0.00  0.00     0.103 C 
ATOM     71  S1G NTO d 869     -25.218  17.240 -25.772  0.00  0.00     0.156 S 
ATOM     72  O1L NTO d 869     -23.667  16.882 -21.688  0.00  0.00    -0.348 OA
ATOM     73  O57 NTO d 869      -8.690  20.993 -15.626  0.00  0.00    -0.572 OA
ATOM     74  O34 NTO d 869     -19.143  21.997 -22.220  0.00  0.00    -0.254 OA
ATOM     75  O1H NTO d 869     -26.715  17.243 -25.687  0.00  0.00    -0.296 OA
ATOM     76  O27 NTO d 869     -21.663  16.388 -23.745  0.00  0.00    -0.390 OA
ATOM     77  C50 NTO d 869      -9.504  19.173 -20.184  0.00  0.00     0.095 C 
ATOM     78  O3E NTO d 869     -17.533  16.936 -18.662  0.00  0.00    -0.572 OA
ATOM     79  O25 NTO d 869     -24.065  18.151 -19.232  0.00  0.00    -0.646 OA
ATOM     80  S3H NTO d 869     -15.792  22.143 -16.368  0.00  0.00     0.156 S 
ATOM     81  S35 NTO d 869     -20.025  22.389 -23.281  0.00  0.00     0.251 S 
ATOM     82  O1I NTO d 869     -24.751  15.967 -26.417  0.00  0.00    -0.296 OA
ATOM     83  C13 NTO d 869     -25.472  15.048 -20.868  0.00  0.00     0.090 C 
ATOM     84  O58 NTO d 869      -9.330  18.717 -14.984  0.00  0.00    -0.572 OA
ATOM     85  O3A NTO d 869     -18.468  19.079 -18.109  0.00  0.00    -0.247 OA
ATOM     86  C1B NTO d 869     -26.266  16.681 -22.617  0.00  0.00     0.083 C 
ATOM     87  O4C NTO d 869     -10.023  23.271 -21.829  0.00  0.00    -0.572 OA
ATOM     88  O4E NTO d 869      -9.347  24.772 -20.021  0.00  0.00    -0.572 OA
ATOM     89  O36 NTO d 869     -21.189  21.447 -23.351  0.00  0.00    -0.572 OA
ATOM     90  O2A NTO d 869     -19.396  18.123 -23.657  0.00  0.00    -0.388 OA
ATOM     91  C30 NTO d 869     -18.183  20.017 -20.333  0.00  0.00     0.096 C 
ATOM     92  H   NTO d 869     -17.888  21.678 -18.147  0.00  0.00     0.076 H 
ATOM     93  H   NTO d 869      -6.927  16.390 -19.880  0.00  0.00     0.131 H 
ATOM     94  H   NTO d 869     -11.133  20.633 -18.824  0.00  0.00     0.133 H 
ATOM     95  H   NTO d 869     -23.573  17.305 -24.324  0.00  0.00     0.140 HD
ATOM     96  H   NTO d 869      -8.278  13.400 -20.497  0.00  0.00     0.231 HD
ATOM     97  H   NTO d 869     -15.651  22.590 -18.916  0.00  0.00     0.131 H 
ATOM     98  H   NTO d 869     -19.626  16.744 -22.151  0.00  0.00     0.094 H 
ATOM     99  H   NTO d 869     -21.859  16.116 -21.145  0.00  0.00     0.092 H 
ATOM    100  H   NTO d 869     -25.392  15.415 -24.105  0.00  0.00     0.076 H 
ATOM    101  H   NTO d 869     -15.829  22.979 -14.508  0.00  0.00     0.231 HD
ATOM    102  H   NTO d 869     -16.377  20.246 -21.417  0.00  0.00     0.090 H 
ATOM    103  H   NTO d 869     -13.339  22.127 -18.770  0.00  0.00     0.091 H 
ATOM    104  H   NTO d 869      -7.539  19.951 -20.126  0.00  0.00     0.090 H 
ATOM    105  H   NTO d 869      -9.215  16.465 -20.481  0.00  0.00     0.076 H 
ATOM    106  H   NTO d 869      -8.620  18.907 -22.123  0.00  0.00     0.089 H 
ATOM    107  H   NTO d 869     -22.384  19.104 -20.899  0.00  0.00     0.104 H 
ATOM    108  H   NTO d 869     -21.977  18.331 -23.176  0.00  0.00     0.091 H 
ATOM    109  H   NTO d 869     -13.603  23.729 -21.120  0.00  0.00     0.210 HD
ATOM    110  H   NTO d 869     -25.050  19.234 -26.165  0.00  0.00     0.231 HD
ATOM    111  H   NTO d 869      -4.183  17.873 -21.139  0.00  0.00     0.066 H 
ATOM    112  H   NTO d 869      -4.899  16.413 -20.500  0.00  0.00     0.066 H 
ATOM    113  H   NTO d 869      -4.885  17.871 -19.538  0.00  0.00     0.066 H 
ATOM    114  H   NTO d 869     -16.021  24.154 -16.620  0.00  0.00     0.231 HD
ATOM    115  H   NTO d 869     -10.001  13.417 -22.234  0.00  0.00     0.231 HD
ATOM    116  H   NTO d 869     -16.691  19.086 -19.120  0.00  0.00     0.092 H 
ATOM    117  H   NTO d 869     -23.083  15.458 -23.079  0.00  0.00     0.131 H 
ATOM    118  H   NTO d 869     -20.256  19.648 -21.708  0.00  0.00     0.133 H 
ATOM    119  H   NTO d 869      -7.218  16.470 -22.525  0.00  0.00     0.140 HD
ATOM    120  H   NTO d 869     -18.244  20.340 -23.016  0.00  0.00     0.080 H 
ATOM    121  H   NTO d 869     -17.303  21.830 -23.081  0.00  0.00     0.080 H 
ATOM    122  H   NTO d 869     -27.095  14.758 -22.218  0.00  0.00     0.091 H 
ATOM    123  H   NTO d 869     -11.736  22.199 -21.319  0.00  0.00     0.097 H 
ATOM    124  H   NTO d 869      -8.970  21.062 -18.383  0.00  0.00     0.080 H 
ATOM    125  H   NTO d 869      -7.511  20.374 -17.693  0.00  0.00     0.080 H 
ATOM    126  H   NTO d 869     -13.950  22.974 -16.082  0.00  0.00     0.231 HD
ATOM    127  H   NTO d 869     -27.240  16.820 -20.231  0.00  0.00     0.210 HD
ATOM    128  H   NTO d 869      -7.656  12.972 -22.805  0.00  0.00     0.231 HD
ATOM    129  H   NTO d 869     -11.059  17.572 -21.451  0.00  0.00     0.210 HD
ATOM    130  H   NTO d 869     -12.733  20.484 -21.982  0.00  0.00     0.104 H 
ATOM    131  H   NTO d 869     -27.104  17.719 -24.076  0.00  0.00     0.210 HD
ATOM    132  H   NTO d 869     -26.649  14.093 -19.363  0.00  0.00     0.080 H 
ATOM    133  H   NTO d 869     -26.285  13.082 -20.755  0.00  0.00     0.080 H 
ATOM    134  H   NTO d 869     -15.592  20.144 -17.228  0.00  0.00     0.140 HD
ATOM    135  H   NTO d 869     -14.638  21.730 -21.373  0.00  0.00     0.092 H 
ATOM    136  H   NTO d 869     -27.013  18.067 -25.271  0.00  0.00     0.231 HD
ATOM    137  H   NTO d 869     -21.267  15.576 -23.392  0.00  0.00     0.210 HD
ATOM    138  H   NTO d 869     -10.168  18.661 -19.520  0.00  0.00     0.091 H 
ATOM    139  H   NTO d 869     -23.782  15.969 -26.470  0.00  0.00     0.231 HD
ATOM    140  H   NTO d 869     -25.123  15.830 -20.227  0.00  0.00     0.090 H 
ATOM    141  H   NTO d 869     -25.977  17.545 -22.055  0.00  0.00     0.089 H 
ATOM    142  H   NTO d 869     -19.792  18.959 -23.948  0.00  0.00     0.210 HD
ATOM    143  H   NTO d 869     -19.088  20.558 -20.150  0.00  0.00     0.091 H 
ENDROOT
TORSDOF 46
ENDMDL
MODEL 32
REMARK VINA RESULT:      -6.2      2.669     13.991
REMARK  0 active torsions:
REMARK  status: ('A' for Active; 'I' for Inactive)
REMARK       I    between atoms: O4A_2  and  C49_47 
REMARK       I    between atoms: O4A_2  and  S4B_15 
REMARK       I    between atoms: C3F_4  and  N3G_69 
REMARK       I    between atoms: S17_5  and  O16_54 
REMARK       I    between atoms: C5L_6  and  O5M_26 
REMARK       I    between atoms: C4F_7  and  O4G_60 
REMARK       I    between atoms: N1F_9  and  C1E_19 
REMARK       I    between atoms: N1F_9  and  S1G_71 
REMARK       I    between atoms: O5J_11  and  S5H_38 
REMARK       I    between atoms: C3L_12  and  O3M_62 
REMARK       I    between atoms: C29_13  and  O2A_90 
REMARK       I    between atoms: S3B_14  and  O3A_85 
REMARK       I    between atoms: C20_18  and  O1L_72 
REMARK       I    between atoms: O3J_20  and  S3H_80 
REMARK       I    between atoms: C31_23  and  C33_44 
REMARK       I    between atoms: C46_25  and  O47_33 
REMARK       I    between atoms: O5M_26  and  C5N_35 
REMARK       I    between atoms: C51_28  and  C53_48 
REMARK       I    between atoms: C5F_29  and  N5G_43 
REMARK       I    between atoms: C59_30  and  O5A_59 
REMARK       I    between atoms: C21_31  and  C23_64 
REMARK       I    between atoms: C26_32  and  O27_76 
REMARK       I    between atoms: O1J_34  and  S1G_71 
REMARK       I    between atoms: O3K_36  and  S3H_80 
REMARK       I    between atoms: O5I_37  and  S5H_38 
REMARK       I    between atoms: S5H_38  and  O5K_53 
REMARK       I    between atoms: S5H_38  and  N5G_43 
REMARK       I    between atoms: C39_39  and  O3A_85 
REMARK       I    between atoms: C1K_40  and  O1L_72 
REMARK       I    between atoms: C2C_41  and  O2D_45 
REMARK       I    between atoms: C33_44  and  O34_74 
REMARK       I    between atoms: O2D_45  and  C30_91 
REMARK       I    between atoms: C12_46  and  O10_51 
REMARK       I    between atoms: C53_48  and  O54_57 
REMARK       I    between atoms: O3I_50  and  S3H_80 
REMARK       I    between atoms: O16_54  and  C15_68 
REMARK       I    between atoms: C43_56  and  C41_65 
REMARK       I    between atoms: O54_57  and  S55_58 
REMARK       I    between atoms: O4G_60  and  C50_77 
REMARK       I    between atoms: O3M_62  and  C40_70 
REMARK       I    between atoms: O1C_67  and  C1B_86 
REMARK       I    between atoms: C15_68  and  C13_83 
REMARK       I    between atoms: N3G_69  and  S3H_80 
REMARK       I    between atoms: S1G_71  and  O1H_75 
REMARK       I    between atoms: S1G_71  and  O1I_82 
REMARK       I    between atoms: O34_74  and  S35_81 
ROOT
ATOM      1  O42 NTO d 869      -8.964  19.392 -19.976  0.00  0.00    -0.340 OA
ATOM      2  O4A NTO d 869      -7.403  22.501 -21.162  0.00  0.00    -0.244 OA
ATOM      3  O32 NTO d 869     -13.336  21.825 -20.761  0.00  0.00    -0.349 OA
ATOM      4  C3F NTO d 869     -13.279  21.883 -18.355  0.00  0.00     0.083 C 
ATOM      5  S17 NTO d 869     -21.484  14.410 -13.781  0.00  0.00     0.251 S 
ATOM      6  C5L NTO d 869      -4.120  16.659 -19.694  0.00  0.00     0.149 C 
ATOM      7  C4F NTO d 869      -7.888  20.287 -20.295  0.00  0.00     0.161 C 
ATOM      8  O14 NTO d 869     -21.375  15.500 -17.699  0.00  0.00    -0.349 OA
ATOM      9  N1F NTO d 869     -21.834  16.882 -21.086  0.00  0.00    -0.210 NA
ATOM     10  O37 NTO d 869     -16.429  20.682 -24.212  0.00  0.00    -0.572 OA
ATOM     11  O5J NTO d 869      -5.156  13.921 -18.625  0.00  0.00    -0.296 OA
ATOM     12  C3L NTO d 869     -12.452  21.957 -19.637  0.00  0.00     0.150 C 
ATOM     13  C29 NTO d 869     -17.059  17.434 -20.200  0.00  0.00     0.110 C 
ATOM     14  S3B NTO d 869     -14.136  19.466 -16.178  0.00  0.00     0.252 S 
ATOM     15  S4B NTO d 869      -7.048  22.880 -22.495  0.00  0.00     0.252 S 
ATOM     16  O24 NTO d 869     -18.570  19.095 -16.018  0.00  0.00    -0.646 OA
ATOM     17  O45 NTO d 869     -11.723  18.448 -19.592  0.00  0.00    -0.646 OA
ATOM     18  C20 NTO d 869     -19.095  17.533 -18.773  0.00  0.00     0.103 C 
ATOM     19  C1E NTO d 869     -22.239  16.262 -19.819  0.00  0.00     0.081 C 
ATOM     20  O3J NTO d 869     -11.810  24.249 -15.900  0.00  0.00    -0.296 OA
ATOM     21  O38 NTO d 869     -17.338  22.757 -23.269  0.00  0.00    -0.572 OA
ATOM     22  O18 NTO d 869     -21.416  12.984 -14.239  0.00  0.00    -0.572 OA
ATOM     23  C31 NTO d 869     -13.935  20.520 -20.794  0.00  0.00     0.091 C 
ATOM     24  O52 NTO d 869      -4.173  17.917 -19.000  0.00  0.00    -0.349 OA
ATOM     25  C46 NTO d 869      -9.720  21.952 -20.694  0.00  0.00     0.094 C 
ATOM     26  O5M NTO d 869      -3.199  16.677 -20.791  0.00  0.00    -0.364 OA
ATOM     27  O3D NTO d 869     -15.013  19.367 -14.965  0.00  0.00    -0.572 OA
ATOM     28  C51 NTO d 869      -4.788  18.960 -19.774  0.00  0.00     0.091 C 
ATOM     29  C5F NTO d 869      -5.511  16.206 -20.141  0.00  0.00     0.081 C 
ATOM     30  C59 NTO d 869      -6.202  17.303 -20.953  0.00  0.00     0.083 C 
ATOM     31  C21 NTO d 869     -18.676  18.946 -18.396  0.00  0.00     0.152 C 
ATOM     32  C26 NTO d 869     -18.580  17.262 -20.185  0.00  0.00     0.092 C 
ATOM     33  O47 NTO d 869     -10.136  23.049 -21.513  0.00  0.00    -0.390 OA
ATOM     34  O1J NTO d 869     -22.313  16.887 -23.591  0.00  0.00    -0.296 OA
ATOM     35  C5N NTO d 869      -1.880  16.432 -20.294  0.00  0.00     0.007 C 
ATOM     36  O3K NTO d 869     -12.295  24.441 -18.280  0.00  0.00    -0.296 OA
ATOM     37  O5I NTO d 869      -7.132  13.388 -19.969  0.00  0.00    -0.296 OA
ATOM     38  S5H NTO d 869      -5.660  13.670 -20.015  0.00  0.00     0.156 S 
ATOM     39  C39 NTO d 869     -13.913  20.492 -18.290  0.00  0.00     0.108 C 
ATOM     40  C1K NTO d 869     -20.997  16.122 -18.937  0.00  0.00     0.150 C 
ATOM     41  C2C NTO d 869     -16.669  18.819 -19.676  0.00  0.00     0.160 C 
ATOM     42  O19 NTO d 869     -22.769  14.644 -13.043  0.00  0.00    -0.572 OA
ATOM     43  N5G NTO d 869      -5.398  14.982 -20.948  0.00  0.00    -0.210 NA
ATOM     44  C33 NTO d 869     -14.842  20.406 -22.022  0.00  0.00     0.067 C 
ATOM     45  O2D NTO d 869     -15.236  18.893 -19.595  0.00  0.00    -0.348 OA
ATOM     46  C12 NTO d 869     -23.548  16.616 -17.715  0.00  0.00     0.089 C 
ATOM     47  C49 NTO d 869      -8.363  21.442 -21.181  0.00  0.00     0.134 C 
ATOM     48  C53 NTO d 869      -4.806  20.218 -18.903  0.00  0.00     0.067 C 
ATOM     49  O4D NTO d 869      -8.155  23.694 -23.098  0.00  0.00    -0.572 OA
ATOM     50  O3I NTO d 869     -10.213  23.375 -17.541  0.00  0.00    -0.296 OA
ATOM     51  O10 NTO d 869     -24.321  17.581 -16.998  0.00  0.00    -0.390 OA
ATOM     52  O1A NTO d 869     -20.322  14.697 -12.879  0.00  0.00    -0.572 OA
ATOM     53  O5K NTO d 869      -4.936  12.488 -20.587  0.00  0.00    -0.296 OA
ATOM     54  O16 NTO d 869     -21.418  15.278 -14.918  0.00  0.00    -0.254 OA
ATOM     55  O56 NTO d 869      -6.957  21.530 -16.613  0.00  0.00    -0.572 OA
ATOM     56  C43 NTO d 869     -11.060  18.385 -20.652  0.00  0.00     0.206 C 
ATOM     57  O54 NTO d 869      -5.477  19.959 -17.668  0.00  0.00    -0.254 OA
ATOM     58  S55 NTO d 869      -5.567  20.969 -16.657  0.00  0.00     0.251 S 
ATOM     59  O5A NTO d 869      -7.555  16.921 -21.221  0.00  0.00    -0.391 OA
ATOM     60  O4G NTO d 869      -6.804  19.623 -20.962  0.00  0.00    -0.348 OA
ATOM     61  O3C NTO d 869     -12.786  19.969 -15.763  0.00  0.00    -0.572 OA
ATOM     62  O3M NTO d 869     -11.542  20.849 -19.607  0.00  0.00    -0.348 OA
ATOM     63  O44 NTO d 869     -11.192  17.471 -21.507  0.00  0.00    -0.646 OA
ATOM     64  C23 NTO d 869     -19.280  19.269 -17.037  0.00  0.00     0.206 C 
ATOM     65  C41 NTO d 869     -10.042  19.481 -20.924  0.00  0.00     0.152 C 
ATOM     66  O22 NTO d 869     -17.242  19.064 -18.381  0.00  0.00    -0.340 OA
ATOM     67  O1C NTO d 869     -24.455  17.229 -19.872  0.00  0.00    -0.391 OA
ATOM     68  C15 NTO d 869     -22.602  15.618 -15.643  0.00  0.00     0.067 C 
ATOM     69  N3G NTO d 869     -12.412  22.117 -17.186  0.00  0.00    -0.210 NA
ATOM     70  C40 NTO d 869     -10.745  20.825 -20.797  0.00  0.00     0.103 C 
ATOM     71  S1G NTO d 869     -22.699  16.225 -22.301  0.00  0.00     0.156 S 
ATOM     72  O1L NTO d 869     -20.526  17.456 -18.699  0.00  0.00    -0.348 OA
ATOM     73  O57 NTO d 869      -4.599  22.071 -16.970  0.00  0.00    -0.572 OA
ATOM     74  O34 NTO d 869     -15.925  21.339 -21.964  0.00  0.00    -0.254 OA
ATOM     75  O1H NTO d 869     -24.161  16.428 -22.037  0.00  0.00    -0.296 OA
ATOM     76  O27 NTO d 869     -18.904  15.924 -20.574  0.00  0.00    -0.390 OA
ATOM     77  C50 NTO d 869      -6.218  18.599 -20.144  0.00  0.00     0.095 C 
ATOM     78  O3E NTO d 869     -13.987  18.108 -16.799  0.00  0.00    -0.572 OA
ATOM     79  O25 NTO d 869     -20.465  19.677 -17.007  0.00  0.00    -0.646 OA
ATOM     80  S3H NTO d 869     -11.669  23.571 -17.231  0.00  0.00     0.156 S 
ATOM     81  S35 NTO d 869     -16.948  21.341 -22.969  0.00  0.00     0.251 S 
ATOM     82  O1I NTO d 869     -22.399  14.757 -22.384  0.00  0.00    -0.296 OA
ATOM     83  C13 NTO d 869     -22.254  16.349 -16.943  0.00  0.00     0.090 C 
ATOM     84  O58 NTO d 869      -5.227  20.363 -15.329  0.00  0.00    -0.572 OA
ATOM     85  O3A NTO d 869     -14.725  20.373 -17.116  0.00  0.00    -0.247 OA
ATOM     86  C1B NTO d 869     -23.247  17.168 -19.111  0.00  0.00     0.083 C 
ATOM     87  O4C NTO d 869      -6.813  21.651 -23.323  0.00  0.00    -0.572 OA
ATOM     88  O4E NTO d 869      -5.788  23.690 -22.446  0.00  0.00    -0.572 OA
ATOM     89  O36 NTO d 869     -18.149  20.592 -22.475  0.00  0.00    -0.572 OA
ATOM     90  O2A NTO d 869     -16.578  17.273 -21.535  0.00  0.00    -0.388 OA
ATOM     91  C30 NTO d 869     -14.761  20.248 -19.543  0.00  0.00     0.096 C 
ATOM     92  H   NTO d 869     -14.044  22.632 -18.350  0.00  0.00     0.076 H 
ATOM     93  H   NTO d 869      -3.752  15.940 -18.993  0.00  0.00     0.131 H 
ATOM     94  H   NTO d 869      -7.539  20.666 -19.357  0.00  0.00     0.133 H 
ATOM     95  H   NTO d 869     -20.840  16.715 -21.246  0.00  0.00     0.140 HD
ATOM     96  H   NTO d 869      -5.316  13.137 -18.076  0.00  0.00     0.231 HD
ATOM     97  H   NTO d 869     -11.921  22.883 -19.715  0.00  0.00     0.131 H 
ATOM     98  H   NTO d 869     -16.622  16.693 -19.564  0.00  0.00     0.094 H 
ATOM     99  H   NTO d 869     -18.689  16.796 -18.111  0.00  0.00     0.092 H 
ATOM    100  H   NTO d 869     -22.682  15.305 -20.000  0.00  0.00     0.076 H 
ATOM    101  H   NTO d 869     -11.368  25.112 -15.928  0.00  0.00     0.231 HD
ATOM    102  H   NTO d 869     -13.146  19.799 -20.839  0.00  0.00     0.090 H 
ATOM    103  H   NTO d 869      -9.640  22.275 -19.677  0.00  0.00     0.091 H 
ATOM    104  H   NTO d 869      -4.237  19.108 -20.679  0.00  0.00     0.090 H 
ATOM    105  H   NTO d 869      -6.102  16.005 -19.272  0.00  0.00     0.076 H 
ATOM    106  H   NTO d 869      -5.671  17.445 -21.871  0.00  0.00     0.089 H 
ATOM    107  H   NTO d 869     -19.034  19.647 -19.121  0.00  0.00     0.104 H 
ATOM    108  H   NTO d 869     -19.036  17.947 -20.868  0.00  0.00     0.091 H 
ATOM    109  H   NTO d 869     -10.208  22.754 -22.435  0.00  0.00     0.210 HD
ATOM    110  H   NTO d 869     -22.508  17.836 -23.537  0.00  0.00     0.231 HD
ATOM    111  H   NTO d 869      -1.184  16.443 -21.107  0.00  0.00     0.066 H 
ATOM    112  H   NTO d 869      -1.851  15.477 -19.813  0.00  0.00     0.066 H 
ATOM    113  H   NTO d 869      -1.618  17.193 -19.589  0.00  0.00     0.066 H 
ATOM    114  H   NTO d 869     -11.846  25.300 -18.298  0.00  0.00     0.231 HD
ATOM    115  H   NTO d 869      -7.295  12.609 -19.415  0.00  0.00     0.231 HD
ATOM    116  H   NTO d 869     -13.136  19.758 -18.246  0.00  0.00     0.092 H 
ATOM    117  H   NTO d 869     -20.238  15.523 -19.396  0.00  0.00     0.131 H 
ATOM    118  H   NTO d 869     -17.043  19.563 -20.347  0.00  0.00     0.133 H 
ATOM    119  H   NTO d 869      -4.462  14.928 -21.350  0.00  0.00     0.140 HD
ATOM    120  H   NTO d 869     -15.240  19.414 -22.070  0.00  0.00     0.080 H 
ATOM    121  H   NTO d 869     -14.257  20.624 -22.892  0.00  0.00     0.080 H 
ATOM    122  H   NTO d 869     -24.085  15.696 -17.816  0.00  0.00     0.091 H 
ATOM    123  H   NTO d 869      -8.467  21.089 -22.186  0.00  0.00     0.097 H 
ATOM    124  H   NTO d 869      -5.316  21.000 -19.424  0.00  0.00     0.080 H 
ATOM    125  H   NTO d 869      -3.798  20.512 -18.695  0.00  0.00     0.080 H 
ATOM    126  H   NTO d 869      -9.770  24.238 -17.568  0.00  0.00     0.231 HD
ATOM    127  H   NTO d 869     -23.816  18.405 -16.919  0.00  0.00     0.210 HD
ATOM    128  H   NTO d 869      -5.095  11.711 -20.029  0.00  0.00     0.231 HD
ATOM    129  H   NTO d 869      -8.027  16.795 -20.383  0.00  0.00     0.210 HD
ATOM    130  H   NTO d 869      -9.634  19.375 -21.908  0.00  0.00     0.104 H 
ATOM    131  H   NTO d 869     -24.263  17.578 -20.756  0.00  0.00     0.210 HD
ATOM    132  H   NTO d 869     -23.214  16.253 -15.038  0.00  0.00     0.080 H 
ATOM    133  H   NTO d 869     -23.124  14.716 -15.887  0.00  0.00     0.080 H 
ATOM    134  H   NTO d 869     -11.700  21.387 -17.156  0.00  0.00     0.140 HD
ATOM    135  H   NTO d 869     -11.358  20.962 -21.663  0.00  0.00     0.092 H 
ATOM    136  H   NTO d 869     -24.350  17.378 -21.985  0.00  0.00     0.231 HD
ATOM    137  H   NTO d 869     -18.493  15.298 -19.957  0.00  0.00     0.210 HD
ATOM    138  H   NTO d 869      -6.789  18.491 -19.245  0.00  0.00     0.091 H 
ATOM    139  H   NTO d 869     -21.452  14.630 -22.555  0.00  0.00     0.231 HD
ATOM    140  H   NTO d 869     -21.772  17.285 -16.754  0.00  0.00     0.090 H 
ATOM    141  H   NTO d 869     -22.833  18.150 -19.021  0.00  0.00     0.089 H 
ATOM    142  H   NTO d 869     -16.978  17.947 -22.106  0.00  0.00     0.210 HD
ATOM    143  H   NTO d 869     -15.599  20.911 -19.500  0.00  0.00     0.091 H 
ENDROOT
TORSDOF 46
ENDMDL
MODEL 33
REMARK VINA RESULT:      -6.2      4.035      5.044
REMARK  0 active torsions:
REMARK  status: ('A' for Active; 'I' for Inactive)
REMARK       I    between atoms: O4A_2  and  C49_47 
REMARK       I    between atoms: O4A_2  and  S4B_15 
REMARK       I    between atoms: C3F_4  and  N3G_69 
REMARK       I    between atoms: S17_5  and  O16_54 
REMARK       I    between atoms: C5L_6  and  O5M_26 
REMARK       I    between atoms: C4F_7  and  O4G_60 
REMARK       I    between atoms: N1F_9  and  C1E_19 
REMARK       I    between atoms: N1F_9  and  S1G_71 
REMARK       I    between atoms: O5J_11  and  S5H_38 
REMARK       I    between atoms: C3L_12  and  O3M_62 
REMARK       I    between atoms: C29_13  and  O2A_90 
REMARK       I    between atoms: S3B_14  and  O3A_85 
REMARK       I    between atoms: C20_18  and  O1L_72 
REMARK       I    between atoms: O3J_20  and  S3H_80 
REMARK       I    between atoms: C31_23  and  C33_44 
REMARK       I    between atoms: C46_25  and  O47_33 
REMARK       I    between atoms: O5M_26  and  C5N_35 
REMARK       I    between atoms: C51_28  and  C53_48 
REMARK       I    between atoms: C5F_29  and  N5G_43 
REMARK       I    between atoms: C59_30  and  O5A_59 
REMARK       I    between atoms: C21_31  and  C23_64 
REMARK       I    between atoms: C26_32  and  O27_76 
REMARK       I    between atoms: O1J_34  and  S1G_71 
REMARK       I    between atoms: O3K_36  and  S3H_80 
REMARK       I    between atoms: O5I_37  and  S5H_38 
REMARK       I    between atoms: S5H_38  and  O5K_53 
REMARK       I    between atoms: S5H_38  and  N5G_43 
REMARK       I    between atoms: C39_39  and  O3A_85 
REMARK       I    between atoms: C1K_40  and  O1L_72 
REMARK       I    between atoms: C2C_41  and  O2D_45 
REMARK       I    between atoms: C33_44  and  O34_74 
REMARK       I    between atoms: O2D_45  and  C30_91 
REMARK       I    between atoms: C12_46  and  O10_51 
REMARK       I    between atoms: C53_48  and  O54_57 
REMARK       I    between atoms: O3I_50  and  S3H_80 
REMARK       I    between atoms: O16_54  and  C15_68 
REMARK       I    between atoms: C43_56  and  C41_65 
REMARK       I    between atoms: O54_57  and  S55_58 
REMARK       I    between atoms: O4G_60  and  C50_77 
REMARK       I    between atoms: O3M_62  and  C40_70 
REMARK       I    between atoms: O1C_67  and  C1B_86 
REMARK       I    between atoms: C15_68  and  C13_83 
REMARK       I    between atoms: N3G_69  and  S3H_80 
REMARK       I    between atoms: S1G_71  and  O1H_75 
REMARK       I    between atoms: S1G_71  and  O1I_82 
REMARK       I    between atoms: O34_74  and  S35_81 
ROOT
ATOM      1  O42 NTO d 869     -21.145  17.538 -18.175  0.00  0.00    -0.340 OA
ATOM      2  O4A NTO d 869     -24.491  19.039 -18.428  0.00  0.00    -0.244 OA
ATOM      3  O32 NTO d 869     -19.728  21.290 -21.269  0.00  0.00    -0.349 OA
ATOM      4  C3F NTO d 869     -19.662  19.451 -22.822  0.00  0.00     0.083 C 
ATOM      5  S17 NTO d 869      -8.309  16.668 -25.552  0.00  0.00     0.251 S 
ATOM      6  C5L NTO d 869     -22.725  13.815 -14.347  0.00  0.00     0.149 C 
ATOM      7  C4F NTO d 869     -22.558  17.652 -17.947  0.00  0.00     0.161 C 
ATOM      8  O14 NTO d 869      -9.381  20.078 -23.608  0.00  0.00    -0.349 OA
ATOM      9  N1F NTO d 869     -10.213  23.480 -22.458  0.00  0.00    -0.210 NA
ATOM     10  O37 NTO d 869     -16.922  24.914 -19.938  0.00  0.00    -0.572 OA
ATOM     11  O5J NTO d 869     -20.021  12.313 -13.969  0.00  0.00    -0.296 OA
ATOM     12  C3L NTO d 869     -20.387  20.064 -21.625  0.00  0.00     0.150 C 
ATOM     13  C29 NTO d 869     -13.978  20.750 -20.955  0.00  0.00     0.110 C 
ATOM     14  S3B NTO d 869     -17.240  17.156 -23.253  0.00  0.00     0.252 S 
ATOM     15  S4B NTO d 869     -25.090  20.050 -17.612  0.00  0.00     0.252 S 
ATOM     16  O24 NTO d 869     -13.783  19.002 -25.363  0.00  0.00    -0.646 OA
ATOM     17  O45 NTO d 869     -18.482  18.162 -19.258  0.00  0.00    -0.646 OA
ATOM     18  C20 NTO d 869     -12.493  20.681 -22.951  0.00  0.00     0.103 C 
ATOM     19  C1E NTO d 869      -9.415  22.439 -23.118  0.00  0.00     0.081 C 
ATOM     20  O3J NTO d 869     -22.206  17.895 -25.034  0.00  0.00    -0.296 OA
ATOM     21  O38 NTO d 869     -17.645  25.528 -22.201  0.00  0.00    -0.572 OA
ATOM     22  O18 NTO d 869      -7.400  16.369 -24.398  0.00  0.00    -0.572 OA
ATOM     23  C31 NTO d 869     -18.396  21.037 -20.792  0.00  0.00     0.091 C 
ATOM     24  O52 NTO d 869     -23.514  13.855 -15.547  0.00  0.00    -0.349 OA
ATOM     25  C46 NTO d 869     -22.415  19.556 -19.573  0.00  0.00     0.094 C 
ATOM     26  O5M NTO d 869     -23.467  14.219 -13.189  0.00  0.00    -0.364 OA
ATOM     27  O3D NTO d 869     -16.467  16.609 -24.416  0.00  0.00    -0.572 OA
ATOM     28  C51 NTO d 869     -23.840  15.192 -15.962  0.00  0.00     0.091 C 
ATOM     29  C5F NTO d 869     -21.437  14.629 -14.494  0.00  0.00     0.081 C 
ATOM     30  C59 NTO d 869     -21.748  16.054 -14.953  0.00  0.00     0.083 C 
ATOM     31  C21 NTO d 869     -13.749  20.804 -23.801  0.00  0.00     0.152 C 
ATOM     32  C26 NTO d 869     -12.763  21.394 -21.627  0.00  0.00     0.092 C 
ATOM     33  O47 NTO d 869     -22.924  20.856 -19.889  0.00  0.00    -0.390 OA
ATOM     34  O1J NTO d 869     -10.025  25.624 -21.090  0.00  0.00    -0.296 OA
ATOM     35  C5N NTO d 869     -24.217  13.099 -12.706  0.00  0.00     0.007 C 
ATOM     36  O3K NTO d 869     -22.134  20.028 -23.856  0.00  0.00    -0.296 OA
ATOM     37  O5I NTO d 869     -18.312  14.058 -13.787  0.00  0.00    -0.296 OA
ATOM     38  S5H NTO d 869     -19.569  13.507 -13.183  0.00  0.00     0.156 S 
ATOM     39  C39 NTO d 869     -18.240  19.105 -22.376  0.00  0.00     0.108 C 
ATOM     40  C1K NTO d 869     -10.159  21.110 -22.982  0.00  0.00     0.150 C 
ATOM     41  C2C NTO d 869     -15.184  20.762 -21.898  0.00  0.00     0.160 C 
ATOM     42  O19 NTO d 869      -7.501  16.823 -26.806  0.00  0.00    -0.572 OA
ATOM     43  N5G NTO d 869     -20.723  14.661 -13.209  0.00  0.00    -0.210 NA
ATOM     44  C33 NTO d 869     -17.740  22.361 -20.391  0.00  0.00     0.067 C 
ATOM     45  O2D NTO d 869     -16.262  20.044 -21.275  0.00  0.00    -0.348 OA
ATOM     46  C12 NTO d 869      -8.589  21.616 -25.333  0.00  0.00     0.089 C 
ATOM     47  C49 NTO d 869     -23.069  19.056 -18.284  0.00  0.00     0.134 C 
ATOM     48  C53 NTO d 869     -24.644  15.080 -17.259  0.00  0.00     0.067 C 
ATOM     49  O4D NTO d 869     -24.893  21.393 -18.250  0.00  0.00    -0.572 OA
ATOM     50  O3I NTO d 869     -22.851  18.003 -22.673  0.00  0.00    -0.296 OA
ATOM     51  O10 NTO d 869      -8.656  21.857 -26.740  0.00  0.00    -0.390 OA
ATOM     52  O1A NTO d 869      -9.288  15.547 -25.716  0.00  0.00    -0.572 OA
ATOM     53  O5K NTO d 869     -19.308  13.085 -11.767  0.00  0.00    -0.296 OA
ATOM     54  O16 NTO d 869      -9.027  17.880 -25.290  0.00  0.00    -0.254 OA
ATOM     55  O56 NTO d 869     -23.862  14.933 -20.569  0.00  0.00    -0.572 OA
ATOM     56  C43 NTO d 869     -18.981  18.625 -18.207  0.00  0.00     0.206 C 
ATOM     57  O54 NTO d 869     -23.906  14.348 -18.239  0.00  0.00    -0.254 OA
ATOM     58  S55 NTO d 869     -24.478  14.056 -19.520  0.00  0.00     0.251 S 
ATOM     59  O5A NTO d 869     -20.527  16.743 -15.237  0.00  0.00    -0.391 OA
ATOM     60  O4G NTO d 869     -22.920  17.354 -16.591  0.00  0.00    -0.348 OA
ATOM     61  O3C NTO d 869     -18.535  16.409 -23.134  0.00  0.00    -0.572 OA
ATOM     62  O3M NTO d 869     -20.274  19.125 -20.547  0.00  0.00    -0.348 OA
ATOM     63  O44 NTO d 869     -18.306  18.947 -17.195  0.00  0.00    -0.646 OA
ATOM     64  C23 NTO d 869     -13.455  20.196 -25.164  0.00  0.00     0.206 C 
ATOM     65  C41 NTO d 869     -20.489  18.818 -18.156  0.00  0.00     0.152 C 
ATOM     66  O22 NTO d 869     -14.862  20.155 -23.160  0.00  0.00    -0.340 OA
ATOM     67  O1C NTO d 869      -8.492  23.963 -24.754  0.00  0.00    -0.391 OA
ATOM     68  C15 NTO d 869      -8.453  19.149 -25.613  0.00  0.00     0.067 C 
ATOM     69  N3G NTO d 869     -20.377  18.244 -23.275  0.00  0.00    -0.210 NA
ATOM     70  C40 NTO d 869     -20.904  19.640 -19.368  0.00  0.00     0.103 C 
ATOM     71  S1G NTO d 869      -9.210  24.539 -21.730  0.00  0.00     0.156 S 
ATOM     72  O1L NTO d 869     -11.406  21.279 -23.670  0.00  0.00    -0.348 OA
ATOM     73  O57 NTO d 869     -25.956  14.307 -19.471  0.00  0.00    -0.572 OA
ATOM     74  O34 NTO d 869     -17.602  23.240 -21.511  0.00  0.00    -0.254 OA
ATOM     75  O1H NTO d 869      -8.282  25.128 -22.750  0.00  0.00    -0.296 OA
ATOM     76  O27 NTO d 869     -11.628  21.268 -20.765  0.00  0.00    -0.390 OA
ATOM     77  C50 NTO d 869     -22.583  16.006 -16.231  0.00  0.00     0.095 C 
ATOM     78  O3E NTO d 869     -16.447  16.971 -21.993  0.00  0.00    -0.572 OA
ATOM     79  O25 NTO d 869     -12.882  20.919 -26.014  0.00  0.00    -0.646 OA
ATOM     80  S3H NTO d 869     -21.920  18.550 -23.715  0.00  0.00     0.156 S 
ATOM     81  S35 NTO d 869     -16.929  24.499 -21.379  0.00  0.00     0.251 S 
ATOM     82  O1I NTO d 869      -8.416  23.823 -20.677  0.00  0.00    -0.296 OA
ATOM     83  C13 NTO d 869      -9.288  20.290 -25.026  0.00  0.00     0.090 C 
ATOM     84  O58 NTO d 869     -24.223  12.617 -19.853  0.00  0.00    -0.572 OA
ATOM     85  O3A NTO d 869     -17.502  18.547 -23.469  0.00  0.00    -0.247 OA
ATOM     86  C1B NTO d 869      -9.273  22.775 -24.603  0.00  0.00     0.083 C 
ATOM     87  O4C NTO d 869     -24.460  20.037 -16.251  0.00  0.00    -0.572 OA
ATOM     88  O4E NTO d 869     -26.554  19.757 -17.481  0.00  0.00    -0.572 OA
ATOM     89  O36 NTO d 869     -15.516  24.375 -21.865  0.00  0.00    -0.572 OA
ATOM     90  O2A NTO d 869     -14.295  21.468 -19.762  0.00  0.00    -0.388 OA
ATOM     91  C30 NTO d 869     -17.538  20.362 -21.854  0.00  0.00     0.096 C 
ATOM     92  H   NTO d 869     -19.630  20.138 -23.642  0.00  0.00     0.076 H 
ATOM     93  H   NTO d 869     -22.450  12.792 -14.197  0.00  0.00     0.131 H 
ATOM     94  H   NTO d 869     -23.014  16.933 -18.596  0.00  0.00     0.133 H 
ATOM     95  H   NTO d 869     -10.822  23.053 -21.761  0.00  0.00     0.140 HD
ATOM     96  H   NTO d 869     -19.330  11.632 -13.948  0.00  0.00     0.231 HD
ATOM     97  H   NTO d 869     -21.414  20.270 -21.845  0.00  0.00     0.131 H 
ATOM     98  H   NTO d 869     -13.741  19.734 -20.717  0.00  0.00     0.094 H 
ATOM     99  H   NTO d 869     -12.236  19.663 -22.747  0.00  0.00     0.092 H 
ATOM    100  H   NTO d 869      -8.446  22.377 -22.669  0.00  0.00     0.076 H 
ATOM    101  H   NTO d 869     -23.122  18.078 -25.294  0.00  0.00     0.231 HD
ATOM    102  H   NTO d 869     -18.469  20.381 -19.951  0.00  0.00     0.090 H 
ATOM    103  H   NTO d 869     -22.634  18.882 -20.374  0.00  0.00     0.091 H 
ATOM    104  H   NTO d 869     -24.394  15.683 -15.189  0.00  0.00     0.090 H 
ATOM    105  H   NTO d 869     -20.821  14.162 -15.233  0.00  0.00     0.076 H 
ATOM    106  H   NTO d 869     -22.285  16.561 -14.179  0.00  0.00     0.089 H 
ATOM    107  H   NTO d 869     -14.020  21.832 -23.920  0.00  0.00     0.104 H 
ATOM    108  H   NTO d 869     -12.950  22.431 -21.812  0.00  0.00     0.091 H 
ATOM    109  H   NTO d 869     -22.725  21.467 -19.162  0.00  0.00     0.210 HD
ATOM    110  H   NTO d 869     -10.537  26.087 -21.771  0.00  0.00     0.231 HD
ATOM    111  H   NTO d 869     -24.775  13.390 -11.841  0.00  0.00     0.066 H 
ATOM    112  H   NTO d 869     -23.548  12.306 -12.448  0.00  0.00     0.066 H 
ATOM    113  H   NTO d 869     -24.890  12.765 -13.469  0.00  0.00     0.066 H 
ATOM    114  H   NTO d 869     -23.053  20.197 -24.117  0.00  0.00     0.231 HD
ATOM    115  H   NTO d 869     -17.622  13.376 -13.774  0.00  0.00     0.231 HD
ATOM    116  H   NTO d 869     -18.289  18.380 -21.590  0.00  0.00     0.092 H 
ATOM    117  H   NTO d 869     -10.319  20.837 -21.960  0.00  0.00     0.131 H 
ATOM    118  H   NTO d 869     -15.470  21.776 -22.084  0.00  0.00     0.133 H 
ATOM    119  H   NTO d 869     -21.384  14.495 -12.451  0.00  0.00     0.140 HD
ATOM    120  H   NTO d 869     -16.770  22.160 -19.986  0.00  0.00     0.080 H 
ATOM    121  H   NTO d 869     -18.365  22.839 -19.665  0.00  0.00     0.080 H 
ATOM    122  H   NTO d 869      -7.572  21.553 -25.004  0.00  0.00     0.091 H 
ATOM    123  H   NTO d 869     -22.811  19.721 -17.486  0.00  0.00     0.097 H 
ATOM    124  H   NTO d 869     -24.849  16.062 -17.632  0.00  0.00     0.080 H 
ATOM    125  H   NTO d 869     -25.560  14.565 -17.057  0.00  0.00     0.080 H 
ATOM    126  H   NTO d 869     -23.768  18.184 -22.932  0.00  0.00     0.231 HD
ATOM    127  H   NTO d 869      -9.585  21.911 -27.014  0.00  0.00     0.210 HD
ATOM    128  H   NTO d 869     -18.622  12.399 -11.756  0.00  0.00     0.231 HD
ATOM    129  H   NTO d 869     -20.048  16.276 -15.940  0.00  0.00     0.210 HD
ATOM    130  H   NTO d 869     -20.769  19.327 -17.258  0.00  0.00     0.104 H 
ATOM    131  H   NTO d 869      -8.926  24.697 -24.291  0.00  0.00     0.210 HD
ATOM    132  H   NTO d 869      -8.415  19.255 -26.677  0.00  0.00     0.080 H 
ATOM    133  H   NTO d 869      -7.468  19.195 -25.197  0.00  0.00     0.080 H 
ATOM    134  H   NTO d 869     -20.383  17.564 -22.514  0.00  0.00     0.140 HD
ATOM    135  H   NTO d 869     -20.611  20.655 -19.198  0.00  0.00     0.092 H 
ATOM    136  H   NTO d 869      -8.799  25.590 -23.429  0.00  0.00     0.231 HD
ATOM    137  H   NTO d 869     -11.454  20.329 -20.594  0.00  0.00     0.210 HD
ATOM    138  H   NTO d 869     -22.044  15.547 -17.033  0.00  0.00     0.091 H 
ATOM    139  H   NTO d 869      -9.020  23.444 -20.019  0.00  0.00     0.231 HD
ATOM    140  H   NTO d 869     -10.271  20.319 -25.447  0.00  0.00     0.090 H 
ATOM    141  H   NTO d 869     -10.245  22.933 -25.022  0.00  0.00     0.089 H 
ATOM    142  H   NTO d 869     -14.507  22.388 -19.984  0.00  0.00     0.210 HD
ATOM    143  H   NTO d 869     -17.390  21.019 -22.685  0.00  0.00     0.091 H 
ENDROOT
TORSDOF 46
ENDMDL
MODEL 34
REMARK VINA RESULT:      -6.0      4.115     15.017
REMARK  0 active torsions:
REMARK  status: ('A' for Active; 'I' for Inactive)
REMARK       I    between atoms: O4A_2  and  C49_47 
REMARK       I    between atoms: O4A_2  and  S4B_15 
REMARK       I    between atoms: C3F_4  and  N3G_69 
REMARK       I    between atoms: S17_5  and  O16_54 
REMARK       I    between atoms: C5L_6  and  O5M_26 
REMARK       I    between atoms: C4F_7  and  O4G_60 
REMARK       I    between atoms: N1F_9  and  C1E_19 
REMARK       I    between atoms: N1F_9  and  S1G_71 
REMARK       I    between atoms: O5J_11  and  S5H_38 
REMARK       I    between atoms: C3L_12  and  O3M_62 
REMARK       I    between atoms: C29_13  and  O2A_90 
REMARK       I    between atoms: S3B_14  and  O3A_85 
REMARK       I    between atoms: C20_18  and  O1L_72 
REMARK       I    between atoms: O3J_20  and  S3H_80 
REMARK       I    between atoms: C31_23  and  C33_44 
REMARK       I    between atoms: C46_25  and  O47_33 
REMARK       I    between atoms: O5M_26  and  C5N_35 
REMARK       I    between atoms: C51_28  and  C53_48 
REMARK       I    between atoms: C5F_29  and  N5G_43 
REMARK       I    between atoms: C59_30  and  O5A_59 
REMARK       I    between atoms: C21_31  and  C23_64 
REMARK       I    between atoms: C26_32  and  O27_76 
REMARK       I    between atoms: O1J_34  and  S1G_71 
REMARK       I    between atoms: O3K_36  and  S3H_80 
REMARK       I    between atoms: O5I_37  and  S5H_38 
REMARK       I    between atoms: S5H_38  and  O5K_53 
REMARK       I    between atoms: S5H_38  and  N5G_43 
REMARK       I    between atoms: C39_39  and  O3A_85 
REMARK       I    between atoms: C1K_40  and  O1L_72 
REMARK       I    between atoms: C2C_41  and  O2D_45 
REMARK       I    between atoms: C33_44  and  O34_74 
REMARK       I    between atoms: O2D_45  and  C30_91 
REMARK       I    between atoms: C12_46  and  O10_51 
REMARK       I    between atoms: C53_48  and  O54_57 
REMARK       I    between atoms: O3I_50  and  S3H_80 
REMARK       I    between atoms: O16_54  and  C15_68 
REMARK       I    between atoms: C43_56  and  C41_65 
REMARK       I    between atoms: O54_57  and  S55_58 
REMARK       I    between atoms: O4G_60  and  C50_77 
REMARK       I    between atoms: O3M_62  and  C40_70 
REMARK       I    between atoms: O1C_67  and  C1B_86 
REMARK       I    between atoms: C15_68  and  C13_83 
REMARK       I    between atoms: N3G_69  and  S3H_80 
REMARK       I    between atoms: S1G_71  and  O1H_75 
REMARK       I    between atoms: S1G_71  and  O1I_82 
REMARK       I    between atoms: O34_74  and  S35_81 
ROOT
ATOM      1  O42 NTO d 869      -7.251  19.789 -20.741  0.00  0.00    -0.340 OA
ATOM      2  O4A NTO d 869      -4.770  17.118 -21.214  0.00  0.00    -0.244 OA
ATOM      3  O32 NTO d 869     -10.421  16.640 -23.126  0.00  0.00    -0.349 OA
ATOM      4  C3F NTO d 869     -10.067  18.249 -24.882  0.00  0.00     0.083 C 
ATOM      5  S17 NTO d 869     -19.913  24.919 -26.512  0.00  0.00     0.251 S 
ATOM      6  C5L NTO d 869      -3.822  22.903 -17.651  0.00  0.00     0.149 C 
ATOM      7  C4F NTO d 869      -5.960  19.165 -20.679  0.00  0.00     0.161 C 
ATOM      8  O14 NTO d 869     -19.852  21.509 -24.294  0.00  0.00    -0.349 OA
ATOM      9  N1F NTO d 869     -20.138  18.138 -22.829  0.00  0.00    -0.210 NA
ATOM     10  O37 NTO d 869     -14.095  14.456 -21.001  0.00  0.00    -0.572 OA
ATOM     11  O5J NTO d 869      -5.693  25.341 -17.135  0.00  0.00    -0.296 OA
ATOM     12  C3L NTO d 869      -9.430  17.496 -23.716  0.00  0.00     0.150 C 
ATOM     13  C29 NTO d 869     -15.447  19.339 -22.171  0.00  0.00     0.110 C 
ATOM     14  S3B NTO d 869     -11.524  21.252 -25.300  0.00  0.00     0.252 S 
ATOM     15  S4B NTO d 869      -4.455  16.018 -20.356  0.00  0.00     0.252 S 
ATOM     16  O24 NTO d 869     -15.711  20.706 -26.708  0.00  0.00    -0.646 OA
ATOM     17  O45 NTO d 869     -10.097  20.143 -21.395  0.00  0.00    -0.646 OA
ATOM     18  C20 NTO d 869     -17.110  19.820 -23.958  0.00  0.00     0.103 C 
ATOM     19  C1E NTO d 869     -20.599  19.352 -23.513  0.00  0.00     0.081 C 
ATOM     20  O3J NTO d 869      -7.531  18.559 -27.576  0.00  0.00    -0.296 OA
ATOM     21  O38 NTO d 869     -14.026  13.451 -23.239  0.00  0.00    -0.572 OA
ATOM     22  O18 NTO d 869     -20.449  25.623 -25.302  0.00  0.00    -0.572 OA
ATOM     23  C31 NTO d 869     -11.472  17.412 -22.524  0.00  0.00     0.091 C 
ATOM     24  O52 NTO d 869      -3.309  22.480 -18.925  0.00  0.00    -0.349 OA
ATOM     25  C46 NTO d 869      -7.049  17.344 -22.015  0.00  0.00     0.094 C 
ATOM     26  O5M NTO d 869      -3.098  22.333 -16.552  0.00  0.00    -0.364 OA
ATOM     27  O3D NTO d 869     -12.225  21.965 -26.418  0.00  0.00    -0.572 OA
ATOM     28  C51 NTO d 869      -3.564  21.093 -19.201  0.00  0.00     0.091 C 
ATOM     29  C5F NTO d 869      -5.322  22.630 -17.530  0.00  0.00     0.081 C 
ATOM     30  C59 NTO d 869      -5.631  21.163 -17.837  0.00  0.00     0.083 C 
ATOM     31  C21 NTO d 869     -16.142  19.170 -24.934  0.00  0.00     0.152 C 
ATOM     32  C26 NTO d 869     -16.905  19.157 -22.597  0.00  0.00     0.092 C 
ATOM     33  O47 NTO d 869      -7.107  15.930 -22.223  0.00  0.00    -0.390 OA
ATOM     34  O1J NTO d 869     -20.867  16.330 -21.184  0.00  0.00    -0.296 OA
ATOM     35  C5N NTO d 869      -1.924  23.117 -16.314  0.00  0.00     0.007 C 
ATOM     36  O3K NTO d 869      -8.179  16.705 -26.134  0.00  0.00    -0.296 OA
ATOM     37  O5I NTO d 869      -7.865  24.392 -16.518  0.00  0.00    -0.296 OA
ATOM     38  S5H NTO d 869      -6.413  24.467 -16.152  0.00  0.00     0.156 S 
ATOM     39  C39 NTO d 869     -11.172  19.139 -24.311  0.00  0.00     0.108 C 
ATOM     40  C1K NTO d 869     -19.412  20.307 -23.642  0.00  0.00     0.150 C 
ATOM     41  C2C NTO d 869     -14.499  18.803 -23.247  0.00  0.00     0.160 C 
ATOM     42  O19 NTO d 869     -20.915  24.992 -27.625  0.00  0.00    -0.572 OA
ATOM     43  N5G NTO d 869      -5.779  22.964 -16.173  0.00  0.00    -0.210 NA
ATOM     44  C33 NTO d 869     -12.490  16.469 -21.877  0.00  0.00     0.067 C 
ATOM     45  O2D NTO d 869     -13.147  19.102 -22.860  0.00  0.00    -0.348 OA
ATOM     46  C12 NTO d 869     -21.420  20.264 -25.694  0.00  0.00     0.089 C 
ATOM     47  C49 NTO d 869      -6.057  17.651 -20.893  0.00  0.00     0.134 C 
ATOM     48  C53 NTO d 869      -2.999  20.797 -20.592  0.00  0.00     0.067 C 
ATOM     49  O4D NTO d 869      -5.229  14.807 -20.786  0.00  0.00    -0.572 OA
ATOM     50  O3I NTO d 869      -6.591  18.387 -25.319  0.00  0.00    -0.296 OA
ATOM     51  O10 NTO d 869     -21.676  19.914 -27.056  0.00  0.00    -0.390 OA
ATOM     52  O1A NTO d 869     -18.633  25.571 -26.939  0.00  0.00    -0.572 OA
ATOM     53  O5K NTO d 869      -6.267  25.058 -14.780  0.00  0.00    -0.296 OA
ATOM     54  O16 NTO d 869     -19.653  23.548 -26.187  0.00  0.00    -0.254 OA
ATOM     55  O56 NTO d 869      -4.204  20.989 -23.770  0.00  0.00    -0.572 OA
ATOM     56  C43 NTO d 869      -9.636  19.604 -20.363  0.00  0.00     0.206 C 
ATOM     57  O54 NTO d 869      -3.569  21.681 -21.559  0.00  0.00    -0.254 OA
ATOM     58  S55 NTO d 869      -3.148  21.641 -22.927  0.00  0.00     0.251 S 
ATOM     59  O5A NTO d 869      -7.048  20.970 -17.876  0.00  0.00    -0.391 OA
ATOM     60  O4G NTO d 869      -5.297  19.402 -19.428  0.00  0.00    -0.348 OA
ATOM     61  O3C NTO d 869     -10.045  21.460 -25.440  0.00  0.00    -0.572 OA
ATOM     62  O3M NTO d 869      -9.015  18.483 -22.762  0.00  0.00    -0.348 OA
ATOM     63  O44 NTO d 869     -10.206  19.636 -19.242  0.00  0.00    -0.646 OA
ATOM     64  C23 NTO d 869     -16.414  19.743 -26.318  0.00  0.00     0.206 C 
ATOM     65  C41 NTO d 869      -8.315  18.858 -20.477  0.00  0.00     0.152 C 
ATOM     66  O22 NTO d 869     -14.781  19.393 -24.526  0.00  0.00    -0.340 OA
ATOM     67  O1C NTO d 869     -22.268  18.178 -24.811  0.00  0.00    -0.391 OA
ATOM     68  C15 NTO d 869     -20.693  22.572 -26.271  0.00  0.00     0.067 C 
ATOM     69  N3G NTO d 869      -9.047  19.059 -25.572  0.00  0.00    -0.210 NA
ATOM     70  C40 NTO d 869      -8.432  17.854 -21.615  0.00  0.00     0.103 C 
ATOM     71  S1G NTO d 869     -21.323  17.594 -21.852  0.00  0.00     0.156 S 
ATOM     72  O1L NTO d 869     -18.442  19.629 -24.453  0.00  0.00    -0.348 OA
ATOM     73  O57 NTO d 869      -1.876  20.853 -23.031  0.00  0.00    -0.572 OA
ATOM     74  O34 NTO d 869     -13.120  15.628 -22.849  0.00  0.00    -0.254 OA
ATOM     75  O1H NTO d 869     -22.555  17.328 -22.664  0.00  0.00    -0.296 OA
ATOM     76  O27 NTO d 869     -17.759  19.765 -21.624  0.00  0.00    -0.390 OA
ATOM     77  C50 NTO d 869      -5.056  20.799 -19.205  0.00  0.00     0.095 C 
ATOM     78  O3E NTO d 869     -11.978  21.815 -23.985  0.00  0.00    -0.572 OA
ATOM     79  O25 NTO d 869     -17.341  19.232 -26.989  0.00  0.00    -0.646 OA
ATOM     80  S3H NTO d 869      -7.815  18.160 -26.158  0.00  0.00     0.156 S 
ATOM     81  S35 NTO d 869     -14.174  14.732 -22.473  0.00  0.00     0.251 S 
ATOM     82  O1I NTO d 869     -21.619  18.632 -20.809  0.00  0.00    -0.296 OA
ATOM     83  C13 NTO d 869     -20.246  21.245 -25.650  0.00  0.00     0.090 C 
ATOM     84  O58 NTO d 869      -2.914  23.041 -23.408  0.00  0.00    -0.572 OA
ATOM     85  O3A NTO d 869     -11.825  19.854 -25.366  0.00  0.00    -0.247 OA
ATOM     86  C1B NTO d 869     -21.095  18.989 -24.912  0.00  0.00     0.083 C 
ATOM     87  O4C NTO d 869      -4.805  16.367 -18.940  0.00  0.00    -0.572 OA
ATOM     88  O4E NTO d 869      -2.985  15.742 -20.447  0.00  0.00    -0.572 OA
ATOM     89  O36 NTO d 869     -15.504  15.346 -22.791  0.00  0.00    -0.572 OA
ATOM     90  O2A NTO d 869     -15.222  18.643 -20.944  0.00  0.00    -0.388 OA
ATOM     91  C30 NTO d 869     -12.188  18.283 -23.548  0.00  0.00     0.096 C 
ATOM     92  H   NTO d 869     -10.481  17.567 -25.596  0.00  0.00     0.076 H 
ATOM     93  H   NTO d 869      -3.677  23.961 -17.600  0.00  0.00     0.131 H 
ATOM     94  H   NTO d 869      -5.386  19.608 -21.466  0.00  0.00     0.133 H 
ATOM     95  H   NTO d 869     -19.310  18.352 -22.274  0.00  0.00     0.140 HD
ATOM     96  H   NTO d 869      -6.075  26.232 -17.116  0.00  0.00     0.231 HD
ATOM     97  H   NTO d 869      -8.599  16.900 -24.034  0.00  0.00     0.131 H 
ATOM     98  H   NTO d 869     -15.255  20.383 -22.037  0.00  0.00     0.094 H 
ATOM     99  H   NTO d 869     -16.942  20.872 -23.856  0.00  0.00     0.092 H 
ATOM    100  H   NTO d 869     -21.392  19.810 -22.958  0.00  0.00     0.076 H 
ATOM    101  H   NTO d 869      -6.799  18.025 -27.922  0.00  0.00     0.231 HD
ATOM    102  H   NTO d 869     -11.030  18.051 -21.789  0.00  0.00     0.090 H 
ATOM    103  H   NTO d 869      -6.734  17.825 -22.917  0.00  0.00     0.091 H 
ATOM    104  H   NTO d 869      -3.108  20.486 -18.447  0.00  0.00     0.090 H 
ATOM    105  H   NTO d 869      -5.839  23.240 -18.241  0.00  0.00     0.076 H 
ATOM    106  H   NTO d 869      -5.196  20.548 -17.077  0.00  0.00     0.089 H 
ATOM    107  H   NTO d 869     -16.287  18.110 -24.953  0.00  0.00     0.104 H 
ATOM    108  H   NTO d 869     -17.141  18.115 -22.670  0.00  0.00     0.091 H 
ATOM    109  H   NTO d 869      -7.393  15.494 -21.404  0.00  0.00     0.210 HD
ATOM    110  H   NTO d 869     -20.676  15.659 -21.858  0.00  0.00     0.231 HD
ATOM    111  H   NTO d 869      -1.377  22.700 -15.495  0.00  0.00     0.066 H 
ATOM    112  H   NTO d 869      -2.207  24.122 -16.079  0.00  0.00     0.066 H 
ATOM    113  H   NTO d 869      -1.311  23.116 -17.191  0.00  0.00     0.066 H 
ATOM    114  H   NTO d 869      -7.441  16.181 -26.483  0.00  0.00     0.231 HD
ATOM    115  H   NTO d 869      -8.247  25.283 -16.507  0.00  0.00     0.231 HD
ATOM    116  H   NTO d 869     -10.735  19.846 -23.637  0.00  0.00     0.092 H 
ATOM    117  H   NTO d 869     -18.998  20.573 -22.692  0.00  0.00     0.131 H 
ATOM    118  H   NTO d 869     -14.636  17.746 -23.335  0.00  0.00     0.133 H 
ATOM    119  H   NTO d 869      -4.989  22.921 -15.530  0.00  0.00     0.140 HD
ATOM    120  H   NTO d 869     -13.240  17.051 -21.384  0.00  0.00     0.080 H 
ATOM    121  H   NTO d 869     -11.972  15.844 -21.179  0.00  0.00     0.080 H 
ATOM    122  H   NTO d 869     -22.275  20.732 -25.253  0.00  0.00     0.091 H 
ATOM    123  H   NTO d 869      -6.404  17.194 -19.990  0.00  0.00     0.097 H 
ATOM    124  H   NTO d 869      -3.228  19.787 -20.858  0.00  0.00     0.080 H 
ATOM    125  H   NTO d 869      -1.938  20.940 -20.574  0.00  0.00     0.080 H 
ATOM    126  H   NTO d 869      -5.859  17.854 -25.665  0.00  0.00     0.231 HD
ATOM    127  H   NTO d 869     -20.889  19.493 -27.435  0.00  0.00     0.210 HD
ATOM    128  H   NTO d 869      -6.645  25.952 -14.772  0.00  0.00     0.231 HD
ATOM    129  H   NTO d 869      -7.432  21.531 -18.567  0.00  0.00     0.210 HD
ATOM    130  H   NTO d 869      -8.096  18.347 -19.562  0.00  0.00     0.104 H 
ATOM    131  H   NTO d 869     -22.061  17.370 -24.316  0.00  0.00     0.210 HD
ATOM    132  H   NTO d 869     -20.941  22.411 -27.299  0.00  0.00     0.080 H 
ATOM    133  H   NTO d 869     -21.545  22.932 -25.732  0.00  0.00     0.080 H 
ATOM    134  H   NTO d 869      -8.669  19.739 -24.912  0.00  0.00     0.140 HD
ATOM    135  H   NTO d 869      -9.042  17.042 -21.280  0.00  0.00     0.092 H 
ATOM    136  H   NTO d 869     -22.360  16.657 -23.336  0.00  0.00     0.231 HD
ATOM    137  H   NTO d 869     -17.549  20.710 -21.555  0.00  0.00     0.210 HD
ATOM    138  H   NTO d 869      -5.516  21.368 -19.986  0.00  0.00     0.091 H 
ATOM    139  H   NTO d 869     -20.820  18.800 -20.285  0.00  0.00     0.231 HD
ATOM    140  H   NTO d 869     -19.424  20.815 -26.184  0.00  0.00     0.090 H 
ATOM    141  H   NTO d 869     -20.330  18.445 -25.426  0.00  0.00     0.089 H 
ATOM    142  H   NTO d 869     -15.398  17.698 -21.071  0.00  0.00     0.210 HD
ATOM    143  H   NTO d 869     -12.699  17.673 -24.263  0.00  0.00     0.091 H 
ENDROOT
TORSDOF 46
ENDMDL
MODEL 35
REMARK VINA RESULT:      -6.0      4.225      5.645
REMARK  0 active torsions:
REMARK  status: ('A' for Active; 'I' for Inactive)
REMARK       I    between atoms: O4A_2  and  C49_47 
REMARK       I    between atoms: O4A_2  and  S4B_15 
REMARK       I    between atoms: C3F_4  and  N3G_69 
REMARK       I    between atoms: S17_5  and  O16_54 
REMARK       I    between atoms: C5L_6  and  O5M_26 
REMARK       I    between atoms: C4F_7  and  O4G_60 
REMARK       I    between atoms: N1F_9  and  C1E_19 
REMARK       I    between atoms: N1F_9  and  S1G_71 
REMARK       I    between atoms: O5J_11  and  S5H_38 
REMARK       I    between atoms: C3L_12  and  O3M_62 
REMARK       I    between atoms: C29_13  and  O2A_90 
REMARK       I    between atoms: S3B_14  and  O3A_85 
REMARK       I    between atoms: C20_18  and  O1L_72 
REMARK       I    between atoms: O3J_20  and  S3H_80 
REMARK       I    between atoms: C31_23  and  C33_44 
REMARK       I    between atoms: C46_25  and  O47_33 
REMARK       I    between atoms: O5M_26  and  C5N_35 
REMARK       I    between atoms: C51_28  and  C53_48 
REMARK       I    between atoms: C5F_29  and  N5G_43 
REMARK       I    between atoms: C59_30  and  O5A_59 
REMARK       I    between atoms: C21_31  and  C23_64 
REMARK       I    between atoms: C26_32  and  O27_76 
REMARK       I    between atoms: O1J_34  and  S1G_71 
REMARK       I    between atoms: O3K_36  and  S3H_80 
REMARK       I    between atoms: O5I_37  and  S5H_38 
REMARK       I    between atoms: S5H_38  and  O5K_53 
REMARK       I    between atoms: S5H_38  and  N5G_43 
REMARK       I    between atoms: C39_39  and  O3A_85 
REMARK       I    between atoms: C1K_40  and  O1L_72 
REMARK       I    between atoms: C2C_41  and  O2D_45 
REMARK       I    between atoms: C33_44  and  O34_74 
REMARK       I    between atoms: O2D_45  and  C30_91 
REMARK       I    between atoms: C12_46  and  O10_51 
REMARK       I    between atoms: C53_48  and  O54_57 
REMARK       I    between atoms: O3I_50  and  S3H_80 
REMARK       I    between atoms: O16_54  and  C15_68 
REMARK       I    between atoms: C43_56  and  C41_65 
REMARK       I    between atoms: O54_57  and  S55_58 
REMARK       I    between atoms: O4G_60  and  C50_77 
REMARK       I    between atoms: O3M_62  and  C40_70 
REMARK       I    between atoms: O1C_67  and  C1B_86 
REMARK       I    between atoms: C15_68  and  C13_83 
REMARK       I    between atoms: N3G_69  and  S3H_80 
REMARK       I    between atoms: S1G_71  and  O1H_75 
REMARK       I    between atoms: S1G_71  and  O1I_82 
REMARK       I    between atoms: O34_74  and  S35_81 
ROOT
ATOM      1  O42 NTO d 869     -18.613  19.683 -19.308  0.00  0.00    -0.340 OA
ATOM      2  O4A NTO d 869     -21.846  20.671 -20.752  0.00  0.00    -0.244 OA
ATOM      3  O32 NTO d 869     -16.755  20.746 -23.899  0.00  0.00    -0.349 OA
ATOM      4  C3F NTO d 869     -16.654  18.341 -23.979  0.00  0.00     0.083 C 
ATOM      5  S17 NTO d 869      -5.270  14.595 -23.310  0.00  0.00     0.251 S 
ATOM      6  C5L NTO d 869     -20.692  19.094 -14.176  0.00  0.00     0.149 C 
ATOM      7  C4F NTO d 869     -20.032  19.898 -19.337  0.00  0.00     0.161 C 
ATOM      8  O14 NTO d 869      -6.324  18.466 -23.985  0.00  0.00    -0.349 OA
ATOM      9  N1F NTO d 869      -7.075  21.844 -25.256  0.00  0.00    -0.210 NA
ATOM     10  O37 NTO d 869     -13.889  24.452 -24.812  0.00  0.00    -0.572 OA
ATOM     11  O5J NTO d 869     -18.109  18.174 -12.696  0.00  0.00    -0.296 OA
ATOM     12  C3L NTO d 869     -17.443  19.554 -23.488  0.00  0.00     0.150 C 
ATOM     13  C29 NTO d 869     -11.085  20.578 -22.766  0.00  0.00     0.110 C 
ATOM     14  S3B NTO d 869     -14.325  16.296 -22.673  0.00  0.00     0.252 S 
ATOM     15  S4B NTO d 869     -22.458  21.963 -20.792  0.00  0.00     0.252 S 
ATOM     16  O24 NTO d 869     -10.615  16.488 -25.125  0.00  0.00    -0.646 OA
ATOM     17  O45 NTO d 869     -15.841  19.537 -20.282  0.00  0.00    -0.646 OA
ATOM     18  C20 NTO d 869      -9.446  19.311 -24.143  0.00  0.00     0.103 C 
ATOM     19  C1E NTO d 869      -6.280  20.627 -25.056  0.00  0.00     0.081 C 
ATOM     20  O3J NTO d 869     -19.082  15.725 -25.001  0.00  0.00    -0.296 OA
ATOM     21  O38 NTO d 869     -14.389  23.532 -27.032  0.00  0.00    -0.572 OA
ATOM     22  O18 NTO d 869      -4.476  15.080 -22.134  0.00  0.00    -0.572 OA
ATOM     23  C31 NTO d 869     -15.482  20.855 -23.242  0.00  0.00     0.091 C 
ATOM     24  O52 NTO d 869     -21.376  18.376 -15.217  0.00  0.00    -0.349 OA
ATOM     25  C46 NTO d 869     -19.658  20.396 -21.766  0.00  0.00     0.094 C 
ATOM     26  O5M NTO d 869     -21.507  20.117 -13.589  0.00  0.00    -0.364 OA
ATOM     27  O3D NTO d 869     -13.486  15.157 -23.172  0.00  0.00    -0.572 OA
ATOM     28  C51 NTO d 869     -21.598  19.170 -16.394  0.00  0.00     0.091 C 
ATOM     29  C5F NTO d 869     -19.357  19.658 -14.667  0.00  0.00     0.081 C 
ATOM     30  C59 NTO d 869     -19.556  20.494 -15.932  0.00  0.00     0.083 C 
ATOM     31  C21 NTO d 869     -10.619  18.869 -25.005  0.00  0.00     0.152 C 
ATOM     32  C26 NTO d 869      -9.788  20.685 -23.570  0.00  0.00     0.092 C 
ATOM     33  O47 NTO d 869     -20.072  21.219 -22.861  0.00  0.00    -0.390 OA
ATOM     34  O1J NTO d 869      -6.892  24.377 -25.484  0.00  0.00    -0.296 OA
ATOM     35  C5N NTO d 869     -22.350  19.525 -12.596  0.00  0.00     0.007 C 
ATOM     36  O3K NTO d 869     -19.000  18.130 -25.382  0.00  0.00    -0.296 OA
ATOM     37  O5I NTO d 869     -16.335  19.680 -13.460  0.00  0.00    -0.296 OA
ATOM     38  S5H NTO d 869     -17.664  19.604 -12.770  0.00  0.00     0.156 S 
ATOM     39  C39 NTO d 869     -15.293  18.359 -23.280  0.00  0.00     0.108 C 
ATOM     40  C1K NTO d 869      -7.098  19.655 -24.205  0.00  0.00     0.150 C 
ATOM     41  C2C NTO d 869     -12.208  19.994 -23.628  0.00  0.00     0.160 C 
ATOM     42  O19 NTO d 869      -4.354  13.953 -24.309  0.00  0.00    -0.572 OA
ATOM     43  N5G NTO d 869     -18.751  20.483 -13.612  0.00  0.00    -0.210 NA
ATOM     44  C33 NTO d 869     -14.795  22.153 -23.677  0.00  0.00     0.067 C 
ATOM     45  O2D NTO d 869     -13.369  19.800 -22.803  0.00  0.00    -0.348 OA
ATOM     46  C12 NTO d 869      -5.315  18.623 -26.205  0.00  0.00     0.089 C 
ATOM     47  C49 NTO d 869     -20.441  20.790 -20.513  0.00  0.00     0.134 C 
ATOM     48  C53 NTO d 869     -22.296  18.273 -17.419  0.00  0.00     0.067 C 
ATOM     49  O4D NTO d 869     -22.141  22.630 -22.098  0.00  0.00    -0.572 OA
ATOM     50  O3I NTO d 869     -19.914  17.257 -23.281  0.00  0.00    -0.296 OA
ATOM     51  O10 NTO d 869      -5.253  17.944 -27.461  0.00  0.00    -0.390 OA
ATOM     52  O1A NTO d 869      -6.288  13.600 -22.843  0.00  0.00    -0.572 OA
ATOM     53  O5K NTO d 869     -17.543  20.147 -11.377  0.00  0.00    -0.296 OA
ATOM     54  O16 NTO d 869      -5.944  15.702 -23.919  0.00  0.00    -0.254 OA
ATOM     55  O56 NTO d 869     -21.251  16.126 -19.845  0.00  0.00    -0.572 OA
ATOM     56  C43 NTO d 869     -16.401  20.543 -19.792  0.00  0.00     0.206 C 
ATOM     57  O54 NTO d 869     -21.518  17.101 -17.666  0.00  0.00    -0.254 OA
ATOM     58  S55 NTO d 869     -21.995  16.075 -18.545  0.00  0.00     0.251 S 
ATOM     59  O5A NTO d 869     -18.282  20.875 -16.460  0.00  0.00    -0.391 OA
ATOM     60  O4G NTO d 869     -20.520  20.494 -18.127  0.00  0.00    -0.348 OA
ATOM     61  O3C NTO d 869     -15.661  15.766 -22.246  0.00  0.00    -0.572 OA
ATOM     62  O3M NTO d 869     -17.469  19.480 -22.056  0.00  0.00    -0.348 OA
ATOM     63  O44 NTO d 869     -15.798  21.428 -19.132  0.00  0.00    -0.646 OA
ATOM     64  C23 NTO d 869     -10.244  17.554 -25.671  0.00  0.00     0.206 C 
ATOM     65  C41 NTO d 869     -17.896  20.710 -20.017  0.00  0.00     0.152 C 
ATOM     66  O22 NTO d 869     -11.813  18.741 -24.212  0.00  0.00    -0.340 OA
ATOM     67  O1C NTO d 869      -5.147  20.828 -27.184  0.00  0.00    -0.391 OA
ATOM     68  C15 NTO d 869      -5.282  16.509 -24.895  0.00  0.00     0.067 C 
ATOM     69  N3G NTO d 869     -17.389  17.103 -23.661  0.00  0.00    -0.210 NA
ATOM     70  C40 NTO d 869     -18.167  20.605 -21.511  0.00  0.00     0.103 C 
ATOM     71  S1G NTO d 869      -6.084  23.138 -25.240  0.00  0.00     0.156 S 
ATOM     72  O1L NTO d 869      -8.273  19.350 -24.968  0.00  0.00    -0.348 OA
ATOM     73  O57 NTO d 869     -23.457  16.286 -18.803  0.00  0.00    -0.572 OA
ATOM     74  O34 NTO d 869     -14.520  22.156 -25.082  0.00  0.00    -0.254 OA
ATOM     75  O1H NTO d 869      -5.046  22.983 -26.311  0.00  0.00    -0.296 OA
ATOM     76  O27 NTO d 869      -8.737  21.130 -22.708  0.00  0.00    -0.390 OA
ATOM     77  C50 NTO d 869     -20.284  19.659 -16.984  0.00  0.00     0.095 C 
ATOM     78  O3E NTO d 869     -13.649  16.935 -21.495  0.00  0.00    -0.572 OA
ATOM     79  O25 NTO d 869      -9.566  17.606 -26.724  0.00  0.00    -0.646 OA
ATOM     80  S3H NTO d 869     -18.873  17.056 -24.343  0.00  0.00     0.156 S 
ATOM     81  S35 NTO d 869     -13.797  23.236 -25.687  0.00  0.00     0.251 S 
ATOM     82  O1I NTO d 869      -5.417  23.232 -23.898  0.00  0.00    -0.296 OA
ATOM     83  C13 NTO d 869      -6.104  17.760 -25.217  0.00  0.00     0.090 C 
ATOM     84  O58 NTO d 869     -21.787  14.740 -17.896  0.00  0.00    -0.572 OA
ATOM     85  O3A NTO d 869     -14.496  17.255 -23.722  0.00  0.00    -0.247 OA
ATOM     86  C1B NTO d 869      -5.997  19.978 -26.411  0.00  0.00     0.083 C 
ATOM     87  O4C NTO d 869     -21.945  22.800 -19.657  0.00  0.00    -0.572 OA
ATOM     88  O4E NTO d 869     -23.941  21.797 -20.652  0.00  0.00    -0.572 OA
ATOM     89  O36 NTO d 869     -12.357  22.855 -25.854  0.00  0.00    -0.572 OA
ATOM     90  O2A NTO d 869     -11.464  21.876 -22.303  0.00  0.00    -0.388 OA
ATOM     91  C30 NTO d 869     -14.574  19.679 -23.575  0.00  0.00     0.096 C 
ATOM     92  H   NTO d 869     -16.519  18.378 -25.040  0.00  0.00     0.076 H 
ATOM     93  H   NTO d 869     -20.483  18.384 -13.404  0.00  0.00     0.131 H 
ATOM     94  H   NTO d 869     -20.469  18.927 -19.447  0.00  0.00     0.133 H 
ATOM     95  H   NTO d 869      -7.761  21.930 -24.507  0.00  0.00     0.140 HD
ATOM     96  H   NTO d 869     -17.458  17.658 -12.194  0.00  0.00     0.231 HD
ATOM     97  H   NTO d 869     -18.437  19.569 -23.886  0.00  0.00     0.131 H 
ATOM     98  H   NTO d 869     -10.922  19.929 -21.932  0.00  0.00     0.094 H 
ATOM     99  H   NTO d 869      -9.258  18.638 -23.333  0.00  0.00     0.092 H 
ATOM    100  H   NTO d 869      -5.355  20.865 -24.573  0.00  0.00     0.076 H 
ATOM    101  H   NTO d 869     -19.963  15.698 -25.406  0.00  0.00     0.231 HD
ATOM    102  H   NTO d 869     -15.658  20.857 -22.187  0.00  0.00     0.090 H 
ATOM    103  H   NTO d 869     -19.844  19.369 -22.000  0.00  0.00     0.091 H 
ATOM    104  H   NTO d 869     -22.189  20.026 -16.144  0.00  0.00     0.090 H 
ATOM    105  H   NTO d 869     -18.706  18.842 -14.899  0.00  0.00     0.076 H 
ATOM    106  H   NTO d 869     -20.129  21.365 -15.689  0.00  0.00     0.089 H 
ATOM    107  H   NTO d 869     -10.827  19.603 -25.756  0.00  0.00     0.104 H 
ATOM    108  H   NTO d 869      -9.906  21.385 -24.371  0.00  0.00     0.091 H 
ATOM    109  H   NTO d 869     -19.903  22.150 -22.648  0.00  0.00     0.210 HD
ATOM    110  H   NTO d 869      -7.323  24.316 -26.352  0.00  0.00     0.231 HD
ATOM    111  H   NTO d 869     -22.962  20.281 -12.151  0.00  0.00     0.066 H 
ATOM    112  H   NTO d 869     -21.746  19.066 -11.842  0.00  0.00     0.066 H 
ATOM    113  H   NTO d 869     -22.973  18.784 -13.053  0.00  0.00     0.066 H 
ATOM    114  H   NTO d 869     -19.884  18.093 -25.780  0.00  0.00     0.231 HD
ATOM    115  H   NTO d 869     -15.684  19.158 -12.964  0.00  0.00     0.231 HD
ATOM    116  H   NTO d 869     -15.444  18.273 -22.224  0.00  0.00     0.092 H 
ATOM    117  H   NTO d 869      -7.357  20.069 -23.252  0.00  0.00     0.131 H 
ATOM    118  H   NTO d 869     -12.425  20.674 -24.424  0.00  0.00     0.133 H 
ATOM    119  H   NTO d 869     -19.480  20.813 -12.980  0.00  0.00     0.140 HD
ATOM    120  H   NTO d 869     -13.874  22.255 -23.143  0.00  0.00     0.080 H 
ATOM    121  H   NTO d 869     -15.453  22.969 -23.463  0.00  0.00     0.080 H 
ATOM    122  H   NTO d 869      -4.334  18.787 -25.811  0.00  0.00     0.091 H 
ATOM    123  H   NTO d 869     -20.217  21.808 -20.271  0.00  0.00     0.097 H 
ATOM    124  H   NTO d 869     -22.419  18.814 -18.334  0.00  0.00     0.080 H 
ATOM    125  H   NTO d 869     -23.251  17.981 -17.033  0.00  0.00     0.080 H 
ATOM    126  H   NTO d 869     -20.796  17.230 -23.684  0.00  0.00     0.231 HD
ATOM    127  H   NTO d 869      -6.152  17.807 -27.799  0.00  0.00     0.210 HD
ATOM    128  H   NTO d 869     -16.896  19.622 -10.881  0.00  0.00     0.231 HD
ATOM    129  H   NTO d 869     -17.771  20.080 -16.677  0.00  0.00     0.210 HD
ATOM    130  H   NTO d 869     -18.224  21.661 -19.653  0.00  0.00     0.104 H 
ATOM    131  H   NTO d 869      -5.580  21.686 -27.314  0.00  0.00     0.210 HD
ATOM    132  H   NTO d 869      -5.150  15.937 -25.790  0.00  0.00     0.080 H 
ATOM    133  H   NTO d 869      -4.334  16.813 -24.503  0.00  0.00     0.080 H 
ATOM    134  H   NTO d 869     -17.493  17.037 -22.648  0.00  0.00     0.140 HD
ATOM    135  H   NTO d 869     -17.838  21.512 -21.972  0.00  0.00     0.092 H 
ATOM    136  H   NTO d 869      -5.481  22.922 -27.175  0.00  0.00     0.231 HD
ATOM    137  H   NTO d 869      -8.625  20.498 -21.980  0.00  0.00     0.210 HD
ATOM    138  H   NTO d 869     -19.703  18.809 -17.278  0.00  0.00     0.091 H 
ATOM    139  H   NTO d 869      -6.092  23.332 -23.209  0.00  0.00     0.231 HD
ATOM    140  H   NTO d 869      -7.046  17.512 -25.660  0.00  0.00     0.090 H 
ATOM    141  H   NTO d 869      -6.922  19.832 -26.930  0.00  0.00     0.089 H 
ATOM    142  H   NTO d 869     -11.610  22.461 -23.063  0.00  0.00     0.210 HD
ATOM    143  H   NTO d 869     -14.324  19.686 -24.616  0.00  0.00     0.091 H 
ENDROOT
TORSDOF 46
ENDMDL
MODEL 36
REMARK VINA RESULT:      -6.0      3.139      4.662
REMARK  0 active torsions:
REMARK  status: ('A' for Active; 'I' for Inactive)
REMARK       I    between atoms: O4A_2  and  C49_47 
REMARK       I    between atoms: O4A_2  and  S4B_15 
REMARK       I    between atoms: C3F_4  and  N3G_69 
REMARK       I    between atoms: S17_5  and  O16_54 
REMARK       I    between atoms: C5L_6  and  O5M_26 
REMARK       I    between atoms: C4F_7  and  O4G_60 
REMARK       I    between atoms: N1F_9  and  C1E_19 
REMARK       I    between atoms: N1F_9  and  S1G_71 
REMARK       I    between atoms: O5J_11  and  S5H_38 
REMARK       I    between atoms: C3L_12  and  O3M_62 
REMARK       I    between atoms: C29_13  and  O2A_90 
REMARK       I    between atoms: S3B_14  and  O3A_85 
REMARK       I    between atoms: C20_18  and  O1L_72 
REMARK       I    between atoms: O3J_20  and  S3H_80 
REMARK       I    between atoms: C31_23  and  C33_44 
REMARK       I    between atoms: C46_25  and  O47_33 
REMARK       I    between atoms: O5M_26  and  C5N_35 
REMARK       I    between atoms: C51_28  and  C53_48 
REMARK       I    between atoms: C5F_29  and  N5G_43 
REMARK       I    between atoms: C59_30  and  O5A_59 
REMARK       I    between atoms: C21_31  and  C23_64 
REMARK       I    between atoms: C26_32  and  O27_76 
REMARK       I    between atoms: O1J_34  and  S1G_71 
REMARK       I    between atoms: O3K_36  and  S3H_80 
REMARK       I    between atoms: O5I_37  and  S5H_38 
REMARK       I    between atoms: S5H_38  and  O5K_53 
REMARK       I    between atoms: S5H_38  and  N5G_43 
REMARK       I    between atoms: C39_39  and  O3A_85 
REMARK       I    between atoms: C1K_40  and  O1L_72 
REMARK       I    between atoms: C2C_41  and  O2D_45 
REMARK       I    between atoms: C33_44  and  O34_74 
REMARK       I    between atoms: O2D_45  and  C30_91 
REMARK       I    between atoms: C12_46  and  O10_51 
REMARK       I    between atoms: C53_48  and  O54_57 
REMARK       I    between atoms: O3I_50  and  S3H_80 
REMARK       I    between atoms: O16_54  and  C15_68 
REMARK       I    between atoms: C43_56  and  C41_65 
REMARK       I    between atoms: O54_57  and  S55_58 
REMARK       I    between atoms: O4G_60  and  C50_77 
REMARK       I    between atoms: O3M_62  and  C40_70 
REMARK       I    between atoms: O1C_67  and  C1B_86 
REMARK       I    between atoms: C15_68  and  C13_83 
REMARK       I    between atoms: N3G_69  and  S3H_80 
REMARK       I    between atoms: S1G_71  and  O1H_75 
REMARK       I    between atoms: S1G_71  and  O1I_82 
REMARK       I    between atoms: O34_74  and  S35_81 
ROOT
ATOM      1  O42 NTO d 869     -22.420  18.004 -21.791  0.00  0.00    -0.340 OA
ATOM      2  O4A NTO d 869     -24.984  20.628 -21.561  0.00  0.00    -0.244 OA
ATOM      3  O32 NTO d 869     -19.446  21.338 -19.404  0.00  0.00    -0.349 OA
ATOM      4  C3F NTO d 869     -18.497  21.474 -21.613  0.00  0.00     0.083 C 
ATOM      5  S17 NTO d 869      -7.693  16.249 -21.867  0.00  0.00     0.251 S 
ATOM      6  C5L NTO d 869     -25.953  14.252 -23.900  0.00  0.00     0.149 C 
ATOM      7  C4F NTO d 869     -23.700  18.617 -22.007  0.00  0.00     0.161 C 
ATOM      8  O14 NTO d 869      -9.680  17.135 -18.429  0.00  0.00    -0.349 OA
ATOM      9  N1F NTO d 869     -11.009  18.454 -15.252  0.00  0.00    -0.210 NA
ATOM     10  O37 NTO d 869     -17.923  20.800 -14.913  0.00  0.00    -0.572 OA
ATOM     11  O5J NTO d 869     -23.983  11.865 -24.266  0.00  0.00    -0.296 OA
ATOM     12  C3L NTO d 869     -19.781  21.308 -20.801  0.00  0.00     0.150 C 
ATOM     13  C29 NTO d 869     -14.958  17.937 -18.085  0.00  0.00     0.110 C 
ATOM     14  S3B NTO d 869     -16.290  19.401 -23.078  0.00  0.00     0.252 S 
ATOM     15  S4B NTO d 869     -25.941  20.865 -20.525  0.00  0.00     0.252 S 
ATOM     16  O24 NTO d 869     -12.241  20.057 -21.348  0.00  0.00    -0.646 OA
ATOM     17  O45 NTO d 869     -19.621  17.729 -20.928  0.00  0.00    -0.646 OA
ATOM     18  C20 NTO d 869     -12.589  18.552 -18.534  0.00  0.00     0.103 C 
ATOM     19  C1E NTO d 869      -9.981  17.992 -16.194  0.00  0.00     0.081 C 
ATOM     20  O3J NTO d 869     -19.285  23.535 -24.599  0.00  0.00    -0.296 OA
ATOM     21  O38 NTO d 869     -17.189  23.062 -15.517  0.00  0.00    -0.572 OA
ATOM     22  O18 NTO d 869      -7.629  14.829 -21.391  0.00  0.00    -0.572 OA
ATOM     23  C31 NTO d 869     -18.643  20.203 -19.044  0.00  0.00     0.091 C 
ATOM     24  O52 NTO d 869     -25.894  15.514 -24.585  0.00  0.00    -0.349 OA
ATOM     25  C46 NTO d 869     -22.627  20.640 -20.984  0.00  0.00     0.094 C 
ATOM     26  O5M NTO d 869     -27.228  14.017 -23.291  0.00  0.00    -0.364 OA
ATOM     27  O3D NTO d 869     -14.986  19.551 -23.804  0.00  0.00    -0.572 OA
ATOM     28  C51 NTO d 869     -25.912  16.640 -23.692  0.00  0.00     0.091 C 
ATOM     29  C5F NTO d 869     -24.816  14.111 -22.885  0.00  0.00     0.081 C 
ATOM     30  C59 NTO d 869     -24.794  15.304 -21.929  0.00  0.00     0.083 C 
ATOM     31  C21 NTO d 869     -13.114  19.845 -19.139  0.00  0.00     0.152 C 
ATOM     32  C26 NTO d 869     -13.576  18.116 -17.452  0.00  0.00     0.092 C 
ATOM     33  O47 NTO d 869     -22.850  21.771 -20.136  0.00  0.00    -0.390 OA
ATOM     34  O1J NTO d 869     -11.641  18.473 -12.782  0.00  0.00    -0.296 OA
ATOM     35  C5N NTO d 869     -28.125  13.497 -24.277  0.00  0.00     0.007 C 
ATOM     36  O3K NTO d 869     -19.901  23.740 -22.251  0.00  0.00    -0.296 OA
ATOM     37  O5I NTO d 869     -22.691  11.746 -22.188  0.00  0.00    -0.296 OA
ATOM     38  S5H NTO d 869     -24.068  11.683 -22.780  0.00  0.00     0.156 S 
ATOM     39  C39 NTO d 869     -17.603  20.268 -21.320  0.00  0.00     0.108 C 
ATOM     40  C1K NTO d 869     -10.672  17.606 -17.503  0.00  0.00     0.150 C 
ATOM     41  C2C NTO d 869     -15.390  19.215 -18.809  0.00  0.00     0.160 C 
ATOM     42  O19 NTO d 869      -6.305  16.798 -22.014  0.00  0.00    -0.572 OA
ATOM     43  N5G NTO d 869     -24.983  12.864 -22.125  0.00  0.00    -0.210 NA
ATOM     44  C33 NTO d 869     -18.336  20.252 -17.544  0.00  0.00     0.067 C 
ATOM     45  O2D NTO d 869     -16.632  18.964 -19.486  0.00  0.00    -0.348 OA
ATOM     46  C12 NTO d 869      -8.024  18.715 -17.576  0.00  0.00     0.089 C 
ATOM     47  C49 NTO d 869     -23.912  19.816 -21.077  0.00  0.00     0.134 C 
ATOM     48  C53 NTO d 869     -25.810  17.901 -24.552  0.00  0.00     0.067 C 
ATOM     49  O4D NTO d 869     -25.403  21.885 -19.566  0.00  0.00    -0.572 OA
ATOM     50  O3I NTO d 869     -21.184  22.258 -23.725  0.00  0.00    -0.296 OA
ATOM     51  O10 NTO d 869      -7.257  19.858 -17.963  0.00  0.00    -0.390 OA
ATOM     52  O1A NTO d 869      -8.400  16.298 -23.187  0.00  0.00    -0.572 OA
ATOM     53  O5K NTO d 869     -24.682  10.346 -22.490  0.00  0.00    -0.296 OA
ATOM     54  O16 NTO d 869      -8.423  17.035 -20.918  0.00  0.00    -0.254 OA
ATOM     55  O56 NTO d 869     -23.246  19.755 -25.811  0.00  0.00    -0.572 OA
ATOM     56  C43 NTO d 869     -20.637  17.476 -20.240  0.00  0.00     0.206 C 
ATOM     57  O54 NTO d 869     -24.643  17.849 -25.375  0.00  0.00    -0.254 OA
ATOM     58  S55 NTO d 869     -24.363  18.891 -26.317  0.00  0.00     0.251 S 
ATOM     59  O5A NTO d 869     -23.632  15.231 -21.097  0.00  0.00    -0.391 OA
ATOM     60  O4G NTO d 869     -24.786  17.699 -21.814  0.00  0.00    -0.348 OA
ATOM     61  O3C NTO d 869     -17.415  19.599 -24.049  0.00  0.00    -0.572 OA
ATOM     62  O3M NTO d 869     -20.322  20.023 -21.139  0.00  0.00    -0.348 OA
ATOM     63  O44 NTO d 869     -20.676  16.585 -19.352  0.00  0.00    -0.646 OA
ATOM     64  C23 NTO d 869     -12.084  20.349 -20.138  0.00  0.00     0.206 C 
ATOM     65  C41 NTO d 869     -21.890  18.301 -20.487  0.00  0.00     0.152 C 
ATOM     66  O22 NTO d 869     -14.395  19.634 -19.758  0.00  0.00    -0.340 OA
ATOM     67  O1C NTO d 869      -8.270  19.436 -15.280  0.00  0.00    -0.391 OA
ATOM     68  C15 NTO d 869      -7.763  17.608 -19.787  0.00  0.00     0.067 C 
ATOM     69  N3G NTO d 869     -18.820  21.549 -23.050  0.00  0.00    -0.210 NA
ATOM     70  C40 NTO d 869     -21.518  19.774 -20.392  0.00  0.00     0.103 C 
ATOM     71  S1G NTO d 869     -10.613  17.966 -13.749  0.00  0.00     0.156 S 
ATOM     72  O1L NTO d 869     -11.283  18.806 -17.999  0.00  0.00    -0.348 OA
ATOM     73  O57 NTO d 869     -25.591  19.731 -26.506  0.00  0.00    -0.572 OA
ATOM     74  O34 NTO d 869     -17.567  21.409 -17.203  0.00  0.00    -0.254 OA
ATOM     75  O1H NTO d 869      -9.261  18.507 -13.390  0.00  0.00    -0.296 OA
ATOM     76  O27 NTO d 869     -13.156  16.873 -16.881  0.00  0.00    -0.390 OA
ATOM     77  C50 NTO d 869     -24.729  16.600 -22.736  0.00  0.00     0.095 C 
ATOM     78  O3E NTO d 869     -16.380  18.022 -22.493  0.00  0.00    -0.572 OA
ATOM     79  O25 NTO d 869     -11.120  21.017 -19.696  0.00  0.00    -0.646 OA
ATOM     80  S3H NTO d 869     -19.817  22.792 -23.409  0.00  0.00     0.156 S 
ATOM     81  S35 NTO d 869     -17.091  21.607 -15.865  0.00  0.00     0.251 S 
ATOM     82  O1I NTO d 869     -10.584  16.466 -13.708  0.00  0.00    -0.296 OA
ATOM     83  C13 NTO d 869      -8.778  18.190 -18.799  0.00  0.00     0.090 C 
ATOM     84  O58 NTO d 869     -23.969  18.275 -27.625  0.00  0.00    -0.572 OA
ATOM     85  O3A NTO d 869     -16.369  20.382 -22.038  0.00  0.00    -0.247 OA
ATOM     86  C1B NTO d 869      -8.999  19.130 -16.471  0.00  0.00     0.083 C 
ATOM     87  O4C NTO d 869     -26.222  19.584 -19.796  0.00  0.00    -0.572 OA
ATOM     88  O4E NTO d 869     -27.209  21.367 -21.146  0.00  0.00    -0.572 OA
ATOM     89  O36 NTO d 869     -15.660  21.170 -15.764  0.00  0.00    -0.572 OA
ATOM     90  O2A NTO d 869     -15.907  17.619 -17.066  0.00  0.00    -0.388 OA
ATOM     91  C30 NTO d 869     -17.330  20.175 -19.815  0.00  0.00     0.096 C 
ATOM     92  H   NTO d 869     -17.990  22.377 -21.345  0.00  0.00     0.076 H 
ATOM     93  H   NTO d 869     -25.822  13.495 -24.644  0.00  0.00     0.131 H 
ATOM     94  H   NTO d 869     -23.697  18.943 -23.026  0.00  0.00     0.133 H 
ATOM     95  H   NTO d 869     -11.912  18.059 -15.513  0.00  0.00     0.140 HD
ATOM     96  H   NTO d 869     -23.437  11.160 -24.648  0.00  0.00     0.231 HD
ATOM     97  H   NTO d 869     -20.486  22.085 -21.009  0.00  0.00     0.131 H 
ATOM     98  H   NTO d 869     -14.910  17.141 -18.798  0.00  0.00     0.094 H 
ATOM     99  H   NTO d 869     -12.504  17.768 -19.257  0.00  0.00     0.092 H 
ATOM    100  H   NTO d 869      -9.455  17.155 -15.784  0.00  0.00     0.076 H 
ATOM    101  H   NTO d 869     -19.877  24.273 -24.812  0.00  0.00     0.231 HD
ATOM    102  H   NTO d 869     -19.196  19.320 -19.287  0.00  0.00     0.090 H 
ATOM    103  H   NTO d 869     -22.342  20.975 -21.959  0.00  0.00     0.091 H 
ATOM    104  H   NTO d 869     -26.810  16.624 -23.110  0.00  0.00     0.090 H 
ATOM    105  H   NTO d 869     -23.887  14.084 -23.414  0.00  0.00     0.076 H 
ATOM    106  H   NTO d 869     -25.679  15.287 -21.328  0.00  0.00     0.089 H 
ATOM    107  H   NTO d 869     -13.260  20.581 -18.376  0.00  0.00     0.104 H 
ATOM    108  H   NTO d 869     -13.615  18.861 -16.685  0.00  0.00     0.091 H 
ATOM    109  H   NTO d 869     -23.108  21.465 -19.252  0.00  0.00     0.210 HD
ATOM    110  H   NTO d 869     -11.659  19.442 -12.809  0.00  0.00     0.231 HD
ATOM    111  H   NTO d 869     -29.081  13.318 -23.832  0.00  0.00     0.066 H 
ATOM    112  H   NTO d 869     -27.735  12.580 -24.666  0.00  0.00     0.066 H 
ATOM    113  H   NTO d 869     -28.229  14.205 -25.073  0.00  0.00     0.066 H 
ATOM    114  H   NTO d 869     -20.495  24.474 -22.476  0.00  0.00     0.231 HD
ATOM    115  H   NTO d 869     -22.141  11.046 -22.574  0.00  0.00     0.231 HD
ATOM    116  H   NTO d 869     -18.104  19.378 -21.639  0.00  0.00     0.092 H 
ATOM    117  H   NTO d 869     -11.399  16.833 -17.367  0.00  0.00     0.131 H 
ATOM    118  H   NTO d 869     -15.508  19.998 -18.090  0.00  0.00     0.133 H 
ATOM    119  H   NTO d 869     -25.963  12.583 -22.148  0.00  0.00     0.140 HD
ATOM    120  H   NTO d 869     -17.785  19.377 -17.273  0.00  0.00     0.080 H 
ATOM    121  H   NTO d 869     -19.265  20.298 -17.013  0.00  0.00     0.080 H 
ATOM    122  H   NTO d 869      -7.389  17.939 -17.203  0.00  0.00     0.091 H 
ATOM    123  H   NTO d 869     -24.164  19.457 -20.101  0.00  0.00     0.097 H 
ATOM    124  H   NTO d 869     -25.754  18.759 -23.915  0.00  0.00     0.080 H 
ATOM    125  H   NTO d 869     -26.674  17.965 -25.180  0.00  0.00     0.080 H 
ATOM    126  H   NTO d 869     -21.777  22.995 -23.938  0.00  0.00     0.231 HD
ATOM    127  H   NTO d 869      -7.852  20.548 -18.297  0.00  0.00     0.210 HD
ATOM    128  H   NTO d 869     -24.134   9.647 -22.881  0.00  0.00     0.231 HD
ATOM    129  H   NTO d 869     -22.837  15.248 -21.651  0.00  0.00     0.210 HD
ATOM    130  H   NTO d 869     -22.639  18.067 -19.759  0.00  0.00     0.104 H 
ATOM    131  H   NTO d 869      -8.888  19.698 -14.580  0.00  0.00     0.210 HD
ATOM    132  H   NTO d 869      -7.111  18.388 -20.120  0.00  0.00     0.080 H 
ATOM    133  H   NTO d 869      -7.205  16.840 -19.292  0.00  0.00     0.080 H 
ATOM    134  H   NTO d 869     -19.272  20.677 -23.328  0.00  0.00     0.140 HD
ATOM    135  H   NTO d 869     -21.373  20.013 -19.360  0.00  0.00     0.092 H 
ATOM    136  H   NTO d 869      -9.284  19.476 -13.418  0.00  0.00     0.231 HD
ATOM    137  H   NTO d 869     -13.120  16.195 -17.574  0.00  0.00     0.210 HD
ATOM    138  H   NTO d 869     -23.825  16.660 -23.306  0.00  0.00     0.091 H 
ATOM    139  H   NTO d 869     -11.460  16.120 -13.941  0.00  0.00     0.231 HD
ATOM    140  H   NTO d 869      -9.331  18.998 -19.231  0.00  0.00     0.090 H 
ATOM    141  H   NTO d 869      -9.544  19.995 -16.786  0.00  0.00     0.089 H 
ATOM    142  H   NTO d 869     -15.946  18.344 -16.422  0.00  0.00     0.210 HD
ATOM    143  H   NTO d 869     -16.722  21.013 -19.545  0.00  0.00     0.091 H 
ENDROOT
TORSDOF 46
ENDMDL
MODEL 37
REMARK VINA RESULT:      -6.0      4.398      6.333
REMARK  0 active torsions:
REMARK  status: ('A' for Active; 'I' for Inactive)
REMARK       I    between atoms: O4A_2  and  C49_47 
REMARK       I    between atoms: O4A_2  and  S4B_15 
REMARK       I    between atoms: C3F_4  and  N3G_69 
REMARK       I    between atoms: S17_5  and  O16_54 
REMARK       I    between atoms: C5L_6  and  O5M_26 
REMARK       I    between atoms: C4F_7  and  O4G_60 
REMARK       I    between atoms: N1F_9  and  C1E_19 
REMARK       I    between atoms: N1F_9  and  S1G_71 
REMARK       I    between atoms: O5J_11  and  S5H_38 
REMARK       I    between atoms: C3L_12  and  O3M_62 
REMARK       I    between atoms: C29_13  and  O2A_90 
REMARK       I    between atoms: S3B_14  and  O3A_85 
REMARK       I    between atoms: C20_18  and  O1L_72 
REMARK       I    between atoms: O3J_20  and  S3H_80 
REMARK       I    between atoms: C31_23  and  C33_44 
REMARK       I    between atoms: C46_25  and  O47_33 
REMARK       I    between atoms: O5M_26  and  C5N_35 
REMARK       I    between atoms: C51_28  and  C53_48 
REMARK       I    between atoms: C5F_29  and  N5G_43 
REMARK       I    between atoms: C59_30  and  O5A_59 
REMARK       I    between atoms: C21_31  and  C23_64 
REMARK       I    between atoms: C26_32  and  O27_76 
REMARK       I    between atoms: O1J_34  and  S1G_71 
REMARK       I    between atoms: O3K_36  and  S3H_80 
REMARK       I    between atoms: O5I_37  and  S5H_38 
REMARK       I    between atoms: S5H_38  and  O5K_53 
REMARK       I    between atoms: S5H_38  and  N5G_43 
REMARK       I    between atoms: C39_39  and  O3A_85 
REMARK       I    between atoms: C1K_40  and  O1L_72 
REMARK       I    between atoms: C2C_41  and  O2D_45 
REMARK       I    between atoms: C33_44  and  O34_74 
REMARK       I    between atoms: O2D_45  and  C30_91 
REMARK       I    between atoms: C12_46  and  O10_51 
REMARK       I    between atoms: C53_48  and  O54_57 
REMARK       I    between atoms: O3I_50  and  S3H_80 
REMARK       I    between atoms: O16_54  and  C15_68 
REMARK       I    between atoms: C43_56  and  C41_65 
REMARK       I    between atoms: O54_57  and  S55_58 
REMARK       I    between atoms: O4G_60  and  C50_77 
REMARK       I    between atoms: O3M_62  and  C40_70 
REMARK       I    between atoms: O1C_67  and  C1B_86 
REMARK       I    between atoms: C15_68  and  C13_83 
REMARK       I    between atoms: N3G_69  and  S3H_80 
REMARK       I    between atoms: S1G_71  and  O1H_75 
REMARK       I    between atoms: S1G_71  and  O1I_82 
REMARK       I    between atoms: O34_74  and  S35_81 
ROOT
ATOM      1  O42 NTO d 869     -22.713  16.617 -22.440  0.00  0.00    -0.340 OA
ATOM      2  O4A NTO d 869     -24.124  18.059 -25.511  0.00  0.00    -0.244 OA
ATOM      3  O32 NTO d 869     -20.190  20.994 -22.087  0.00  0.00    -0.349 OA
ATOM      4  C3F NTO d 869     -18.382  19.550 -22.754  0.00  0.00     0.083 C 
ATOM      5  S17 NTO d 869     -10.876  17.704 -13.570  0.00  0.00     0.251 S 
ATOM      6  C5L NTO d 869     -25.962  12.100 -22.655  0.00  0.00     0.149 C 
ATOM      7  C4F NTO d 869     -23.497  16.645 -23.642  0.00  0.00     0.161 C 
ATOM      8  O14 NTO d 869     -13.765  20.569 -13.569  0.00  0.00    -0.349 OA
ATOM      9  N1F NTO d 869     -15.847  23.611 -13.658  0.00  0.00    -0.210 NA
ATOM     10  O37 NTO d 869     -21.049  24.294 -18.747  0.00  0.00    -0.572 OA
ATOM     11  O5J NTO d 869     -24.914  10.613 -20.124  0.00  0.00    -0.296 OA
ATOM     12  C3L NTO d 869     -19.869  19.864 -22.913  0.00  0.00     0.150 C 
ATOM     13  C29 NTO d 869     -18.090  20.529 -16.717  0.00  0.00     0.110 C 
ATOM     14  S3B NTO d 869     -16.553  17.464 -20.851  0.00  0.00     0.252 S 
ATOM     15  S4B NTO d 869     -25.305  18.850 -25.677  0.00  0.00     0.252 S 
ATOM     16  O24 NTO d 869     -13.699  19.812 -18.369  0.00  0.00    -0.646 OA
ATOM     17  O45 NTO d 869     -20.829  17.527 -20.372  0.00  0.00    -0.646 OA
ATOM     18  C20 NTO d 869     -15.707  20.941 -16.133  0.00  0.00     0.103 C 
ATOM     19  C1E NTO d 869     -14.721  22.761 -13.252  0.00  0.00     0.081 C 
ATOM     20  O3J NTO d 869     -17.074  18.469 -26.056  0.00  0.00    -0.296 OA
ATOM     21  O38 NTO d 869     -19.441  25.380 -20.249  0.00  0.00    -0.572 OA
ATOM     22  O18 NTO d 869     -11.486  17.176 -12.307  0.00  0.00    -0.572 OA
ATOM     23  C31 NTO d 869     -20.037  20.672 -20.695  0.00  0.00     0.091 C 
ATOM     24  O52 NTO d 869     -25.208  12.388 -23.844  0.00  0.00    -0.349 OA
ATOM     25  C46 NTO d 869     -22.394  18.866 -24.014  0.00  0.00     0.094 C 
ATOM     26  O5M NTO d 869     -27.375  12.218 -22.860  0.00  0.00    -0.364 OA
ATOM     27  O3D NTO d 869     -15.092  17.208 -20.629  0.00  0.00    -0.572 OA
ATOM     28  C51 NTO d 869     -25.252  13.776 -24.214  0.00  0.00     0.091 C 
ATOM     29  C5F NTO d 869     -25.497  12.954 -21.474  0.00  0.00     0.081 C 
ATOM     30  C59 NTO d 869     -25.514  14.439 -21.842  0.00  0.00     0.083 C 
ATOM     31  C21 NTO d 869     -15.467  21.220 -17.609  0.00  0.00     0.152 C 
ATOM     32  C26 NTO d 869     -17.149  21.334 -15.819  0.00  0.00     0.092 C 
ATOM     33  O47 NTO d 869     -22.588  20.192 -24.517  0.00  0.00    -0.390 OA
ATOM     34  O1J NTO d 869     -17.453  25.400 -12.809  0.00  0.00    -0.296 OA
ATOM     35  C5N NTO d 869     -27.864  11.003 -23.437  0.00  0.00     0.007 C 
ATOM     36  O3K NTO d 869     -18.554  20.286 -25.389  0.00  0.00    -0.296 OA
ATOM     37  O5I NTO d 869     -24.777  12.311 -18.365  0.00  0.00    -0.296 OA
ATOM     38  S5H NTO d 869     -25.694  11.612 -19.323  0.00  0.00     0.156 S 
ATOM     39  C39 NTO d 869     -18.147  19.145 -21.297  0.00  0.00     0.108 C 
ATOM     40  C1K NTO d 869     -14.851  21.418 -13.971  0.00  0.00     0.150 C 
ATOM     41  C2C NTO d 869     -17.725  20.724 -18.192  0.00  0.00     0.160 C 
ATOM     42  O19 NTO d 869      -9.470  18.152 -13.304  0.00  0.00    -0.572 OA
ATOM     43  N5G NTO d 869     -26.371  12.716 -20.316  0.00  0.00    -0.210 NA
ATOM     44  C33 NTO d 869     -20.420  21.888 -19.846  0.00  0.00     0.067 C 
ATOM     45  O2D NTO d 869     -18.553  19.860 -18.989  0.00  0.00    -0.348 OA
ATOM     46  C12 NTO d 869     -12.239  22.471 -13.408  0.00  0.00     0.089 C 
ATOM     47  C49 NTO d 869     -23.696  18.077 -24.147  0.00  0.00     0.134 C 
ATOM     48  C53 NTO d 869     -24.384  13.938 -25.465  0.00  0.00     0.067 C 
ATOM     49  O4D NTO d 869     -24.945  20.305 -25.652  0.00  0.00    -0.572 OA
ATOM     50  O3I NTO d 869     -19.462  18.033 -25.724  0.00  0.00    -0.296 OA
ATOM     51  O10 NTO d 869     -11.059  23.018 -14.001  0.00  0.00    -0.390 OA
ATOM     52  O1A NTO d 869     -10.876  16.625 -14.609  0.00  0.00    -0.572 OA
ATOM     53  O5K NTO d 869     -26.767  10.891 -18.561  0.00  0.00    -0.296 OA
ATOM     54  O16 NTO d 869     -11.652  18.810 -14.046  0.00  0.00    -0.254 OA
ATOM     55  O56 NTO d 869     -21.085  14.549 -26.043  0.00  0.00    -0.572 OA
ATOM     56  C43 NTO d 869     -22.064  17.732 -20.390  0.00  0.00     0.206 C 
ATOM     57  O54 NTO d 869     -23.061  13.460 -25.217  0.00  0.00    -0.254 OA
ATOM     58  S55 NTO d 869     -22.079  13.447 -26.260  0.00  0.00     0.251 S 
ATOM     59  O5A NTO d 869     -24.926  15.202 -20.783  0.00  0.00    -0.391 OA
ATOM     60  O4G NTO d 869     -24.788  16.044 -23.468  0.00  0.00    -0.348 OA
ATOM     61  O3C NTO d 869     -17.009  16.680 -22.045  0.00  0.00    -0.572 OA
ATOM     62  O3M NTO d 869     -20.587  18.711 -22.454  0.00  0.00    -0.348 OA
ATOM     63  O44 NTO d 869     -22.772  17.836 -19.355  0.00  0.00    -0.646 OA
ATOM     64  C23 NTO d 869     -14.003  20.939 -17.910  0.00  0.00     0.206 C 
ATOM     65  C41 NTO d 869     -22.744  17.875 -21.743  0.00  0.00     0.152 C 
ATOM     66  O22 NTO d 869     -16.340  20.420 -18.426  0.00  0.00    -0.340 OA
ATOM     67  O1C NTO d 869     -13.220  24.631 -12.936  0.00  0.00    -0.391 OA
ATOM     68  C15 NTO d 869     -11.408  20.132 -13.559  0.00  0.00     0.067 C 
ATOM     69  N3G NTO d 869     -18.001  18.458 -23.668  0.00  0.00    -0.210 NA
ATOM     70  C40 NTO d 869     -21.999  18.937 -22.540  0.00  0.00     0.103 C 
ATOM     71  S1G NTO d 869     -16.329  24.503 -12.382  0.00  0.00     0.156 S 
ATOM     72  O1L NTO d 869     -14.763  21.708 -15.373  0.00  0.00    -0.348 OA
ATOM     73  O57 NTO d 869     -22.758  13.647 -27.582  0.00  0.00    -0.572 OA
ATOM     74  O34 NTO d 869     -19.552  22.998 -20.096  0.00  0.00    -0.254 OA
ATOM     75  O1H NTO d 869     -15.177  25.325 -11.886  0.00  0.00    -0.296 OA
ATOM     76  O27 NTO d 869     -17.445  21.045 -14.449  0.00  0.00    -0.390 OA
ATOM     77  C50 NTO d 869     -24.689  14.657 -23.109  0.00  0.00     0.095 C 
ATOM     78  O3E NTO d 869     -17.328  17.021 -19.645  0.00  0.00    -0.572 OA
ATOM     79  O25 NTO d 869     -13.172  21.845 -17.665  0.00  0.00    -0.646 OA
ATOM     80  S3H NTO d 869     -18.281  18.819 -25.236  0.00  0.00     0.156 S 
ATOM     81  S35 NTO d 869     -19.674  24.211 -19.341  0.00  0.00     0.251 S 
ATOM     82  O1I NTO d 869     -16.805  23.588 -11.291  0.00  0.00    -0.296 OA
ATOM     83  C13 NTO d 869     -12.506  21.094 -14.021  0.00  0.00     0.090 C 
ATOM     84  O58 NTO d 869     -21.374  12.125 -26.251  0.00  0.00    -0.572 OA
ATOM     85  O3A NTO d 869     -16.760  18.862 -21.081  0.00  0.00    -0.247 OA
ATOM     86  C1B NTO d 869     -13.409  23.422 -13.675  0.00  0.00     0.083 C 
ATOM     87  O4C NTO d 869     -26.272  18.548 -24.569  0.00  0.00    -0.572 OA
ATOM     88  O4E NTO d 869     -25.936  18.502 -26.991  0.00  0.00    -0.572 OA
ATOM     89  O36 NTO d 869     -18.657  24.230 -18.240  0.00  0.00    -0.572 OA
ATOM     90  O2A NTO d 869     -19.435  20.956 -16.496  0.00  0.00    -0.388 OA
ATOM     91  C30 NTO d 869     -18.606  20.270 -20.364  0.00  0.00     0.096 C 
ATOM     92  H   NTO d 869     -17.783  20.403 -22.996  0.00  0.00     0.076 H 
ATOM     93  H   NTO d 869     -25.770  11.076 -22.413  0.00  0.00     0.131 H 
ATOM     94  H   NTO d 869     -22.943  16.079 -24.361  0.00  0.00     0.133 H 
ATOM     95  H   NTO d 869     -16.619  23.025 -13.976  0.00  0.00     0.140 HD
ATOM     96  H   NTO d 869     -24.515   9.960 -19.527  0.00  0.00     0.231 HD
ATOM     97  H   NTO d 869     -20.121  20.090 -23.929  0.00  0.00     0.131 H 
ATOM     98  H   NTO d 869     -17.994  19.491 -16.476  0.00  0.00     0.094 H 
ATOM     99  H   NTO d 869     -15.570  19.909 -15.886  0.00  0.00     0.092 H 
ATOM    100  H   NTO d 869     -14.727  22.623 -12.190  0.00  0.00     0.076 H 
ATOM    101  H   NTO d 869     -17.242  18.684 -26.987  0.00  0.00     0.231 HD
ATOM    102  H   NTO d 869     -20.678  19.844 -20.479  0.00  0.00     0.090 H 
ATOM    103  H   NTO d 869     -21.620  18.383 -24.572  0.00  0.00     0.091 H 
ATOM    104  H   NTO d 869     -26.266  14.069 -24.390  0.00  0.00     0.090 H 
ATOM    105  H   NTO d 869     -24.494  12.678 -21.226  0.00  0.00     0.076 H 
ATOM    106  H   NTO d 869     -26.526  14.749 -22.000  0.00  0.00     0.089 H 
ATOM    107  H   NTO d 869     -15.687  22.243 -17.835  0.00  0.00     0.104 H 
ATOM    108  H   NTO d 869     -17.278  22.382 -15.993  0.00  0.00     0.091 H 
ATOM    109  H   NTO d 869     -23.290  20.630 -24.010  0.00  0.00     0.210 HD
ATOM    110  H   NTO d 869     -17.145  25.991 -13.513  0.00  0.00     0.231 HD
ATOM    111  H   NTO d 869     -28.919  11.081 -23.594  0.00  0.00     0.066 H 
ATOM    112  H   NTO d 869     -27.661  10.187 -22.775  0.00  0.00     0.066 H 
ATOM    113  H   NTO d 869     -27.375  10.831 -24.373  0.00  0.00     0.066 H 
ATOM    114  H   NTO d 869     -18.719  20.489 -26.323  0.00  0.00     0.231 HD
ATOM    115  H   NTO d 869     -24.371  11.659 -17.772  0.00  0.00     0.231 HD
ATOM    116  H   NTO d 869     -18.714  18.263 -21.086  0.00  0.00     0.092 H 
ATOM    117  H   NTO d 869     -15.770  20.920 -13.740  0.00  0.00     0.131 H 
ATOM    118  H   NTO d 869     -17.888  21.746 -18.458  0.00  0.00     0.133 H 
ATOM    119  H   NTO d 869     -27.274  12.371 -20.639  0.00  0.00     0.140 HD
ATOM    120  H   NTO d 869     -20.357  21.624 -18.812  0.00  0.00     0.080 H 
ATOM    121  H   NTO d 869     -21.418  22.178 -20.106  0.00  0.00     0.080 H 
ATOM    122  H   NTO d 869     -12.119  22.359 -12.351  0.00  0.00     0.091 H 
ATOM    123  H   NTO d 869     -24.451  18.552 -23.555  0.00  0.00     0.097 H 
ATOM    124  H   NTO d 869     -24.341  14.973 -25.732  0.00  0.00     0.080 H 
ATOM    125  H   NTO d 869     -24.815  13.370 -26.263  0.00  0.00     0.080 H 
ATOM    126  H   NTO d 869     -19.630  18.246 -26.655  0.00  0.00     0.231 HD
ATOM    127  H   NTO d 869     -11.191  23.110 -14.957  0.00  0.00     0.210 HD
ATOM    128  H   NTO d 869     -26.360  10.236 -17.973  0.00  0.00     0.231 HD
ATOM    129  H   NTO d 869     -24.010  14.914 -20.648  0.00  0.00     0.210 HD
ATOM    130  H   NTO d 869     -23.766  18.165 -21.617  0.00  0.00     0.104 H 
ATOM    131  H   NTO d 869     -13.961  25.233 -13.105  0.00  0.00     0.210 HD
ATOM    132  H   NTO d 869     -10.464  20.473 -13.930  0.00  0.00     0.080 H 
ATOM    133  H   NTO d 869     -11.403  20.107 -12.489  0.00  0.00     0.080 H 
ATOM    134  H   NTO d 869     -18.538  17.625 -23.424  0.00  0.00     0.140 HD
ATOM    135  H   NTO d 869     -22.253  19.894 -22.136  0.00  0.00     0.092 H 
ATOM    136  H   NTO d 869     -14.873  25.914 -12.594  0.00  0.00     0.231 HD
ATOM    137  H   NTO d 869     -17.330  20.096 -14.286  0.00  0.00     0.210 HD
ATOM    138  H   NTO d 869     -23.662  14.401 -22.956  0.00  0.00     0.091 H 
ATOM    139  H   NTO d 869     -17.550  23.059 -11.616  0.00  0.00     0.231 HD
ATOM    140  H   NTO d 869     -12.522  21.194 -15.086  0.00  0.00     0.090 H 
ATOM    141  H   NTO d 869     -13.450  23.647 -14.720  0.00  0.00     0.089 H 
ATOM    142  H   NTO d 869     -19.516  21.897 -16.716  0.00  0.00     0.210 HD
ATOM    143  H   NTO d 869     -17.944  21.099 -20.507  0.00  0.00     0.091 H 
ENDROOT
TORSDOF 46
ENDMDL
MODEL 38
REMARK VINA RESULT:      -5.9      4.659      5.861
REMARK  0 active torsions:
REMARK  status: ('A' for Active; 'I' for Inactive)
REMARK       I    between atoms: O4A_2  and  C49_47 
REMARK       I    between atoms: O4A_2  and  S4B_15 
REMARK       I    between atoms: C3F_4  and  N3G_69 
REMARK       I    between atoms: S17_5  and  O16_54 
REMARK       I    between atoms: C5L_6  and  O5M_26 
REMARK       I    between atoms: C4F_7  and  O4G_60 
REMARK       I    between atoms: N1F_9  and  C1E_19 
REMARK       I    between atoms: N1F_9  and  S1G_71 
REMARK       I    between atoms: O5J_11  and  S5H_38 
REMARK       I    between atoms: C3L_12  and  O3M_62 
REMARK       I    between atoms: C29_13  and  O2A_90 
REMARK       I    between atoms: S3B_14  and  O3A_85 
REMARK       I    between atoms: C20_18  and  O1L_72 
REMARK       I    between atoms: O3J_20  and  S3H_80 
REMARK       I    between atoms: C31_23  and  C33_44 
REMARK       I    between atoms: C46_25  and  O47_33 
REMARK       I    between atoms: O5M_26  and  C5N_35 
REMARK       I    between atoms: C51_28  and  C53_48 
REMARK       I    between atoms: C5F_29  and  N5G_43 
REMARK       I    between atoms: C59_30  and  O5A_59 
REMARK       I    between atoms: C21_31  and  C23_64 
REMARK       I    between atoms: C26_32  and  O27_76 
REMARK       I    between atoms: O1J_34  and  S1G_71 
REMARK       I    between atoms: O3K_36  and  S3H_80 
REMARK       I    between atoms: O5I_37  and  S5H_38 
REMARK       I    between atoms: S5H_38  and  O5K_53 
REMARK       I    between atoms: S5H_38  and  N5G_43 
REMARK       I    between atoms: C39_39  and  O3A_85 
REMARK       I    between atoms: C1K_40  and  O1L_72 
REMARK       I    between atoms: C2C_41  and  O2D_45 
REMARK       I    between atoms: C33_44  and  O34_74 
REMARK       I    between atoms: O2D_45  and  C30_91 
REMARK       I    between atoms: C12_46  and  O10_51 
REMARK       I    between atoms: C53_48  and  O54_57 
REMARK       I    between atoms: O3I_50  and  S3H_80 
REMARK       I    between atoms: O16_54  and  C15_68 
REMARK       I    between atoms: C43_56  and  C41_65 
REMARK       I    between atoms: O54_57  and  S55_58 
REMARK       I    between atoms: O4G_60  and  C50_77 
REMARK       I    between atoms: O3M_62  and  C40_70 
REMARK       I    between atoms: O1C_67  and  C1B_86 
REMARK       I    between atoms: C15_68  and  C13_83 
REMARK       I    between atoms: N3G_69  and  S3H_80 
REMARK       I    between atoms: S1G_71  and  O1H_75 
REMARK       I    between atoms: S1G_71  and  O1I_82 
REMARK       I    between atoms: O34_74  and  S35_81 
ROOT
ATOM      1  O42 NTO d 869     -19.718  21.298 -20.619  0.00  0.00    -0.340 OA
ATOM      2  O4A NTO d 869     -22.372  22.815 -22.661  0.00  0.00    -0.244 OA
ATOM      3  O32 NTO d 869     -16.940  21.572 -24.845  0.00  0.00    -0.349 OA
ATOM      4  C3F NTO d 869     -17.356  19.200 -24.800  0.00  0.00     0.083 C 
ATOM      5  S17 NTO d 869      -7.340  13.236 -21.937  0.00  0.00     0.251 S 
ATOM      6  C5L NTO d 869     -22.696  21.575 -15.922  0.00  0.00     0.149 C 
ATOM      7  C4F NTO d 869     -21.031  21.799 -20.911  0.00  0.00     0.161 C 
ATOM      8  O14 NTO d 869      -7.395  17.173 -22.961  0.00  0.00    -0.349 OA
ATOM      9  N1F NTO d 869      -7.166  20.518 -24.494  0.00  0.00    -0.210 NA
ATOM     10  O37 NTO d 869     -13.221  24.513 -25.394  0.00  0.00    -0.572 OA
ATOM     11  O5J NTO d 869     -20.658  20.263 -13.963  0.00  0.00    -0.296 OA
ATOM     12  C3L NTO d 869     -17.931  20.586 -24.512  0.00  0.00     0.150 C 
ATOM     13  C29 NTO d 869     -11.712  20.322 -22.709  0.00  0.00     0.110 C 
ATOM     14  S3B NTO d 869     -15.780  16.829 -23.008  0.00  0.00     0.252 S 
ATOM     15  S4B NTO d 869     -22.671  24.198 -22.867  0.00  0.00     0.252 S 
ATOM     16  O24 NTO d 869     -11.765  16.044 -24.762  0.00  0.00    -0.646 OA
ATOM     17  O45 NTO d 869     -16.924  20.499 -21.074  0.00  0.00    -0.646 OA
ATOM     18  C20 NTO d 869     -10.185  18.633 -23.713  0.00  0.00     0.103 C 
ATOM     19  C1E NTO d 869      -6.701  19.182 -24.101  0.00  0.00     0.081 C 
ATOM     20  O3J NTO d 869     -20.094  17.071 -26.123  0.00  0.00    -0.296 OA
ATOM     21  O38 NTO d 869     -13.536  23.539 -27.624  0.00  0.00    -0.572 OA
ATOM     22  O18 NTO d 869      -6.665  13.641 -20.661  0.00  0.00    -0.572 OA
ATOM     23  C31 NTO d 869     -15.801  21.467 -23.977  0.00  0.00     0.091 C 
ATOM     24  O52 NTO d 869     -23.338  20.933 -17.035  0.00  0.00    -0.349 OA
ATOM     25  C46 NTO d 869     -20.161  22.009 -23.254  0.00  0.00     0.094 C 
ATOM     26  O5M NTO d 869     -23.352  22.790 -15.536  0.00  0.00    -0.364 OA
ATOM     27  O3D NTO d 869     -15.141  15.504 -23.298  0.00  0.00    -0.572 OA
ATOM     28  C51 NTO d 869     -23.183  21.657 -18.267  0.00  0.00     0.091 C 
ATOM     29  C5F NTO d 869     -21.207  21.808 -16.189  0.00  0.00     0.081 C 
ATOM     30  C59 NTO d 869     -21.006  22.560 -17.505  0.00  0.00     0.083 C 
ATOM     31  C21 NTO d 869     -11.267  18.376 -24.750  0.00  0.00     0.152 C 
ATOM     32  C26 NTO d 869     -10.308  20.091 -23.272  0.00  0.00     0.092 C 
ATOM     33  O47 NTO d 869     -20.198  22.807 -24.441  0.00  0.00    -0.390 OA
ATOM     34  O1J NTO d 869      -6.398  22.931 -24.798  0.00  0.00    -0.296 OA
ATOM     35  C5N NTO d 869     -24.457  22.469 -14.685  0.00  0.00     0.007 C 
ATOM     36  O3K NTO d 869     -19.426  19.367 -26.589  0.00  0.00    -0.296 OA
ATOM     37  O5I NTO d 869     -18.495  21.299 -14.463  0.00  0.00    -0.296 OA
ATOM     38  S5H NTO d 869     -19.904  21.558 -14.020  0.00  0.00     0.156 S 
ATOM     39  C39 NTO d 869     -16.159  18.992 -23.869  0.00  0.00     0.108 C 
ATOM     40  C1K NTO d 869      -7.842  18.476 -23.368  0.00  0.00     0.150 C 
ATOM     41  C2C NTO d 869     -12.776  19.915 -23.731  0.00  0.00     0.160 C 
ATOM     42  O19 NTO d 869      -6.435  12.338 -22.726  0.00  0.00    -0.572 OA
ATOM     43  N5G NTO d 869     -20.618  22.572 -15.080  0.00  0.00    -0.210 NA
ATOM     44  C33 NTO d 869     -14.783  22.554 -24.339  0.00  0.00     0.067 C 
ATOM     45  O2D NTO d 869     -14.072  20.035 -23.120  0.00  0.00    -0.348 OA
ATOM     46  C12 NTO d 869      -6.023  16.935 -24.968  0.00  0.00     0.089 C 
ATOM     47  C49 NTO d 869     -21.035  22.658 -22.179  0.00  0.00     0.134 C 
ATOM     48  C53 NTO d 869     -23.881  20.844 -19.360  0.00  0.00     0.067 C 
ATOM     49  O4D NTO d 869     -22.004  24.676 -24.123  0.00  0.00    -0.572 OA
ATOM     50  O3I NTO d 869     -20.844  18.879 -24.649  0.00  0.00    -0.296 OA
ATOM     51  O10 NTO d 869      -5.904  16.158 -26.163  0.00  0.00    -0.390 OA
ATOM     52  O1A NTO d 869      -8.614  12.516 -21.617  0.00  0.00    -0.572 OA
ATOM     53  O5K NTO d 869     -19.899  22.177 -12.653  0.00  0.00    -0.296 OA
ATOM     54  O16 NTO d 869      -7.645  14.406 -22.705  0.00  0.00    -0.254 OA
ATOM     55  O56 NTO d 869     -22.945  18.334 -21.462  0.00  0.00    -0.572 OA
ATOM     56  C43 NTO d 869     -17.323  21.637 -20.737  0.00  0.00     0.206 C 
ATOM     57  O54 NTO d 869     -23.349  19.519 -19.411  0.00  0.00    -0.254 OA
ATOM     58  S55 NTO d 869     -23.887  18.547 -20.315  0.00  0.00     0.251 S 
ATOM     59  O5A NTO d 869     -19.610  22.623 -17.813  0.00  0.00    -0.391 OA
ATOM     60  O4G NTO d 869     -21.570  22.581 -19.835  0.00  0.00    -0.348 OA
ATOM     61  O3C NTO d 869     -17.252  16.626 -22.804  0.00  0.00    -0.572 OA
ATOM     62  O3M NTO d 869     -18.208  20.637 -23.106  0.00  0.00    -0.348 OA
ATOM     63  O44 NTO d 869     -16.658  22.428 -20.019  0.00  0.00    -0.646 OA
ATOM     64  C23 NTO d 869     -11.085  16.962 -25.280  0.00  0.00     0.206 C 
ATOM     65  C41 NTO d 869     -18.687  22.091 -21.233  0.00  0.00     0.152 C 
ATOM     66  O22 NTO d 869     -12.574  18.564 -24.179  0.00  0.00    -0.340 OA
ATOM     67  O1C NTO d 869      -5.216  18.969 -25.999  0.00  0.00    -0.391 OA
ATOM     68  C15 NTO d 869      -6.671  14.974 -23.582  0.00  0.00     0.067 C 
ATOM     69  N3G NTO d 869     -18.386  18.172 -24.564  0.00  0.00    -0.210 NA
ATOM     70  C40 NTO d 869     -18.724  21.924 -22.745  0.00  0.00     0.103 C 
ATOM     71  S1G NTO d 869      -5.933  21.574 -24.358  0.00  0.00     0.156 S 
ATOM     72  O1L NTO d 869      -8.913  18.360 -24.315  0.00  0.00    -0.348 OA
ATOM     73  O57 NTO d 869     -25.204  19.035 -20.840  0.00  0.00    -0.572 OA
ATOM     74  O34 NTO d 869     -14.286  22.385 -25.670  0.00  0.00    -0.254 OA
ATOM     75  O1H NTO d 869      -4.792  21.120 -25.217  0.00  0.00    -0.296 OA
ATOM     76  O27 NTO d 869      -9.342  20.376 -22.256  0.00  0.00    -0.390 OA
ATOM     77  C50 NTO d 869     -21.715  21.811 -18.633  0.00  0.00     0.095 C 
ATOM     78  O3E NTO d 869     -15.185  17.408 -21.758  0.00  0.00    -0.572 OA
ATOM     79  O25 NTO d 869     -10.248  16.785 -26.196  0.00  0.00    -0.646 OA
ATOM     80  S3H NTO d 869     -19.711  18.380 -25.498  0.00  0.00     0.156 S 
ATOM     81  S35 NTO d 869     -13.254  23.238 -26.183  0.00  0.00     0.251 S 
ATOM     82  O1I NTO d 869      -5.493  21.637 -22.924  0.00  0.00    -0.296 OA
ATOM     83  C13 NTO d 869      -7.134  16.339 -24.101  0.00  0.00     0.090 C 
ATOM     84  O58 NTO d 869     -24.086  17.255 -19.581  0.00  0.00    -0.572 OA
ATOM     85  O3A NTO d 869     -15.562  17.713 -24.112  0.00  0.00    -0.247 OA
ATOM     86  C1B NTO d 869      -6.348  18.380 -25.354  0.00  0.00     0.083 C 
ATOM     87  O4C NTO d 869     -22.182  25.000 -21.697  0.00  0.00    -0.572 OA
ATOM     88  O4E NTO d 869     -24.156  24.356 -22.987  0.00  0.00    -0.572 OA
ATOM     89  O36 NTO d 869     -11.925  22.553 -26.073  0.00  0.00    -0.572 OA
ATOM     90  O2A NTO d 869     -11.868  21.703 -22.379  0.00  0.00    -0.388 OA
ATOM     91  C30 NTO d 869     -15.129  20.105 -24.089  0.00  0.00     0.096 C 
ATOM     92  H   NTO d 869     -17.043  19.121 -25.820  0.00  0.00     0.076 H 
ATOM     93  H   NTO d 869     -22.778  20.904 -15.093  0.00  0.00     0.131 H 
ATOM     94  H   NTO d 869     -21.645  20.935 -21.054  0.00  0.00     0.133 H 
ATOM     95  H   NTO d 869      -7.931  20.806 -23.884  0.00  0.00     0.140 HD
ATOM     96  H   NTO d 869     -20.227  19.666 -13.331  0.00  0.00     0.231 HD
ATOM     97  H   NTO d 869     -18.817  20.775 -25.082  0.00  0.00     0.131 H 
ATOM     98  H   NTO d 869     -11.835  19.723 -21.831  0.00  0.00     0.094 H 
ATOM     99  H   NTO d 869     -10.286  18.005 -22.853  0.00  0.00     0.092 H 
ATOM    100  H   NTO d 869      -5.840  19.262 -23.471  0.00  0.00     0.076 H 
ATOM    101  H   NTO d 869     -20.881  17.195 -26.677  0.00  0.00     0.231 HD
ATOM    102  H   NTO d 869     -16.143  21.592 -22.971  0.00  0.00     0.090 H 
ATOM    103  H   NTO d 869     -20.526  21.027 -23.471  0.00  0.00     0.091 H 
ATOM    104  H   NTO d 869     -23.605  22.635 -18.165  0.00  0.00     0.090 H 
ATOM    105  H   NTO d 869     -20.721  20.858 -16.265  0.00  0.00     0.076 H 
ATOM    106  H   NTO d 869     -21.406  23.548 -17.408  0.00  0.00     0.089 H 
ATOM    107  H   NTO d 869     -11.182  19.073 -25.558  0.00  0.00     0.104 H 
ATOM    108  H   NTO d 869     -10.136  20.732 -24.111  0.00  0.00     0.091 H 
ATOM    109  H   NTO d 869     -19.867  23.697 -24.242  0.00  0.00     0.210 HD
ATOM    110  H   NTO d 869      -6.682  22.890 -25.725  0.00  0.00     0.231 HD
ATOM    111  H   NTO d 869     -24.953  23.370 -14.391  0.00  0.00     0.066 H 
ATOM    112  H   NTO d 869     -24.101  21.959 -13.815  0.00  0.00     0.066 H 
ATOM    113  H   NTO d 869     -25.142  21.839 -15.212  0.00  0.00     0.066 H 
ATOM    114  H   NTO d 869     -20.218  19.482 -27.137  0.00  0.00     0.231 HD
ATOM    115  H   NTO d 869     -18.065  20.696 -13.836  0.00  0.00     0.231 HD
ATOM    116  H   NTO d 869     -16.498  19.026 -22.855  0.00  0.00     0.092 H 
ATOM    117  H   NTO d 869      -8.158  19.010 -22.496  0.00  0.00     0.131 H 
ATOM    118  H   NTO d 869     -12.705  20.558 -24.583  0.00  0.00     0.133 H 
ATOM    119  H   NTO d 869     -21.351  23.097 -14.605  0.00  0.00     0.140 HD
ATOM    120  H   NTO d 869     -13.964  22.505 -23.653  0.00  0.00     0.080 H 
ATOM    121  H   NTO d 869     -15.273  23.504 -24.282  0.00  0.00     0.080 H 
ATOM    122  H   NTO d 869      -5.108  16.923 -24.413  0.00  0.00     0.091 H 
ATOM    123  H   NTO d 869     -20.636  23.623 -21.946  0.00  0.00     0.097 H 
ATOM    124  H   NTO d 869     -23.730  21.321 -20.305  0.00  0.00     0.080 H 
ATOM    125  H   NTO d 869     -24.927  20.789 -19.139  0.00  0.00     0.080 H 
ATOM    126  H   NTO d 869     -21.631  19.003 -25.202  0.00  0.00     0.231 HD
ATOM    127  H   NTO d 869      -6.742  16.183 -26.649  0.00  0.00     0.210 HD
ATOM    128  H   NTO d 869     -19.474  21.570 -12.026  0.00  0.00     0.231 HD
ATOM    129  H   NTO d 869     -19.257  21.725 -17.900  0.00  0.00     0.210 HD
ATOM    130  H   NTO d 869     -18.854  23.117 -20.976  0.00  0.00     0.104 H 
ATOM    131  H   NTO d 869      -5.423  19.885 -26.242  0.00  0.00     0.210 HD
ATOM    132  H   NTO d 869      -6.521  14.316 -24.413  0.00  0.00     0.080 H 
ATOM    133  H   NTO d 869      -5.757  15.106 -23.040  0.00  0.00     0.080 H 
ATOM    134  H   NTO d 869     -18.669  18.212 -23.584  0.00  0.00     0.140 HD
ATOM    135  H   NTO d 869     -18.132  22.701 -23.180  0.00  0.00     0.092 H 
ATOM    136  H   NTO d 869      -5.080  21.081 -26.143  0.00  0.00     0.231 HD
ATOM    137  H   NTO d 869      -9.494  19.797 -21.492  0.00  0.00     0.210 HD
ATOM    138  H   NTO d 869     -21.294  20.839 -18.780  0.00  0.00     0.091 H 
ATOM    139  H   NTO d 869      -6.234  21.932 -22.372  0.00  0.00     0.231 HD
ATOM    140  H   NTO d 869      -8.020  16.256 -24.694  0.00  0.00     0.090 H 
ATOM    141  H   NTO d 869      -7.183  18.388 -26.023  0.00  0.00     0.089 H 
ATOM    142  H   NTO d 869     -11.755  22.241 -23.178  0.00  0.00     0.210 HD
ATOM    143  H   NTO d 869     -14.716  19.974 -25.068  0.00  0.00     0.091 H 
ENDROOT
TORSDOF 46
ENDMDL
MODEL 39
REMARK VINA RESULT:      -5.9      3.679     13.753
REMARK  0 active torsions:
REMARK  status: ('A' for Active; 'I' for Inactive)
REMARK       I    between atoms: O4A_2  and  C49_47 
REMARK       I    between atoms: O4A_2  and  S4B_15 
REMARK       I    between atoms: C3F_4  and  N3G_69 
REMARK       I    between atoms: S17_5  and  O16_54 
REMARK       I    between atoms: C5L_6  and  O5M_26 
REMARK       I    between atoms: C4F_7  and  O4G_60 
REMARK       I    between atoms: N1F_9  and  C1E_19 
REMARK       I    between atoms: N1F_9  and  S1G_71 
REMARK       I    between atoms: O5J_11  and  S5H_38 
REMARK       I    between atoms: C3L_12  and  O3M_62 
REMARK       I    between atoms: C29_13  and  O2A_90 
REMARK       I    between atoms: S3B_14  and  O3A_85 
REMARK       I    between atoms: C20_18  and  O1L_72 
REMARK       I    between atoms: O3J_20  and  S3H_80 
REMARK       I    between atoms: C31_23  and  C33_44 
REMARK       I    between atoms: C46_25  and  O47_33 
REMARK       I    between atoms: O5M_26  and  C5N_35 
REMARK       I    between atoms: C51_28  and  C53_48 
REMARK       I    between atoms: C5F_29  and  N5G_43 
REMARK       I    between atoms: C59_30  and  O5A_59 
REMARK       I    between atoms: C21_31  and  C23_64 
REMARK       I    between atoms: C26_32  and  O27_76 
REMARK       I    between atoms: O1J_34  and  S1G_71 
REMARK       I    between atoms: O3K_36  and  S3H_80 
REMARK       I    between atoms: O5I_37  and  S5H_38 
REMARK       I    between atoms: S5H_38  and  O5K_53 
REMARK       I    between atoms: S5H_38  and  N5G_43 
REMARK       I    between atoms: C39_39  and  O3A_85 
REMARK       I    between atoms: C1K_40  and  O1L_72 
REMARK       I    between atoms: C2C_41  and  O2D_45 
REMARK       I    between atoms: C33_44  and  O34_74 
REMARK       I    between atoms: O2D_45  and  C30_91 
REMARK       I    between atoms: C12_46  and  O10_51 
REMARK       I    between atoms: C53_48  and  O54_57 
REMARK       I    between atoms: O3I_50  and  S3H_80 
REMARK       I    between atoms: O16_54  and  C15_68 
REMARK       I    between atoms: C43_56  and  C41_65 
REMARK       I    between atoms: O54_57  and  S55_58 
REMARK       I    between atoms: O4G_60  and  C50_77 
REMARK       I    between atoms: O3M_62  and  C40_70 
REMARK       I    between atoms: O1C_67  and  C1B_86 
REMARK       I    between atoms: C15_68  and  C13_83 
REMARK       I    between atoms: N3G_69  and  S3H_80 
REMARK       I    between atoms: S1G_71  and  O1H_75 
REMARK       I    between atoms: S1G_71  and  O1I_82 
REMARK       I    between atoms: O34_74  and  S35_81 
ROOT
ATOM      1  O42 NTO d 869     -13.014  19.330 -19.213  0.00  0.00    -0.340 OA
ATOM      2  O4A NTO d 869     -11.311  22.580 -18.989  0.00  0.00    -0.244 OA
ATOM      3  O32 NTO d 869     -16.649  21.561 -16.480  0.00  0.00    -0.349 OA
ATOM      4  C3F NTO d 869     -15.691  20.145 -14.783  0.00  0.00     0.083 C 
ATOM      5  S17 NTO d 869     -23.142  11.108 -12.158  0.00  0.00     0.251 S 
ATOM      6  C5L NTO d 869      -9.216  17.188 -22.675  0.00  0.00     0.149 C 
ATOM      7  C4F NTO d 869     -11.953  20.278 -19.409  0.00  0.00     0.161 C 
ATOM      8  O14 NTO d 869     -24.237  14.359 -14.345  0.00  0.00    -0.349 OA
ATOM      9  N1F NTO d 869     -25.576  17.495 -15.746  0.00  0.00    -0.210 NA
ATOM     10  O37 NTO d 869     -20.978  22.628 -18.184  0.00  0.00    -0.572 OA
ATOM     11  O5J NTO d 869     -10.402  14.325 -23.006  0.00  0.00    -0.296 OA
ATOM     12  C3L NTO d 869     -15.407  21.017 -16.005  0.00  0.00     0.150 C 
ATOM     13  C29 NTO d 869     -20.830  17.587 -16.911  0.00  0.00     0.110 C 
ATOM     14  S3B NTO d 869     -16.230  16.871 -14.234  0.00  0.00     0.252 S 
ATOM     15  S4B NTO d 869     -11.397  23.706 -19.867  0.00  0.00     0.252 S 
ATOM     16  O24 NTO d 869     -20.238  16.300 -12.382  0.00  0.00    -0.646 OA
ATOM     17  O45 NTO d 869     -15.574  18.237 -18.261  0.00  0.00    -0.646 OA
ATOM     18  C20 NTO d 869     -22.104  16.716 -14.960  0.00  0.00     0.103 C 
ATOM     19  C1E NTO d 869     -25.616  16.217 -15.026  0.00  0.00     0.081 C 
ATOM     20  O3J NTO d 869     -12.896  20.589 -12.379  0.00  0.00    -0.296 OA
ATOM     21  O38 NTO d 869     -20.948  23.663 -15.959  0.00  0.00    -0.572 OA
ATOM     22  O18 NTO d 869     -23.591  10.259 -13.309  0.00  0.00    -0.572 OA
ATOM     23  C31 NTO d 869     -17.509  20.521 -16.971  0.00  0.00     0.091 C 
ATOM     24  O52 NTO d 869      -8.705  17.761 -21.460  0.00  0.00    -0.349 OA
ATOM     25  C46 NTO d 869     -13.348  21.766 -17.950  0.00  0.00     0.094 C 
ATOM     26  O5M NTO d 869      -8.792  17.907 -23.841  0.00  0.00    -0.364 OA
ATOM     27  O3D NTO d 869     -16.591  16.020 -13.053  0.00  0.00    -0.572 OA
ATOM     28  C51 NTO d 869      -9.295  19.034 -21.148  0.00  0.00     0.091 C 
ATOM     29  C5F NTO d 869     -10.738  17.044 -22.633  0.00  0.00     0.081 C 
ATOM     30  C59 NTO d 869     -11.397  18.380 -22.284  0.00  0.00     0.083 C 
ATOM     31  C21 NTO d 869     -21.251  17.624 -14.088  0.00  0.00     0.152 C 
ATOM     32  C26 NTO d 869     -22.230  17.380 -16.330  0.00  0.00     0.092 C 
ATOM     33  O47 NTO d 869     -13.763  23.117 -17.727  0.00  0.00    -0.390 OA
ATOM     34  O1J NTO d 869     -26.934  19.003 -17.290  0.00  0.00    -0.296 OA
ATOM     35  C5N NTO d 869      -7.482  17.463 -24.208  0.00  0.00     0.007 C 
ATOM     36  O3K NTO d 869     -14.169  22.168 -13.729  0.00  0.00    -0.296 OA
ATOM     37  O5I NTO d 869     -12.802  14.641 -23.379  0.00  0.00    -0.296 OA
ATOM     38  S5H NTO d 869     -11.431  14.951 -23.900  0.00  0.00     0.156 S 
ATOM     39  C39 NTO d 869     -16.568  18.978 -15.239  0.00  0.00     0.108 C 
ATOM     40  C1K NTO d 869     -24.209  15.620 -15.031  0.00  0.00     0.150 C 
ATOM     41  C2C NTO d 869     -19.955  18.383 -15.939  0.00  0.00     0.160 C 
ATOM     42  O19 NTO d 869     -23.965  10.792 -10.944  0.00  0.00    -0.572 OA
ATOM     43  N5G NTO d 869     -11.228  16.570 -23.935  0.00  0.00    -0.210 NA
ATOM     44  C33 NTO d 869     -18.807  21.141 -17.499  0.00  0.00     0.067 C 
ATOM     45  O2D NTO d 869     -18.621  18.450 -16.470  0.00  0.00    -0.348 OA
ATOM     46  C12 NTO d 869     -25.927  15.165 -12.776  0.00  0.00     0.089 C 
ATOM     47  C49 NTO d 869     -12.433  21.713 -19.174  0.00  0.00     0.134 C 
ATOM     48  C53 NTO d 869      -8.688  19.501 -19.823  0.00  0.00     0.067 C 
ATOM     49  O4D NTO d 869     -12.420  24.673 -19.348  0.00  0.00    -0.572 OA
ATOM     50  O3I NTO d 869     -12.281  20.958 -14.722  0.00  0.00    -0.296 OA
ATOM     51  O10 NTO d 869     -26.124  15.464 -11.391  0.00  0.00    -0.390 OA
ATOM     52  O1A NTO d 869     -21.696  10.834 -11.875  0.00  0.00    -0.572 OA
ATOM     53  O5K NTO d 869     -11.275  14.391 -25.283  0.00  0.00    -0.296 OA
ATOM     54  O16 NTO d 869     -23.297  12.490 -12.498  0.00  0.00    -0.254 OA
ATOM     55  O56 NTO d 869      -9.456  19.062 -16.536  0.00  0.00    -0.572 OA
ATOM     56  C43 NTO d 869     -15.387  18.858 -19.332  0.00  0.00     0.206 C 
ATOM     57  O54 NTO d 869      -8.894  18.518 -18.808  0.00  0.00    -0.254 OA
ATOM     58  S55 NTO d 869      -8.358  18.700 -17.492  0.00  0.00     0.251 S 
ATOM     59  O5A NTO d 869     -12.802  18.185 -22.092  0.00  0.00    -0.391 OA
ATOM     60  O4G NTO d 869     -11.387  20.201 -20.725  0.00  0.00    -0.348 OA
ATOM     61  O3C NTO d 869     -14.744  17.072 -14.254  0.00  0.00    -0.572 OA
ATOM     62  O3M NTO d 869     -14.843  20.157 -17.005  0.00  0.00    -0.348 OA
ATOM     63  O44 NTO d 869     -16.041  18.649 -20.386  0.00  0.00    -0.646 OA
ATOM     64  C23 NTO d 869     -21.211  17.029 -12.688  0.00  0.00     0.206 C 
ATOM     65  C41 NTO d 869     -14.312  19.934 -19.355  0.00  0.00     0.152 C 
ATOM     66  O22 NTO d 869     -19.930  17.766 -14.641  0.00  0.00    -0.340 OA
ATOM     67  O1C NTO d 869     -27.395  16.927 -13.548  0.00  0.00    -0.391 OA
ATOM     68  C15 NTO d 869     -24.547  13.152 -12.297  0.00  0.00     0.067 C 
ATOM     69  N3G NTO d 869     -14.423  19.655 -14.212  0.00  0.00    -0.210 NA
ATOM     70  C40 NTO d 869     -14.575  20.894 -18.204  0.00  0.00     0.103 C 
ATOM     71  S1G NTO d 869     -26.959  17.679 -16.587  0.00  0.00     0.156 S 
ATOM     72  O1L NTO d 869     -23.379  16.552 -14.323  0.00  0.00    -0.348 OA
ATOM     73  O57 NTO d 869      -7.342  19.803 -17.519  0.00  0.00    -0.572 OA
ATOM     74  O34 NTO d 869     -19.534  21.802 -16.459  0.00  0.00    -0.254 OA
ATOM     75  O1H NTO d 869     -28.125  17.620 -15.645  0.00  0.00    -0.296 OA
ATOM     76  O27 NTO d 869     -22.985  16.543 -17.211  0.00  0.00    -0.390 OA
ATOM     77  C50 NTO d 869     -10.802  18.915 -20.982  0.00  0.00     0.095 C 
ATOM     78  O3E NTO d 869     -16.650  16.177 -15.497  0.00  0.00    -0.572 OA
ATOM     79  O25 NTO d 869     -22.166  17.286 -11.917  0.00  0.00    -0.646 OA
ATOM     80  S3H NTO d 869     -13.425  20.866 -13.755  0.00  0.00     0.156 S 
ATOM     81  S35 NTO d 869     -20.824  22.373 -16.713  0.00  0.00     0.251 S 
ATOM     82  O1I NTO d 869     -27.071  16.577 -17.600  0.00  0.00    -0.296 OA
ATOM     83  C13 NTO d 869     -24.543  14.537 -12.952  0.00  0.00     0.090 C 
ATOM     84  O58 NTO d 869      -7.705  17.426 -17.049  0.00  0.00    -0.572 OA
ATOM     85  O3A NTO d 869     -16.889  18.137 -14.125  0.00  0.00    -0.247 OA
ATOM     86  C1B NTO d 869     -26.042  16.464 -13.579  0.00  0.00     0.083 C 
ATOM     87  O4C NTO d 869     -11.787  23.244 -21.241  0.00  0.00    -0.572 OA
ATOM     88  O4E NTO d 869     -10.055  24.369 -19.932  0.00  0.00    -0.572 OA
ATOM     89  O36 NTO d 869     -21.898  21.430 -16.259  0.00  0.00    -0.572 OA
ATOM     90  O2A NTO d 869     -20.932  18.291 -18.150  0.00  0.00    -0.388 OA
ATOM     91  C30 NTO d 869     -17.852  19.512 -15.883  0.00  0.00     0.096 C 
ATOM     92  H   NTO d 869     -16.196  20.706 -14.024  0.00  0.00     0.076 H 
ATOM     93  H   NTO d 869      -8.796  16.207 -22.749  0.00  0.00     0.131 H 
ATOM     94  H   NTO d 869     -11.202  20.022 -18.691  0.00  0.00     0.133 H 
ATOM     95  H   NTO d 869     -24.783  17.500 -16.388  0.00  0.00     0.140 HD
ATOM     96  H   NTO d 869     -10.529  13.364 -22.990  0.00  0.00     0.231 HD
ATOM     97  H   NTO d 869     -14.738  21.821 -15.774  0.00  0.00     0.131 H 
ATOM     98  H   NTO d 869     -20.378  16.631 -17.073  0.00  0.00     0.094 H 
ATOM     99  H   NTO d 869     -21.670  15.746 -15.087  0.00  0.00     0.092 H 
ATOM    100  H   NTO d 869     -26.311  15.551 -15.495  0.00  0.00     0.076 H 
ATOM    101  H   NTO d 869     -12.304  21.308 -12.109  0.00  0.00     0.231 HD
ATOM    102  H   NTO d 869     -16.990  20.009 -17.754  0.00  0.00     0.090 H 
ATOM    103  H   NTO d 869     -12.822  21.408 -17.090  0.00  0.00     0.091 H 
ATOM    104  H   NTO d 869      -9.101  19.724 -21.943  0.00  0.00     0.090 H 
ATOM    105  H   NTO d 869     -10.993  16.333 -21.875  0.00  0.00     0.076 H 
ATOM    106  H   NTO d 869     -11.227  19.072 -23.081  0.00  0.00     0.089 H 
ATOM    107  H   NTO d 869     -21.674  18.606 -14.046  0.00  0.00     0.104 H 
ATOM    108  H   NTO d 869     -22.729  18.321 -16.225  0.00  0.00     0.091 H 
ATOM    109  H   NTO d 869     -14.240  23.441 -18.507  0.00  0.00     0.210 HD
ATOM    110  H   NTO d 869     -26.862  19.715 -16.635  0.00  0.00     0.231 HD
ATOM    111  H   NTO d 869      -7.157  17.995 -25.078  0.00  0.00     0.066 H 
ATOM    112  H   NTO d 869      -7.506  16.415 -24.419  0.00  0.00     0.066 H 
ATOM    113  H   NTO d 869      -6.803  17.649 -23.402  0.00  0.00     0.066 H 
ATOM    114  H   NTO d 869     -13.568  22.878 -13.457  0.00  0.00     0.231 HD
ATOM    115  H   NTO d 869     -12.928  13.679 -23.356  0.00  0.00     0.231 HD
ATOM    116  H   NTO d 869     -16.030  18.400 -15.961  0.00  0.00     0.092 H 
ATOM    117  H   NTO d 869     -23.840  15.455 -16.022  0.00  0.00     0.131 H 
ATOM    118  H   NTO d 869     -20.362  19.366 -15.829  0.00  0.00     0.133 H 
ATOM    119  H   NTO d 869     -10.550  16.809 -24.658  0.00  0.00     0.140 HD
ATOM    120  H   NTO d 869     -19.418  20.368 -17.913  0.00  0.00     0.080 H 
ATOM    121  H   NTO d 869     -18.553  21.867 -18.244  0.00  0.00     0.080 H 
ATOM    122  H   NTO d 869     -26.666  14.476 -13.126  0.00  0.00     0.091 H 
ATOM    123  H   NTO d 869     -12.984  22.040 -20.031  0.00  0.00     0.097 H 
ATOM    124  H   NTO d 869      -9.153  20.418 -19.527  0.00  0.00     0.080 H 
ATOM    125  H   NTO d 869      -7.636  19.649 -19.956  0.00  0.00     0.080 H 
ATOM    126  H   NTO d 869     -11.688  21.676 -14.452  0.00  0.00     0.231 HD
ATOM    127  H   NTO d 869     -25.444  16.090 -11.096  0.00  0.00     0.210 HD
ATOM    128  H   NTO d 869     -11.397  13.429 -25.257  0.00  0.00     0.231 HD
ATOM    129  H   NTO d 869     -12.945  17.557 -21.367  0.00  0.00     0.210 HD
ATOM    130  H   NTO d 869     -14.337  20.465 -20.284  0.00  0.00     0.104 H 
ATOM    131  H   NTO d 869     -27.467  17.749 -14.057  0.00  0.00     0.210 HD
ATOM    132  H   NTO d 869     -24.720  13.263 -11.247  0.00  0.00     0.080 H 
ATOM    133  H   NTO d 869     -25.322  12.564 -12.744  0.00  0.00     0.080 H 
ATOM    134  H   NTO d 869     -13.947  19.088 -14.914  0.00  0.00     0.140 HD
ATOM    135  H   NTO d 869     -15.414  21.505 -18.465  0.00  0.00     0.092 H 
ATOM    136  H   NTO d 869     -28.049  18.334 -14.993  0.00  0.00     0.231 HD
ATOM    137  H   NTO d 869     -22.536  15.688 -17.309  0.00  0.00     0.210 HD
ATOM    138  H   NTO d 869     -11.006  18.260 -20.161  0.00  0.00     0.091 H 
ATOM    139  H   NTO d 869     -26.316  16.618 -18.207  0.00  0.00     0.231 HD
ATOM    140  H   NTO d 869     -23.817  15.183 -12.507  0.00  0.00     0.090 H 
ATOM    141  H   NTO d 869     -25.403  17.205 -13.146  0.00  0.00     0.089 H 
ATOM    142  H   NTO d 869     -21.342  19.157 -17.998  0.00  0.00     0.210 HD
ATOM    143  H   NTO d 869     -18.430  19.978 -15.113  0.00  0.00     0.091 H 
ENDROOT
TORSDOF 46
ENDMDL
MODEL 40
REMARK VINA RESULT:      -5.8      3.766     14.325
REMARK  0 active torsions:
REMARK  status: ('A' for Active; 'I' for Inactive)
REMARK       I    between atoms: O4A_2  and  C49_47 
REMARK       I    between atoms: O4A_2  and  S4B_15 
REMARK       I    between atoms: C3F_4  and  N3G_69 
REMARK       I    between atoms: S17_5  and  O16_54 
REMARK       I    between atoms: C5L_6  and  O5M_26 
REMARK       I    between atoms: C4F_7  and  O4G_60 
REMARK       I    between atoms: N1F_9  and  C1E_19 
REMARK       I    between atoms: N1F_9  and  S1G_71 
REMARK       I    between atoms: O5J_11  and  S5H_38 
REMARK       I    between atoms: C3L_12  and  O3M_62 
REMARK       I    between atoms: C29_13  and  O2A_90 
REMARK       I    between atoms: S3B_14  and  O3A_85 
REMARK       I    between atoms: C20_18  and  O1L_72 
REMARK       I    between atoms: O3J_20  and  S3H_80 
REMARK       I    between atoms: C31_23  and  C33_44 
REMARK       I    between atoms: C46_25  and  O47_33 
REMARK       I    between atoms: O5M_26  and  C5N_35 
REMARK       I    between atoms: C51_28  and  C53_48 
REMARK       I    between atoms: C5F_29  and  N5G_43 
REMARK       I    between atoms: C59_30  and  O5A_59 
REMARK       I    between atoms: C21_31  and  C23_64 
REMARK       I    between atoms: C26_32  and  O27_76 
REMARK       I    between atoms: O1J_34  and  S1G_71 
REMARK       I    between atoms: O3K_36  and  S3H_80 
REMARK       I    between atoms: O5I_37  and  S5H_38 
REMARK       I    between atoms: S5H_38  and  O5K_53 
REMARK       I    between atoms: S5H_38  and  N5G_43 
REMARK       I    between atoms: C39_39  and  O3A_85 
REMARK       I    between atoms: C1K_40  and  O1L_72 
REMARK       I    between atoms: C2C_41  and  O2D_45 
REMARK       I    between atoms: C33_44  and  O34_74 
REMARK       I    between atoms: O2D_45  and  C30_91 
REMARK       I    between atoms: C12_46  and  O10_51 
REMARK       I    between atoms: C53_48  and  O54_57 
REMARK       I    between atoms: O3I_50  and  S3H_80 
REMARK       I    between atoms: O16_54  and  C15_68 
REMARK       I    between atoms: C43_56  and  C41_65 
REMARK       I    between atoms: O54_57  and  S55_58 
REMARK       I    between atoms: O4G_60  and  C50_77 
REMARK       I    between atoms: O3M_62  and  C40_70 
REMARK       I    between atoms: O1C_67  and  C1B_86 
REMARK       I    between atoms: C15_68  and  C13_83 
REMARK       I    between atoms: N3G_69  and  S3H_80 
REMARK       I    between atoms: S1G_71  and  O1H_75 
REMARK       I    between atoms: S1G_71  and  O1I_82 
REMARK       I    between atoms: O34_74  and  S35_81 
ROOT
ATOM      1  O42 NTO d 869     -12.567  18.566 -21.298  0.00  0.00    -0.340 OA
ATOM      2  O4A NTO d 869     -10.291  17.367 -23.923  0.00  0.00    -0.244 OA
ATOM      3  O32 NTO d 869     -16.212  17.736 -24.716  0.00  0.00    -0.349 OA
ATOM      4  C3F NTO d 869     -16.153  20.142 -24.778  0.00  0.00     0.083 C 
ATOM      5  S17 NTO d 869     -25.950  24.718 -19.567  0.00  0.00     0.251 S 
ATOM      6  C5L NTO d 869      -8.536  18.897 -17.470  0.00  0.00     0.149 C 
ATOM      7  C4F NTO d 869     -11.304  18.246 -21.901  0.00  0.00     0.161 C 
ATOM      8  O14 NTO d 869     -25.562  20.793 -20.565  0.00  0.00    -0.349 OA
ATOM      9  N1F NTO d 869     -25.656  17.393 -21.988  0.00  0.00    -0.210 NA
ATOM     10  O37 NTO d 869     -19.475  14.274 -24.332  0.00  0.00    -0.572 OA
ATOM     11  O5J NTO d 869     -10.212  19.979 -15.076  0.00  0.00    -0.296 OA
ATOM     12  C3L NTO d 869     -15.327  18.865 -24.637  0.00  0.00     0.150 C 
ATOM     13  C29 NTO d 869     -20.895  18.306 -21.369  0.00  0.00     0.110 C 
ATOM     14  S3B NTO d 869     -17.582  22.331 -22.661  0.00  0.00     0.252 S 
ATOM     15  S4B NTO d 869      -9.849  16.033 -24.193  0.00  0.00     0.252 S 
ATOM     16  O24 NTO d 869     -21.973  22.466 -23.382  0.00  0.00    -0.646 OA
ATOM     17  O45 NTO d 869     -15.475  18.939 -21.057  0.00  0.00    -0.646 OA
ATOM     18  C20 NTO d 869     -22.851  19.719 -21.972  0.00  0.00     0.103 C 
ATOM     19  C1E NTO d 869     -26.205  18.663 -21.496  0.00  0.00     0.081 C 
ATOM     20  O3J NTO d 869     -14.161  22.589 -26.736  0.00  0.00    -0.296 OA
ATOM     21  O38 NTO d 869     -19.856  15.197 -26.573  0.00  0.00    -0.572 OA
ATOM     22  O18 NTO d 869     -26.229  24.271 -18.164  0.00  0.00    -0.572 OA
ATOM     23  C31 NTO d 869     -17.110  17.709 -23.595  0.00  0.00     0.091 C 
ATOM     24  O52 NTO d 869      -8.284  19.581 -18.709  0.00  0.00    -0.349 OA
ATOM     25  C46 NTO d 869     -12.673  17.825 -23.959  0.00  0.00     0.094 C 
ATOM     26  O5M NTO d 869      -7.634  17.805 -17.254  0.00  0.00    -0.364 OA
ATOM     27  O3D NTO d 869     -18.462  23.539 -22.789  0.00  0.00    -0.572 OA
ATOM     28  C51 NTO d 869      -8.623  18.797 -19.864  0.00  0.00     0.091 C 
ATOM     29  C5F NTO d 869      -9.994  18.444 -17.365  0.00  0.00     0.081 C 
ATOM     30  C59 NTO d 869     -10.393  17.621 -18.591  0.00  0.00     0.083 C 
ATOM     31  C21 NTO d 869     -22.102  20.089 -23.244  0.00  0.00     0.152 C 
ATOM     32  C26 NTO d 869     -22.411  18.312 -21.572  0.00  0.00     0.092 C 
ATOM     33  O47 NTO d 869     -12.806  16.995 -25.117  0.00  0.00    -0.390 OA
ATOM     34  O1J NTO d 869     -26.109  14.886 -22.089  0.00  0.00    -0.296 OA
ATOM     35  C5N NTO d 869      -6.416  18.312 -16.699  0.00  0.00     0.007 C 
ATOM     36  O3K NTO d 869     -14.575  20.204 -27.020  0.00  0.00    -0.296 OA
ATOM     37  O5I NTO d 869     -12.253  18.626 -15.029  0.00  0.00    -0.296 OA
ATOM     38  S5H NTO d 869     -10.756  18.588 -14.944  0.00  0.00     0.156 S 
ATOM     39  C39 NTO d 869     -17.106  20.212 -23.584  0.00  0.00     0.108 C 
ATOM     40  C1K NTO d 869     -25.038  19.553 -21.066  0.00  0.00     0.150 C 
ATOM     41  C2C NTO d 869     -20.181  18.822 -22.621  0.00  0.00     0.160 C 
ATOM     42  O19 NTO d 869     -27.142  25.447 -20.113  0.00  0.00    -0.572 OA
ATOM     43  N5G NTO d 869     -10.178  17.646 -16.144  0.00  0.00    -0.210 NA
ATOM     44  C33 NTO d 869     -18.012  16.476 -23.695  0.00  0.00     0.067 C 
ATOM     45  O2D NTO d 869     -18.773  18.912 -22.345  0.00  0.00    -0.348 OA
ATOM     46  C12 NTO d 869     -27.398  20.756 -22.176  0.00  0.00     0.089 C 
ATOM     47  C49 NTO d 869     -11.480  17.349 -23.130  0.00  0.00     0.134 C 
ATOM     48  C53 NTO d 869      -8.338  19.658 -21.096  0.00  0.00     0.067 C 
ATOM     49  O4D NTO d 869     -10.721  15.418 -25.247  0.00  0.00    -0.572 OA
ATOM     50  O3I NTO d 869     -12.819  20.965 -25.486  0.00  0.00    -0.296 OA
ATOM     51  O10 NTO d 869     -27.915  21.461 -23.307  0.00  0.00    -0.390 OA
ATOM     52  O1A NTO d 869     -24.757  25.625 -19.570  0.00  0.00    -0.572 OA
ATOM     53  O5K NTO d 869     -10.340  18.028 -13.616  0.00  0.00    -0.296 OA
ATOM     54  O16 NTO d 869     -25.669  23.575 -20.384  0.00  0.00    -0.254 OA
ATOM     55  O56 NTO d 869     -10.114  21.926 -22.911  0.00  0.00    -0.572 OA
ATOM     56  C43 NTO d 869     -14.842  17.884 -20.826  0.00  0.00     0.206 C 
ATOM     57  O54 NTO d 869      -9.057  20.890 -21.018  0.00  0.00    -0.254 OA
ATOM     58  S55 NTO d 869      -8.902  21.894 -22.028  0.00  0.00     0.251 S 
ATOM     59  O5A NTO d 869     -11.797  17.347 -18.548  0.00  0.00    -0.391 OA
ATOM     60  O4G NTO d 869     -10.412  17.591 -20.988  0.00  0.00    -0.348 OA
ATOM     61  O3C NTO d 869     -16.151  22.750 -22.824  0.00  0.00    -0.572 OA
ATOM     62  O3M NTO d 869     -14.714  18.908 -23.342  0.00  0.00    -0.348 OA
ATOM     63  O44 NTO d 869     -15.190  17.034 -19.965  0.00  0.00    -0.646 OA
ATOM     64  C23 NTO d 869     -22.614  21.441 -23.716  0.00  0.00     0.206 C 
ATOM     65  C41 NTO d 869     -13.587  17.610 -21.639  0.00  0.00     0.152 C 
ATOM     66  O22 NTO d 869     -20.683  20.111 -23.009  0.00  0.00    -0.340 OA
ATOM     67  O1C NTO d 869     -28.119  18.589 -22.973  0.00  0.00    -0.391 OA
ATOM     68  C15 NTO d 869     -26.732  22.840 -20.995  0.00  0.00     0.067 C 
ATOM     69  N3G NTO d 869     -15.259  21.315 -24.804  0.00  0.00    -0.210 NA
ATOM     70  C40 NTO d 869     -13.942  17.723 -23.115  0.00  0.00     0.103 C 
ATOM     71  S1G NTO d 869     -26.650  16.178 -21.552  0.00  0.00     0.156 S 
ATOM     72  O1L NTO d 869     -24.257  19.785 -22.246  0.00  0.00    -0.348 OA
ATOM     73  O57 NTO d 869      -7.694  21.579 -22.858  0.00  0.00    -0.572 OA
ATOM     74  O34 NTO d 869     -18.835  16.521 -24.865  0.00  0.00    -0.254 OA
ATOM     75  O1H NTO d 869     -28.019  16.431 -22.107  0.00  0.00    -0.296 OA
ATOM     76  O27 NTO d 869     -23.050  17.931 -20.350  0.00  0.00    -0.390 OA
ATOM     77  C50 NTO d 869     -10.097  18.420 -19.859  0.00  0.00     0.095 C 
ATOM     78  O3E NTO d 869     -17.765  21.721 -21.302  0.00  0.00    -0.572 OA
ATOM     79  O25 NTO d 869     -23.664  21.461 -24.400  0.00  0.00    -0.646 OA
ATOM     80  S3H NTO d 869     -14.184  21.264 -26.033  0.00  0.00     0.156 S 
ATOM     81  S35 NTO d 869     -19.823  15.510 -25.108  0.00  0.00     0.251 S 
ATOM     82  O1I NTO d 869     -26.716  16.108 -20.054  0.00  0.00    -0.296 OA
ATOM     83  C13 NTO d 869     -26.211  21.537 -21.608  0.00  0.00     0.090 C 
ATOM     84  O58 NTO d 869      -8.726  23.228 -21.368  0.00  0.00    -0.572 OA
ATOM     85  O3A NTO d 869     -17.927  21.382 -23.676  0.00  0.00    -0.247 OA
ATOM     86  C1B NTO d 869     -26.965  19.358 -22.626  0.00  0.00     0.083 C 
ATOM     87  O4C NTO d 869      -9.917  15.216 -22.937  0.00  0.00    -0.572 OA
ATOM     88  O4E NTO d 869      -8.430  16.085 -24.672  0.00  0.00    -0.572 OA
ATOM     89  O36 NTO d 869     -21.172  16.001 -24.678  0.00  0.00    -0.572 OA
ATOM     90  O2A NTO d 869     -20.461  16.975 -21.084  0.00  0.00    -0.388 OA
ATOM     91  C30 NTO d 869     -17.983  18.956 -23.543  0.00  0.00     0.096 C 
ATOM     92  H   NTO d 869     -16.711  20.137 -25.691  0.00  0.00     0.076 H 
ATOM     93  H   NTO d 869      -8.357  19.605 -16.689  0.00  0.00     0.131 H 
ATOM     94  H   NTO d 869     -10.877  19.184 -22.192  0.00  0.00     0.133 H 
ATOM     95  H   NTO d 869     -24.732  17.241 -21.583  0.00  0.00     0.140 HD
ATOM     96  H   NTO d 869     -10.560  20.532 -14.359  0.00  0.00     0.231 HD
ATOM     97  H   NTO d 869     -14.586  18.783 -25.406  0.00  0.00     0.131 H 
ATOM     98  H   NTO d 869     -20.653  18.950 -20.549  0.00  0.00     0.094 H 
ATOM     99  H   NTO d 869     -22.640  20.388 -21.165  0.00  0.00     0.092 H 
ATOM    100  H   NTO d 869     -26.867  18.485 -20.675  0.00  0.00     0.076 H 
ATOM    101  H   NTO d 869     -13.522  22.557 -27.465  0.00  0.00     0.231 HD
ATOM    102  H   NTO d 869     -16.520  17.674 -22.704  0.00  0.00     0.090 H 
ATOM    103  H   NTO d 869     -12.521  18.839 -24.261  0.00  0.00     0.091 H 
ATOM    104  H   NTO d 869      -8.049  17.894 -19.866  0.00  0.00     0.090 H 
ATOM    105  H   NTO d 869     -10.619  19.312 -17.322  0.00  0.00     0.076 H 
ATOM    106  H   NTO d 869      -9.840  16.705 -18.592  0.00  0.00     0.089 H 
ATOM    107  H   NTO d 869     -22.275  19.357 -24.005  0.00  0.00     0.104 H 
ATOM    108  H   NTO d 869     -22.684  17.621 -22.342  0.00  0.00     0.091 H 
ATOM    109  H   NTO d 869     -12.944  16.075 -24.841  0.00  0.00     0.210 HD
ATOM    110  H   NTO d 869     -26.067  14.932 -23.057  0.00  0.00     0.231 HD
ATOM    111  H   NTO d 869      -5.735  17.504 -16.534  0.00  0.00     0.066 H 
ATOM    112  H   NTO d 869      -6.623  18.800 -15.770  0.00  0.00     0.066 H 
ATOM    113  H   NTO d 869      -5.979  19.013 -17.380  0.00  0.00     0.066 H 
ATOM    114  H   NTO d 869     -13.930  20.183 -27.744  0.00  0.00     0.231 HD
ATOM    115  H   NTO d 869     -12.603  19.185 -14.318  0.00  0.00     0.231 HD
ATOM    116  H   NTO d 869     -16.532  20.267 -22.683  0.00  0.00     0.092 H 
ATOM    117  H   NTO d 869     -24.446  19.103 -20.296  0.00  0.00     0.131 H 
ATOM    118  H   NTO d 869     -20.360  18.143 -23.428  0.00  0.00     0.133 H 
ATOM    119  H   NTO d 869      -9.282  17.251 -15.861  0.00  0.00     0.140 HD
ATOM    120  H   NTO d 869     -18.640  16.433 -22.830  0.00  0.00     0.080 H 
ATOM    121  H   NTO d 869     -17.388  15.608 -23.758  0.00  0.00     0.080 H 
ATOM    122  H   NTO d 869     -28.142  20.658 -21.414  0.00  0.00     0.091 H 
ATOM    123  H   NTO d 869     -11.663  16.346 -22.804  0.00  0.00     0.097 H 
ATOM    124  H   NTO d 869      -8.640  19.128 -21.974  0.00  0.00     0.080 H 
ATOM    125  H   NTO d 869      -7.289  19.870 -21.137  0.00  0.00     0.080 H 
ATOM    126  H   NTO d 869     -12.179  20.934 -26.214  0.00  0.00     0.231 HD
ATOM    127  H   NTO d 869     -27.225  21.537 -23.984  0.00  0.00     0.210 HD
ATOM    128  H   NTO d 869     -10.686  18.591 -12.905  0.00  0.00     0.231 HD
ATOM    129  H   NTO d 869     -12.289  18.182 -18.547  0.00  0.00     0.210 HD
ATOM    130  H   NTO d 869     -13.213  16.630 -21.429  0.00  0.00     0.104 H 
ATOM    131  H   NTO d 869     -27.844  17.703 -23.258  0.00  0.00     0.210 HD
ATOM    132  H   NTO d 869     -27.173  23.438 -21.765  0.00  0.00     0.080 H 
ATOM    133  H   NTO d 869     -27.457  22.600 -20.245  0.00  0.00     0.080 H 
ATOM    134  H   NTO d 869     -14.746  21.354 -23.923  0.00  0.00     0.140 HD
ATOM    135  H   NTO d 869     -14.499  16.853 -23.390  0.00  0.00     0.092 H 
ATOM    136  H   NTO d 869     -27.972  16.476 -23.075  0.00  0.00     0.231 HD
ATOM    137  H   NTO d 869     -22.806  18.555 -19.648  0.00  0.00     0.210 HD
ATOM    138  H   NTO d 869     -10.680  19.316 -19.901  0.00  0.00     0.091 H 
ATOM    139  H   NTO d 869     -25.828  15.943 -19.699  0.00  0.00     0.231 HD
ATOM    140  H   NTO d 869     -25.516  21.723 -22.400  0.00  0.00     0.090 H 
ATOM    141  H   NTO d 869     -26.325  19.444 -23.479  0.00  0.00     0.089 H 
ATOM    142  H   NTO d 869     -20.683  16.396 -21.830  0.00  0.00     0.210 HD
ATOM    143  H   NTO d 869     -18.634  18.989 -24.391  0.00  0.00     0.091 H 
ENDROOT
TORSDOF 46
ENDMDL
MODEL 41
REMARK VINA RESULT:      -5.8      4.429      6.245
REMARK  0 active torsions:
REMARK  status: ('A' for Active; 'I' for Inactive)
REMARK       I    between atoms: O4A_2  and  C49_47 
REMARK       I    between atoms: O4A_2  and  S4B_15 
REMARK       I    between atoms: C3F_4  and  N3G_69 
REMARK       I    between atoms: S17_5  and  O16_54 
REMARK       I    between atoms: C5L_6  and  O5M_26 
REMARK       I    between atoms: C4F_7  and  O4G_60 
REMARK       I    between atoms: N1F_9  and  C1E_19 
REMARK       I    between atoms: N1F_9  and  S1G_71 
REMARK       I    between atoms: O5J_11  and  S5H_38 
REMARK       I    between atoms: C3L_12  and  O3M_62 
REMARK       I    between atoms: C29_13  and  O2A_90 
REMARK       I    between atoms: S3B_14  and  O3A_85 
REMARK       I    between atoms: C20_18  and  O1L_72 
REMARK       I    between atoms: O3J_20  and  S3H_80 
REMARK       I    between atoms: C31_23  and  C33_44 
REMARK       I    between atoms: C46_25  and  O47_33 
REMARK       I    between atoms: O5M_26  and  C5N_35 
REMARK       I    between atoms: C51_28  and  C53_48 
REMARK       I    between atoms: C5F_29  and  N5G_43 
REMARK       I    between atoms: C59_30  and  O5A_59 
REMARK       I    between atoms: C21_31  and  C23_64 
REMARK       I    between atoms: C26_32  and  O27_76 
REMARK       I    between atoms: O1J_34  and  S1G_71 
REMARK       I    between atoms: O3K_36  and  S3H_80 
REMARK       I    between atoms: O5I_37  and  S5H_38 
REMARK       I    between atoms: S5H_38  and  O5K_53 
REMARK       I    between atoms: S5H_38  and  N5G_43 
REMARK       I    between atoms: C39_39  and  O3A_85 
REMARK       I    between atoms: C1K_40  and  O1L_72 
REMARK       I    between atoms: C2C_41  and  O2D_45 
REMARK       I    between atoms: C33_44  and  O34_74 
REMARK       I    between atoms: O2D_45  and  C30_91 
REMARK       I    between atoms: C12_46  and  O10_51 
REMARK       I    between atoms: C53_48  and  O54_57 
REMARK       I    between atoms: O3I_50  and  S3H_80 
REMARK       I    between atoms: O16_54  and  C15_68 
REMARK       I    between atoms: C43_56  and  C41_65 
REMARK       I    between atoms: O54_57  and  S55_58 
REMARK       I    between atoms: O4G_60  and  C50_77 
REMARK       I    between atoms: O3M_62  and  C40_70 
REMARK       I    between atoms: O1C_67  and  C1B_86 
REMARK       I    between atoms: C15_68  and  C13_83 
REMARK       I    between atoms: N3G_69  and  S3H_80 
REMARK       I    between atoms: S1G_71  and  O1H_75 
REMARK       I    between atoms: S1G_71  and  O1I_82 
REMARK       I    between atoms: O34_74  and  S35_81 
ROOT
ATOM      1  O42 NTO d 869     -16.455  21.152 -18.879  0.00  0.00    -0.340 OA
ATOM      2  O4A NTO d 869     -18.987  23.245 -20.528  0.00  0.00    -0.244 OA
ATOM      3  O32 NTO d 869     -13.848  21.709 -23.186  0.00  0.00    -0.349 OA
ATOM      4  C3F NTO d 869     -14.550  19.420 -23.443  0.00  0.00     0.083 C 
ATOM      5  S17 NTO d 869      -5.232  11.986 -22.037  0.00  0.00     0.251 S 
ATOM      6  C5L NTO d 869     -19.170  21.092 -14.018  0.00  0.00     0.149 C 
ATOM      7  C4F NTO d 869     -17.707  21.839 -19.019  0.00  0.00     0.161 C 
ATOM      8  O14 NTO d 869      -4.845  16.009 -22.503  0.00  0.00    -0.349 OA
ATOM      9  N1F NTO d 869      -4.273  19.492 -23.571  0.00  0.00    -0.210 NA
ATOM     10  O37 NTO d 869      -9.822  24.248 -23.545  0.00  0.00    -0.572 OA
ATOM     11  O5J NTO d 869     -17.227  19.284 -12.385  0.00  0.00    -0.296 OA
ATOM     12  C3L NTO d 869     -14.938  20.807 -22.933  0.00  0.00     0.150 C 
ATOM     13  C29 NTO d 869      -8.727  19.568 -21.560  0.00  0.00     0.110 C 
ATOM     14  S3B NTO d 869     -13.203  16.649 -22.093  0.00  0.00     0.252 S 
ATOM     15  S4B NTO d 869     -19.122  24.669 -20.524  0.00  0.00     0.252 S 
ATOM     16  O24 NTO d 869      -9.394  15.666 -24.177  0.00  0.00    -0.646 OA
ATOM     17  O45 NTO d 869     -13.802  20.109 -19.606  0.00  0.00    -0.646 OA
ATOM     18  C20 NTO d 869      -7.464  17.876 -22.877  0.00  0.00     0.103 C 
ATOM     19  C1E NTO d 869      -3.959  18.068 -23.394  0.00  0.00     0.081 C 
ATOM     20  O3J NTO d 869     -17.585  17.836 -24.881  0.00  0.00    -0.296 OA
ATOM     21  O38 NTO d 869     -10.351  23.649 -25.865  0.00  0.00    -0.572 OA
ATOM     22  O18 NTO d 869      -4.458  12.122 -20.761  0.00  0.00    -0.572 OA
ATOM     23  C31 NTO d 869     -12.694  21.350 -22.410  0.00  0.00     0.091 C 
ATOM     24  O52 NTO d 869     -19.934  20.696 -15.169  0.00  0.00    -0.349 OA
ATOM     25  C46 NTO d 869     -16.919  22.282 -21.358  0.00  0.00     0.094 C 
ATOM     26  O5M NTO d 869     -19.655  22.306 -13.429  0.00  0.00    -0.364 OA
ATOM     27  O3D NTO d 869     -12.745  15.315 -22.602  0.00  0.00    -0.572 OA
ATOM     28  C51 NTO d 869     -19.745  21.567 -16.296  0.00  0.00     0.091 C 
ATOM     29  C5F NTO d 869     -17.678  21.187 -14.340  0.00  0.00     0.081 C 
ATOM     30  C59 NTO d 869     -17.442  22.093 -15.549  0.00  0.00     0.083 C 
ATOM     31  C21 NTO d 869      -8.613  17.898 -23.873  0.00  0.00     0.152 C 
ATOM     32  C26 NTO d 869      -7.387  19.259 -22.232  0.00  0.00     0.092 C 
ATOM     33  O47 NTO d 869     -16.909  23.242 -22.419  0.00  0.00    -0.390 OA
ATOM     34  O1J NTO d 869      -3.227  21.817 -23.584  0.00  0.00    -0.296 OA
ATOM     35  C5N NTO d 869     -20.753  21.996 -12.565  0.00  0.00     0.007 C 
ATOM     36  O3K NTO d 869     -16.659  20.082 -25.065  0.00  0.00    -0.296 OA
ATOM     37  O5I NTO d 869     -14.977  20.124 -12.866  0.00  0.00    -0.296 OA
ATOM     38  S5H NTO d 869     -16.323  20.478 -12.308  0.00  0.00     0.156 S 
ATOM     39  C39 NTO d 869     -13.350  18.943 -22.624  0.00  0.00     0.108 C 
ATOM     40  C1K NTO d 869      -5.145  17.400 -22.698  0.00  0.00     0.150 C 
ATOM     41  C2C NTO d 869      -9.876  19.438 -22.563  0.00  0.00     0.160 C 
ATOM     42  O19 NTO d 869      -4.478  11.113 -22.996  0.00  0.00    -0.572 OA
ATOM     43  N5G NTO d 869     -16.951  21.710 -13.173  0.00  0.00    -0.210 NA
ATOM     44  C33 NTO d 869     -11.567  22.351 -22.679  0.00  0.00     0.067 C 
ATOM     45  O2D NTO d 869     -11.120  19.618 -21.864  0.00  0.00    -0.348 OA
ATOM     46  C12 NTO d 869      -3.600  15.906 -24.603  0.00  0.00     0.089 C 
ATOM     47  C49 NTO d 869     -17.660  22.866 -20.154  0.00  0.00     0.134 C 
ATOM     48  C53 NTO d 869     -20.584  21.006 -17.447  0.00  0.00     0.067 C 
ATOM     49  O4D NTO d 869     -18.455  25.242 -21.739  0.00  0.00    -0.572 OA
ATOM     50  O3I NTO d 869     -18.042  19.487 -23.129  0.00  0.00    -0.296 OA
ATOM     51  O10 NTO d 869      -3.630  15.301 -25.898  0.00  0.00    -0.390 OA
ATOM     52  O1A NTO d 869      -6.570  11.380 -21.744  0.00  0.00    -0.572 OA
ATOM     53  O5K NTO d 869     -16.183  20.888 -10.871  0.00  0.00    -0.296 OA
ATOM     54  O16 NTO d 869      -5.423  13.282 -22.617  0.00  0.00    -0.254 OA
ATOM     55  O56 NTO d 869     -20.055  18.735 -19.927  0.00  0.00    -0.572 OA
ATOM     56  C43 NTO d 869     -14.043  21.225 -19.092  0.00  0.00     0.206 C 
ATOM     57  O54 NTO d 869     -20.221  19.650 -17.712  0.00  0.00    -0.254 OA
ATOM     58  S55 NTO d 869     -20.914  18.887 -18.707  0.00  0.00     0.251 S 
ATOM     59  O5A NTO d 869     -16.063  22.038 -15.928  0.00  0.00    -0.391 OA
ATOM     60  O4G NTO d 869     -18.099  22.515 -17.815  0.00  0.00    -0.348 OA
ATOM     61  O3C NTO d 869     -14.679  16.590 -21.832  0.00  0.00    -0.572 OA
ATOM     62  O3M NTO d 869     -15.146  20.686 -21.519  0.00  0.00    -0.348 OA
ATOM     63  O44 NTO d 869     -13.255  21.822 -18.313  0.00  0.00    -0.646 OA
ATOM     64  C23 NTO d 869      -8.629  16.563 -24.603  0.00  0.00     0.206 C 
ATOM     65  C41 NTO d 869     -15.361  21.901 -19.438  0.00  0.00     0.152 C 
ATOM     66  O22 NTO d 869      -9.861  18.152 -23.204  0.00  0.00    -0.340 OA
ATOM     67  O1C NTO d 869      -2.595  17.961 -25.389  0.00  0.00    -0.391 OA
ATOM     68  C15 NTO d 869      -4.425  13.854 -23.464  0.00  0.00     0.067 C 
ATOM     69  N3G NTO d 869     -15.689  18.496 -23.290  0.00  0.00    -0.210 NA
ATOM     70  C40 NTO d 869     -15.483  21.959 -20.954  0.00  0.00     0.103 C 
ATOM     71  S1G NTO d 869      -2.914  20.367 -23.364  0.00  0.00     0.156 S 
ATOM     72  O1L NTO d 869      -6.262  17.547 -23.587  0.00  0.00    -0.348 OA
ATOM     73  O57 NTO d 869     -22.182  19.596 -19.080  0.00  0.00    -0.572 OA
ATOM     74  O34 NTO d 869     -11.152  22.320 -24.048  0.00  0.00    -0.254 OA
ATOM     75  O1H NTO d 869      -1.875  19.912 -24.345  0.00  0.00    -0.296 OA
ATOM     76  O27 NTO d 869      -6.351  19.281 -21.247  0.00  0.00    -0.390 OA
ATOM     77  C50 NTO d 869     -18.285  21.601 -16.724  0.00  0.00     0.095 C 
ATOM     78  O3E NTO d 869     -12.488  16.969 -20.813  0.00  0.00    -0.572 OA
ATOM     79  O25 NTO d 869      -7.861  16.425 -25.583  0.00  0.00    -0.646 OA
ATOM     80  S3H NTO d 869     -17.017  18.987 -24.105  0.00  0.00     0.156 S 
ATOM     81  S35 NTO d 869     -10.046  23.113 -24.499  0.00  0.00     0.251 S 
ATOM     82  O1I NTO d 869      -2.408  20.171 -21.964  0.00  0.00    -0.296 OA
ATOM     83  C13 NTO d 869      -4.738  15.324 -23.761  0.00  0.00     0.090 C 
ATOM     84  O58 NTO d 869     -21.238  17.535 -18.148  0.00  0.00    -0.572 OA
ATOM     85  O3A NTO d 869     -12.925  17.652 -23.076  0.00  0.00    -0.247 OA
ATOM     86  C1B NTO d 869      -3.761  17.420 -24.765  0.00  0.00     0.083 C 
ATOM     87  O4C NTO d 869     -18.488  25.231 -19.285  0.00  0.00    -0.572 OA
ATOM     88  O4E NTO d 869     -20.580  25.014 -20.531  0.00  0.00    -0.572 OA
ATOM     89  O36 NTO d 869      -8.808  22.270 -24.565  0.00  0.00    -0.572 OA
ATOM     90  O2A NTO d 869      -8.697  20.896 -21.034  0.00  0.00    -0.388 OA
ATOM     91  C30 NTO d 869     -12.201  19.949 -22.749  0.00  0.00     0.096 C 
ATOM     92  H   NTO d 869     -14.293  19.453 -24.481  0.00  0.00     0.076 H 
ATOM     93  H   NTO d 869     -19.299  20.322 -13.287  0.00  0.00     0.131 H 
ATOM     94  H   NTO d 869     -18.429  21.081 -19.243  0.00  0.00     0.133 H 
ATOM     95  H   NTO d 869      -4.969  19.775 -22.882  0.00  0.00     0.140 HD
ATOM     96  H   NTO d 869     -16.847  18.556 -11.868  0.00  0.00     0.231 HD
ATOM     97  H   NTO d 869     -15.818  21.178 -23.417  0.00  0.00     0.131 H 
ATOM     98  H   NTO d 869      -8.884  18.866 -20.768  0.00  0.00     0.094 H 
ATOM     99  H   NTO d 869      -7.605  17.146 -22.107  0.00  0.00     0.092 H 
ATOM    100  H   NTO d 869      -3.068  17.956 -22.813  0.00  0.00     0.076 H 
ATOM    101  H   NTO d 869     -18.373  18.129 -25.364  0.00  0.00     0.231 HD
ATOM    102  H   NTO d 869     -12.975  21.367 -21.378  0.00  0.00     0.090 H 
ATOM    103  H   NTO d 869     -17.411  21.391 -21.687  0.00  0.00     0.091 H 
ATOM    104  H   NTO d 869     -20.038  22.562 -16.035  0.00  0.00     0.090 H 
ATOM    105  H   NTO d 869     -17.316  20.208 -14.575  0.00  0.00     0.076 H 
ATOM    106  H   NTO d 869     -17.713  23.096 -15.292  0.00  0.00     0.089 H 
ATOM    107  H   NTO d 869      -8.478  18.689 -24.581  0.00  0.00     0.104 H 
ATOM    108  H   NTO d 869      -7.174  19.991 -22.984  0.00  0.00     0.091 H 
ATOM    109  H   NTO d 869     -16.462  24.050 -22.120  0.00  0.00     0.210 HD
ATOM    110  H   NTO d 869      -3.553  21.944 -24.489  0.00  0.00     0.231 HD
ATOM    111  H   NTO d 869     -21.122  22.897 -12.121  0.00  0.00     0.066 H 
ATOM    112  H   NTO d 869     -20.425  21.327 -11.797  0.00  0.00     0.066 H 
ATOM    113  H   NTO d 869     -21.533  21.532 -13.133  0.00  0.00     0.066 H 
ATOM    114  H   NTO d 869     -17.454  20.366 -25.543  0.00  0.00     0.231 HD
ATOM    115  H   NTO d 869     -14.598  19.391 -12.355  0.00  0.00     0.231 HD
ATOM    116  H   NTO d 869     -13.638  18.869 -21.596  0.00  0.00     0.092 H 
ATOM    117  H   NTO d 869      -5.355  17.836 -21.744  0.00  0.00     0.131 H 
ATOM    118  H   NTO d 869      -9.763  20.185 -23.320  0.00  0.00     0.133 H 
ATOM    119  H   NTO d 869     -17.593  22.242 -12.586  0.00  0.00     0.140 HD
ATOM    120  H   NTO d 869     -10.731  22.110 -22.057  0.00  0.00     0.080 H 
ATOM    121  H   NTO d 869     -11.933  23.334 -22.462  0.00  0.00     0.080 H 
ATOM    122  H   NTO d 869      -2.672  15.708 -24.110  0.00  0.00     0.091 H 
ATOM    123  H   NTO d 869     -17.136  23.735 -19.815  0.00  0.00     0.097 H 
ATOM    124  H   NTO d 869     -20.416  21.595 -18.324  0.00  0.00     0.080 H 
ATOM    125  H   NTO d 869     -21.618  21.042 -17.172  0.00  0.00     0.080 H 
ATOM    126  H   NTO d 869     -18.831  19.779 -23.611  0.00  0.00     0.231 HD
ATOM    127  H   NTO d 869      -4.479  15.493 -26.325  0.00  0.00     0.210 HD
ATOM    128  H   NTO d 869     -15.809  20.152 -10.361  0.00  0.00     0.231 HD
ATOM    129  H   NTO d 869     -15.828  21.126 -16.159  0.00  0.00     0.210 HD
ATOM    130  H   NTO d 869     -15.389  22.891 -19.032  0.00  0.00     0.104 H 
ATOM    131  H   NTO d 869      -2.697  18.920 -25.491  0.00  0.00     0.210 HD
ATOM    132  H   NTO d 869      -4.393  13.310 -24.385  0.00  0.00     0.080 H 
ATOM    133  H   NTO d 869      -3.480  13.800 -22.965  0.00  0.00     0.080 H 
ATOM    134  H   NTO d 869     -15.921  18.426 -22.299  0.00  0.00     0.140 HD
ATOM    135  H   NTO d 869     -14.819  22.717 -21.312  0.00  0.00     0.092 H 
ATOM    136  H   NTO d 869      -2.206  20.041 -25.248  0.00  0.00     0.231 HD
ATOM    137  H   NTO d 869      -6.540  18.619 -20.563  0.00  0.00     0.210 HD
ATOM    138  H   NTO d 869     -17.994  20.618 -17.029  0.00  0.00     0.091 H 
ATOM    139  H   NTO d 869      -3.083  20.467 -21.333  0.00  0.00     0.231 HD
ATOM    140  H   NTO d 869      -5.653  15.431 -24.305  0.00  0.00     0.090 H 
ATOM    141  H   NTO d 869      -4.617  17.621 -25.375  0.00  0.00     0.089 H 
ATOM    142  H   NTO d 869      -8.553  21.527 -21.757  0.00  0.00     0.210 HD
ATOM    143  H   NTO d 869     -11.850  19.914 -23.759  0.00  0.00     0.091 H 
ENDROOT
TORSDOF 46
ENDMDL
MODEL 42
REMARK VINA RESULT:      -5.8      3.275      4.026
REMARK  0 active torsions:
REMARK  status: ('A' for Active; 'I' for Inactive)
REMARK       I    between atoms: O4A_2  and  C49_47 
REMARK       I    between atoms: O4A_2  and  S4B_15 
REMARK       I    between atoms: C3F_4  and  N3G_69 
REMARK       I    between atoms: S17_5  and  O16_54 
REMARK       I    between atoms: C5L_6  and  O5M_26 
REMARK       I    between atoms: C4F_7  and  O4G_60 
REMARK       I    between atoms: N1F_9  and  C1E_19 
REMARK       I    between atoms: N1F_9  and  S1G_71 
REMARK       I    between atoms: O5J_11  and  S5H_38 
REMARK       I    between atoms: C3L_12  and  O3M_62 
REMARK       I    between atoms: C29_13  and  O2A_90 
REMARK       I    between atoms: S3B_14  and  O3A_85 
REMARK       I    between atoms: C20_18  and  O1L_72 
REMARK       I    between atoms: O3J_20  and  S3H_80 
REMARK       I    between atoms: C31_23  and  C33_44 
REMARK       I    between atoms: C46_25  and  O47_33 
REMARK       I    between atoms: O5M_26  and  C5N_35 
REMARK       I    between atoms: C51_28  and  C53_48 
REMARK       I    between atoms: C5F_29  and  N5G_43 
REMARK       I    between atoms: C59_30  and  O5A_59 
REMARK       I    between atoms: C21_31  and  C23_64 
REMARK       I    between atoms: C26_32  and  O27_76 
REMARK       I    between atoms: O1J_34  and  S1G_71 
REMARK       I    between atoms: O3K_36  and  S3H_80 
REMARK       I    between atoms: O5I_37  and  S5H_38 
REMARK       I    between atoms: S5H_38  and  O5K_53 
REMARK       I    between atoms: S5H_38  and  N5G_43 
REMARK       I    between atoms: C39_39  and  O3A_85 
REMARK       I    between atoms: C1K_40  and  O1L_72 
REMARK       I    between atoms: C2C_41  and  O2D_45 
REMARK       I    between atoms: C33_44  and  O34_74 
REMARK       I    between atoms: O2D_45  and  C30_91 
REMARK       I    between atoms: C12_46  and  O10_51 
REMARK       I    between atoms: C53_48  and  O54_57 
REMARK       I    between atoms: O3I_50  and  S3H_80 
REMARK       I    between atoms: O16_54  and  C15_68 
REMARK       I    between atoms: C43_56  and  C41_65 
REMARK       I    between atoms: O54_57  and  S55_58 
REMARK       I    between atoms: O4G_60  and  C50_77 
REMARK       I    between atoms: O3M_62  and  C40_70 
REMARK       I    between atoms: O1C_67  and  C1B_86 
REMARK       I    between atoms: C15_68  and  C13_83 
REMARK       I    between atoms: N3G_69  and  S3H_80 
REMARK       I    between atoms: S1G_71  and  O1H_75 
REMARK       I    between atoms: S1G_71  and  O1I_82 
REMARK       I    between atoms: O34_74  and  S35_81 
ROOT
ATOM      1  O42 NTO d 869     -21.235  17.773 -19.212  0.00  0.00    -0.340 OA
ATOM      2  O4A NTO d 869     -24.427  19.244 -20.290  0.00  0.00    -0.244 OA
ATOM      3  O32 NTO d 869     -19.133  21.274 -22.208  0.00  0.00    -0.349 OA
ATOM      4  C3F NTO d 869     -18.765  19.320 -23.567  0.00  0.00     0.083 C 
ATOM      5  S17 NTO d 869      -7.135  16.351 -23.584  0.00  0.00     0.251 S 
ATOM      6  C5L NTO d 869     -23.652  14.357 -15.539  0.00  0.00     0.149 C 
ATOM      7  C4F NTO d 869     -22.662  17.902 -19.302  0.00  0.00     0.161 C 
ATOM      8  O14 NTO d 869      -8.545  19.900 -22.179  0.00  0.00    -0.349 OA
ATOM      9  N1F NTO d 869      -9.552  23.380 -21.497  0.00  0.00    -0.210 NA
ATOM     10  O37 NTO d 869     -16.622  24.996 -20.588  0.00  0.00    -0.572 OA
ATOM     11  O5J NTO d 869     -21.114  12.892 -14.477  0.00  0.00    -0.296 OA
ATOM     12  C3L NTO d 869     -19.719  20.023 -22.603  0.00  0.00     0.150 C 
ATOM     13  C29 NTO d 869     -13.591  20.769 -20.631  0.00  0.00     0.110 C 
ATOM     14  S3B NTO d 869     -16.343  17.003 -23.293  0.00  0.00     0.252 S 
ATOM     15  S4B NTO d 869     -25.171  20.314 -19.701  0.00  0.00     0.252 S 
ATOM     16  O24 NTO d 869     -12.487  18.684 -24.749  0.00  0.00    -0.646 OA
ATOM     17  O45 NTO d 869     -18.393  18.315 -19.745  0.00  0.00    -0.646 OA
ATOM     18  C20 NTO d 869     -11.716  20.548 -22.252  0.00  0.00     0.103 C 
ATOM     19  C1E NTO d 869      -8.648  22.292 -21.890  0.00  0.00     0.081 C 
ATOM     20  O3J NTO d 869     -20.802  17.594 -26.146  0.00  0.00    -0.296 OA
ATOM     21  O38 NTO d 869     -16.835  25.431 -22.994  0.00  0.00    -0.572 OA
ATOM     22  O18 NTO d 869      -6.498  16.144 -22.242  0.00  0.00    -0.572 OA
ATOM     23  C31 NTO d 869     -17.938  21.062 -21.440  0.00  0.00     0.091 C 
ATOM     24  O52 NTO d 869     -24.166  14.302 -16.880  0.00  0.00    -0.349 OA
ATOM     25  C46 NTO d 869     -22.147  19.674 -21.000  0.00  0.00     0.094 C 
ATOM     26  O5M NTO d 869     -24.618  14.848 -14.601  0.00  0.00    -0.364 OA
ATOM     27  O3D NTO d 869     -15.347  16.368 -24.218  0.00  0.00    -0.572 OA
ATOM     28  C51 NTO d 869     -24.376  15.602 -17.455  0.00  0.00     0.091 C 
ATOM     29  C5F NTO d 869     -22.351  15.158 -15.468  0.00  0.00     0.081 C 
ATOM     30  C59 NTO d 869     -22.535  16.543 -16.090  0.00  0.00     0.083 C 
ATOM     31  C21 NTO d 869     -12.760  20.602 -23.357  0.00  0.00     0.152 C 
ATOM     32  C26 NTO d 869     -12.252  21.361 -21.075  0.00  0.00     0.092 C 
ATOM     33  O47 NTO d 869     -22.556  20.944 -21.516  0.00  0.00    -0.390 OA
ATOM     34  O1J NTO d 869      -9.627  25.624 -20.289  0.00  0.00    -0.296 OA
ATOM     35  C5N NTO d 869     -25.471  13.768 -14.206  0.00  0.00     0.007 C 
ATOM     36  O3K NTO d 869     -20.951  19.811 -25.147  0.00  0.00    -0.296 OA
ATOM     37  O5I NTO d 869     -19.457  14.649 -14.067  0.00  0.00    -0.296 OA
ATOM     38  S5H NTO d 869     -20.823  14.145 -13.706  0.00  0.00     0.156 S 
ATOM     39  C39 NTO d 869     -17.477  19.012 -22.802  0.00  0.00     0.108 C 
ATOM     40  C1K NTO d 869      -9.423  20.976 -21.815  0.00  0.00     0.150 C 
ATOM     41  C2C NTO d 869     -14.569  20.706 -21.808  0.00  0.00     0.160 C 
ATOM     42  O19 NTO d 869      -6.075  16.409 -24.644  0.00  0.00    -0.572 OA
ATOM     43  N5G NTO d 869     -21.926  15.291 -14.067  0.00  0.00    -0.210 NA
ATOM     44  C33 NTO d 869     -17.363  22.414 -21.010  0.00  0.00     0.067 C 
ATOM     45  O2D NTO d 869     -15.766  20.037 -21.378  0.00  0.00    -0.348 OA
ATOM     46  C12 NTO d 869      -7.380  21.300 -23.807  0.00  0.00     0.089 C 
ATOM     47  C49 NTO d 869     -23.068  19.275 -19.847  0.00  0.00     0.134 C 
ATOM     48  C53 NTO d 869     -24.886  15.388 -18.882  0.00  0.00     0.067 C 
ATOM     49  O4D NTO d 869     -24.822  21.605 -20.381  0.00  0.00    -0.572 OA
ATOM     50  O3I NTO d 869     -21.935  17.883 -23.993  0.00  0.00    -0.296 OA
ATOM     51  O10 NTO d 869      -7.142  21.431 -25.210  0.00  0.00    -0.390 OA
ATOM     52  O1A NTO d 869      -8.074  15.218 -23.867  0.00  0.00    -0.572 OA
ATOM     53  O5K NTO d 869     -20.876  13.835 -12.239  0.00  0.00    -0.296 OA
ATOM     54  O16 NTO d 869      -7.873  17.579 -23.574  0.00  0.00    -0.254 OA
ATOM     55  O56 NTO d 869     -23.418  14.985 -21.927  0.00  0.00    -0.572 OA
ATOM     56  C43 NTO d 869     -19.098  18.857 -18.864  0.00  0.00     0.206 C 
ATOM     57  O54 NTO d 869     -23.967  14.583 -19.623  0.00  0.00    -0.254 OA
ATOM     58  S55 NTO d 869     -24.257  14.192 -20.970  0.00  0.00     0.251 S 
ATOM     59  O5A NTO d 869     -21.270  17.210 -16.159  0.00  0.00    -0.391 OA
ATOM     60  O4G NTO d 869     -23.310  17.709 -18.036  0.00  0.00    -0.348 OA
ATOM     61  O3C NTO d 869     -17.644  16.265 -23.398  0.00  0.00    -0.572 OA
ATOM     62  O3M NTO d 869     -19.854  19.171 -21.457  0.00  0.00    -0.348 OA
ATOM     63  O44 NTO d 869     -18.650  19.258 -17.758  0.00  0.00    -0.646 OA
ATOM     64  C23 NTO d 869     -12.191  19.891 -24.576  0.00  0.00     0.206 C 
ATOM     65  C41 NTO d 869     -20.579  19.052 -19.152  0.00  0.00     0.152 C 
ATOM     66  O22 NTO d 869     -13.993  20.003 -22.922  0.00  0.00    -0.340 OA
ATOM     67  O1C NTO d 869      -7.373  23.685 -23.402  0.00  0.00    -0.391 OA
ATOM     68  C15 NTO d 869      -7.225  18.819 -23.863  0.00  0.00     0.067 C 
ATOM     69  N3G NTO d 869     -19.385  18.080 -24.069  0.00  0.00    -0.210 NA
ATOM     70  C40 NTO d 869     -20.713  19.776 -20.484  0.00  0.00     0.103 C 
ATOM     71  S1G NTO d 869      -8.712  24.494 -20.655  0.00  0.00     0.156 S 
ATOM     72  O1L NTO d 869     -10.491  21.089 -22.766  0.00  0.00    -0.348 OA
ATOM     73  O57 NTO d 869     -25.707  14.443 -21.258  0.00  0.00    -0.572 OA
ATOM     74  O34 NTO d 869     -16.975  23.203 -22.138  0.00  0.00    -0.254 OA
ATOM     75  O1H NTO d 869      -7.579  25.003 -21.495  0.00  0.00    -0.296 OA
ATOM     76  O27 NTO d 869     -11.329  21.304 -19.983  0.00  0.00    -0.390 OA
ATOM     77  C50 NTO d 869     -23.078  16.394 -17.511  0.00  0.00     0.095 C 
ATOM     78  O3E NTO d 869     -15.840  16.917 -21.882  0.00  0.00    -0.572 OA
ATOM     79  O25 NTO d 869     -11.439  20.546 -25.336  0.00  0.00    -0.646 OA
ATOM     80  S3H NTO d 869     -20.794  18.349 -24.850  0.00  0.00     0.156 S 
ATOM     81  S35 NTO d 869     -16.327  24.470 -21.962  0.00  0.00     0.251 S 
ATOM     82  O1I NTO d 869      -8.172  23.863 -19.405  0.00  0.00    -0.296 OA
ATOM     83  C13 NTO d 869      -8.149  20.001 -23.557  0.00  0.00     0.090 C 
ATOM     84  O58 NTO d 869     -23.958  12.732 -21.129  0.00  0.00    -0.572 OA
ATOM     85  O3A NTO d 869     -16.531  18.372 -23.666  0.00  0.00    -0.247 OA
ATOM     86  C1B NTO d 869      -8.186  22.512 -23.331  0.00  0.00     0.083 C 
ATOM     87  O4C NTO d 869     -24.846  20.409 -18.239  0.00  0.00    -0.572 OA
ATOM     88  O4E NTO d 869     -26.633  20.031 -19.864  0.00  0.00    -0.572 OA
ATOM     89  O36 NTO d 869     -14.845  24.311 -22.123  0.00  0.00    -0.572 OA
ATOM     90  O2A NTO d 869     -14.145  21.578 -19.592  0.00  0.00    -0.388 OA
ATOM     91  C30 NTO d 869     -16.883  20.307 -22.239  0.00  0.00     0.096 C 
ATOM     92  H   NTO d 869     -18.548  19.942 -24.411  0.00  0.00     0.076 H 
ATOM     93  H   NTO d 869     -23.431  13.349 -15.255  0.00  0.00     0.131 H 
ATOM     94  H   NTO d 869     -22.980  17.134 -19.976  0.00  0.00     0.133 H 
ATOM     95  H   NTO d 869     -10.302  23.007 -20.917  0.00  0.00     0.140 HD
ATOM     96  H   NTO d 869     -20.454  12.216 -14.257  0.00  0.00     0.231 HD
ATOM     97  H   NTO d 869     -20.673  20.210 -23.052  0.00  0.00     0.131 H 
ATOM     98  H   NTO d 869     -13.427  19.776 -20.271  0.00  0.00     0.094 H 
ATOM     99  H   NTO d 869     -11.524  19.549 -21.920  0.00  0.00     0.092 H 
ATOM    100  H   NTO d 869      -7.797  22.267 -21.241  0.00  0.00     0.076 H 
ATOM    101  H   NTO d 869     -21.639  17.754 -26.610  0.00  0.00     0.231 HD
ATOM    102  H   NTO d 869     -18.199  20.473 -20.586  0.00  0.00     0.090 H 
ATOM    103  H   NTO d 869     -22.200  18.939 -21.775  0.00  0.00     0.091 H 
ATOM    104  H   NTO d 869     -25.075  16.150 -16.858  0.00  0.00     0.090 H 
ATOM    105  H   NTO d 869     -21.598  14.636 -16.021  0.00  0.00     0.076 H 
ATOM    106  H   NTO d 869     -23.217  17.108 -15.490  0.00  0.00     0.089 H 
ATOM    107  H   NTO d 869     -12.984  21.617 -23.610  0.00  0.00     0.104 H 
ATOM    108  H   NTO d 869     -12.379  22.381 -21.375  0.00  0.00     0.091 H 
ATOM    109  H   NTO d 869     -22.508  21.610 -20.812  0.00  0.00     0.210 HD
ATOM    110  H   NTO d 869      -9.976  26.032 -21.097  0.00  0.00     0.231 HD
ATOM    111  H   NTO d 869     -26.196  14.125 -13.505  0.00  0.00     0.066 H 
ATOM    112  H   NTO d 869     -24.884  12.998 -13.751  0.00  0.00     0.066 H 
ATOM    113  H   NTO d 869     -25.970  13.374 -15.067  0.00  0.00     0.066 H 
ATOM    114  H   NTO d 869     -21.790  19.959 -25.611  0.00  0.00     0.231 HD
ATOM    115  H   NTO d 869     -18.796  13.971 -13.855  0.00  0.00     0.231 HD
ATOM    116  H   NTO d 869     -17.703  18.351 -21.991  0.00  0.00     0.092 H 
ATOM    117  H   NTO d 869      -9.802  20.783 -20.833  0.00  0.00     0.131 H 
ATOM    118  H   NTO d 869     -14.793  21.702 -22.128  0.00  0.00     0.133 H 
ATOM    119  H   NTO d 869     -22.736  15.184 -13.457  0.00  0.00     0.140 HD
ATOM    120  H   NTO d 869     -16.505  22.246 -20.393  0.00  0.00     0.080 H 
ATOM    121  H   NTO d 869     -18.121  22.946 -20.473  0.00  0.00     0.080 H 
ATOM    122  H   NTO d 869      -6.458  21.265 -23.265  0.00  0.00     0.091 H 
ATOM    123  H   NTO d 869     -22.976  20.000 -19.064  0.00  0.00     0.097 H 
ATOM    124  H   NTO d 869     -24.992  16.337 -19.364  0.00  0.00     0.080 H 
ATOM    125  H   NTO d 869     -25.831  14.889 -18.842  0.00  0.00     0.080 H 
ATOM    126  H   NTO d 869     -22.772  18.043 -24.456  0.00  0.00     0.231 HD
ATOM    127  H   NTO d 869      -7.990  21.462 -25.680  0.00  0.00     0.210 HD
ATOM    128  H   NTO d 869     -20.219  13.153 -12.029  0.00  0.00     0.231 HD
ATOM    129  H   NTO d 869     -20.660  16.690 -16.705  0.00  0.00     0.210 HD
ATOM    130  H   NTO d 869     -21.036  19.628 -18.376  0.00  0.00     0.104 H 
ATOM    131  H   NTO d 869      -7.885  24.452 -23.100  0.00  0.00     0.210 HD
ATOM    132  H   NTO d 869      -6.959  18.842 -24.899  0.00  0.00     0.080 H 
ATOM    133  H   NTO d 869      -6.351  18.899 -23.250  0.00  0.00     0.080 H 
ATOM    134  H   NTO d 869     -19.564  17.462 -23.277  0.00  0.00     0.140 HD
ATOM    135  H   NTO d 869     -20.447  20.801 -20.332  0.00  0.00     0.092 H 
ATOM    136  H   NTO d 869      -7.932  25.410 -22.301  0.00  0.00     0.231 HD
ATOM    137  H   NTO d 869     -11.210  20.382 -19.707  0.00  0.00     0.210 HD
ATOM    138  H   NTO d 869     -22.387  15.875 -18.141  0.00  0.00     0.091 H 
ATOM    139  H   NTO d 869      -8.908  23.536 -18.864  0.00  0.00     0.231 HD
ATOM    140  H   NTO d 869      -9.018  19.996 -24.180  0.00  0.00     0.090 H 
ATOM    141  H   NTO d 869      -9.044  22.635 -23.959  0.00  0.00     0.089 H 
ATOM    142  H   NTO d 869     -14.291  22.477 -19.924  0.00  0.00     0.210 HD
ATOM    143  H   NTO d 869     -16.551  20.898 -23.067  0.00  0.00     0.091 H 
ENDROOT
TORSDOF 46
ENDMDL
MODEL 43
REMARK VINA RESULT:      -5.8      3.562     13.506
REMARK  0 active torsions:
REMARK  status: ('A' for Active; 'I' for Inactive)
REMARK       I    between atoms: O4A_2  and  C49_47 
REMARK       I    between atoms: O4A_2  and  S4B_15 
REMARK       I    between atoms: C3F_4  and  N3G_69 
REMARK       I    between atoms: S17_5  and  O16_54 
REMARK       I    between atoms: C5L_6  and  O5M_26 
REMARK       I    between atoms: C4F_7  and  O4G_60 
REMARK       I    between atoms: N1F_9  and  C1E_19 
REMARK       I    between atoms: N1F_9  and  S1G_71 
REMARK       I    between atoms: O5J_11  and  S5H_38 
REMARK       I    between atoms: C3L_12  and  O3M_62 
REMARK       I    between atoms: C29_13  and  O2A_90 
REMARK       I    between atoms: S3B_14  and  O3A_85 
REMARK       I    between atoms: C20_18  and  O1L_72 
REMARK       I    between atoms: O3J_20  and  S3H_80 
REMARK       I    between atoms: C31_23  and  C33_44 
REMARK       I    between atoms: C46_25  and  O47_33 
REMARK       I    between atoms: O5M_26  and  C5N_35 
REMARK       I    between atoms: C51_28  and  C53_48 
REMARK       I    between atoms: C5F_29  and  N5G_43 
REMARK       I    between atoms: C59_30  and  O5A_59 
REMARK       I    between atoms: C21_31  and  C23_64 
REMARK       I    between atoms: C26_32  and  O27_76 
REMARK       I    between atoms: O1J_34  and  S1G_71 
REMARK       I    between atoms: O3K_36  and  S3H_80 
REMARK       I    between atoms: O5I_37  and  S5H_38 
REMARK       I    between atoms: S5H_38  and  O5K_53 
REMARK       I    between atoms: S5H_38  and  N5G_43 
REMARK       I    between atoms: C39_39  and  O3A_85 
REMARK       I    between atoms: C1K_40  and  O1L_72 
REMARK       I    between atoms: C2C_41  and  O2D_45 
REMARK       I    between atoms: C33_44  and  O34_74 
REMARK       I    between atoms: O2D_45  and  C30_91 
REMARK       I    between atoms: C12_46  and  O10_51 
REMARK       I    between atoms: C53_48  and  O54_57 
REMARK       I    between atoms: O3I_50  and  S3H_80 
REMARK       I    between atoms: O16_54  and  C15_68 
REMARK       I    between atoms: C43_56  and  C41_65 
REMARK       I    between atoms: O54_57  and  S55_58 
REMARK       I    between atoms: O4G_60  and  C50_77 
REMARK       I    between atoms: O3M_62  and  C40_70 
REMARK       I    between atoms: O1C_67  and  C1B_86 
REMARK       I    between atoms: C15_68  and  C13_83 
REMARK       I    between atoms: N3G_69  and  S3H_80 
REMARK       I    between atoms: S1G_71  and  O1H_75 
REMARK       I    between atoms: S1G_71  and  O1I_82 
REMARK       I    between atoms: O34_74  and  S35_81 
ROOT
ATOM      1  O42 NTO d 869     -11.097  19.297 -22.595  0.00  0.00    -0.340 OA
ATOM      2  O4A NTO d 869     -10.286  21.909 -25.051  0.00  0.00    -0.244 OA
ATOM      3  O32 NTO d 869     -15.723  21.360 -22.609  0.00  0.00    -0.349 OA
ATOM      4  C3F NTO d 869     -14.949  22.143 -20.468  0.00  0.00     0.083 C 
ATOM      5  S17 NTO d 869     -20.599  16.364 -11.593  0.00  0.00     0.251 S 
ATOM      6  C5L NTO d 869      -6.146  16.799 -23.101  0.00  0.00     0.149 C 
ATOM      7  C4F NTO d 869     -10.263  20.059 -23.482  0.00  0.00     0.161 C 
ATOM      8  O14 NTO d 869     -21.788  16.220 -15.481  0.00  0.00    -0.349 OA
ATOM      9  N1F NTO d 869     -23.383  16.511 -18.792  0.00  0.00    -0.210 NA
ATOM     10  O37 NTO d 869     -19.583  19.214 -24.421  0.00  0.00    -0.572 OA
ATOM     11  O5J NTO d 869      -6.532  14.507 -21.025  0.00  0.00    -0.296 OA
ATOM     12  C3L NTO d 869     -14.559  21.829 -21.911  0.00  0.00     0.150 C 
ATOM     13  C29 NTO d 869     -18.644  17.328 -19.666  0.00  0.00     0.110 C 
ATOM     14  S3B NTO d 869     -14.863  20.492 -17.538  0.00  0.00     0.252 S 
ATOM     15  S4B NTO d 869     -10.390  21.870 -26.477  0.00  0.00     0.252 S 
ATOM     16  O24 NTO d 869     -18.981  20.167 -15.878  0.00  0.00    -0.646 OA
ATOM     17  O45 NTO d 869     -13.503  18.501 -21.102  0.00  0.00    -0.646 OA
ATOM     18  C20 NTO d 869     -20.154  17.844 -17.756  0.00  0.00     0.103 C 
ATOM     19  C1E NTO d 869     -23.322  16.302 -17.340  0.00  0.00     0.081 C 
ATOM     20  O3J NTO d 869     -13.051  25.147 -19.390  0.00  0.00    -0.296 OA
ATOM     21  O38 NTO d 869     -20.368  21.473 -23.870  0.00  0.00    -0.572 OA
ATOM     22  O18 NTO d 869     -20.531  14.867 -11.622  0.00  0.00    -0.572 OA
ATOM     23  C31 NTO d 869     -16.170  20.103 -22.076  0.00  0.00     0.091 C 
ATOM     24  O52 NTO d 869      -6.113  18.207 -22.816  0.00  0.00    -0.349 OA
ATOM     25  C46 NTO d 869     -12.287  21.518 -23.734  0.00  0.00     0.094 C 
ATOM     26  O5M NTO d 869      -5.606  16.489 -24.392  0.00  0.00    -0.364 OA
ATOM     27  O3D NTO d 869     -15.318  20.761 -16.134  0.00  0.00    -0.572 OA
ATOM     28  C51 NTO d 869      -7.034  18.965 -23.617  0.00  0.00     0.091 C 
ATOM     29  C5F NTO d 869      -7.555  16.225 -22.934  0.00  0.00     0.081 C 
ATOM     30  C59 NTO d 869      -8.565  17.023 -23.761  0.00  0.00     0.083 C 
ATOM     31  C21 NTO d 869     -19.784  19.306 -17.952  0.00  0.00     0.152 C 
ATOM     32  C26 NTO d 869     -20.064  17.161 -19.120  0.00  0.00     0.092 C 
ATOM     33  O47 NTO d 869     -13.038  22.314 -24.655  0.00  0.00    -0.390 OA
ATOM     34  O1J NTO d 869     -24.594  15.758 -20.906  0.00  0.00    -0.296 OA
ATOM     35  C5N NTO d 869      -4.181  16.411 -24.291  0.00  0.00     0.007 C 
ATOM     36  O3K NTO d 869     -14.249  24.607 -21.443  0.00  0.00    -0.296 OA
ATOM     37  O5I NTO d 869      -8.758  13.585 -21.460  0.00  0.00    -0.296 OA
ATOM     38  S5H NTO d 869      -7.404  13.846 -22.050  0.00  0.00     0.156 S 
ATOM     39  C39 NTO d 869     -15.391  20.833 -19.812  0.00  0.00     0.108 C 
ATOM     40  C1K NTO d 869     -21.865  16.441 -16.898  0.00  0.00     0.150 C 
ATOM     41  C2C NTO d 869     -18.255  18.808 -19.712  0.00  0.00     0.160 C 
ATOM     42  O19 NTO d 869     -21.618  16.804 -10.584  0.00  0.00    -0.572 OA
ATOM     43  N5G NTO d 869      -7.568  14.816 -23.351  0.00  0.00    -0.210 NA
ATOM     44  C33 NTO d 869     -17.389  19.619 -22.866  0.00  0.00     0.067 C 
ATOM     45  O2D NTO d 869     -16.879  18.909 -20.115  0.00  0.00    -0.348 OA
ATOM     46  C12 NTO d 869     -23.965  17.269 -15.123  0.00  0.00     0.089 C 
ATOM     47  C49 NTO d 869     -11.097  20.890 -24.461  0.00  0.00     0.134 C 
ATOM     48  C53 NTO d 869      -6.914  20.428 -23.183  0.00  0.00     0.067 C 
ATOM     49  O4D NTO d 869     -11.703  22.458 -26.903  0.00  0.00    -0.572 OA
ATOM     50  O3I NTO d 869     -11.945  23.825 -21.132  0.00  0.00    -0.296 OA
ATOM     51  O10 NTO d 869     -24.578  18.403 -14.504  0.00  0.00    -0.390 OA
ATOM     52  O1A NTO d 869     -19.255  16.915 -11.229  0.00  0.00    -0.572 OA
ATOM     53  O5K NTO d 869      -6.772  12.549 -22.461  0.00  0.00    -0.296 OA
ATOM     54  O16 NTO d 869     -20.967  16.849 -12.890  0.00  0.00    -0.254 OA
ATOM     55  O56 NTO d 869      -8.394  22.360 -20.802  0.00  0.00    -0.572 OA
ATOM     56  C43 NTO d 869     -13.188  18.123 -22.253  0.00  0.00     0.206 C 
ATOM     57  O54 NTO d 869      -7.152  20.551 -21.779  0.00  0.00    -0.254 OA
ATOM     58  S55 NTO d 869      -7.033  21.819 -21.124  0.00  0.00     0.251 S 
ATOM     59  O5A NTO d 869      -9.890  16.572 -23.465  0.00  0.00    -0.391 OA
ATOM     60  O4G NTO d 869      -9.370  19.229 -24.240  0.00  0.00    -0.348 OA
ATOM     61  O3C NTO d 869     -13.507  21.103 -17.736  0.00  0.00    -0.572 OA
ATOM     62  O3M NTO d 869     -13.576  20.786 -21.858  0.00  0.00    -0.348 OA
ATOM     63  O44 NTO d 869     -13.480  16.994 -22.724  0.00  0.00    -0.646 OA
ATOM     64  C23 NTO d 869     -19.979  20.022 -16.624  0.00  0.00     0.206 C 
ATOM     65  C41 NTO d 869     -12.414  19.091 -23.136  0.00  0.00     0.152 C 
ATOM     66  O22 NTO d 869     -18.432  19.429 -18.428  0.00  0.00    -0.340 OA
ATOM     67  O1C NTO d 869     -25.537  17.198 -16.960  0.00  0.00    -0.391 OA
ATOM     68  C15 NTO d 869     -22.342  16.948 -13.266  0.00  0.00     0.067 C 
ATOM     69  N3G NTO d 869     -13.797  22.723 -19.753  0.00  0.00    -0.210 NA
ATOM     70  C40 NTO d 869     -13.177  20.408 -23.181  0.00  0.00     0.103 C 
ATOM     71  S1G NTO d 869     -24.504  15.515 -19.429  0.00  0.00     0.156 S 
ATOM     72  O1L NTO d 869     -21.480  17.786 -17.213  0.00  0.00    -0.348 OA
ATOM     73  O57 NTO d 869      -6.320  22.779 -22.029  0.00  0.00    -0.572 OA
ATOM     74  O34 NTO d 869     -18.492  20.522 -22.735  0.00  0.00    -0.254 OA
ATOM     75  O1H NTO d 869     -25.831  15.782 -18.783  0.00  0.00    -0.296 OA
ATOM     76  O27 NTO d 869     -20.355  15.766 -18.987  0.00  0.00    -0.390 OA
ATOM     77  C50 NTO d 869      -8.466  18.503 -23.395  0.00  0.00     0.095 C 
ATOM     78  O3E NTO d 869     -14.772  19.011 -17.760  0.00  0.00    -0.572 OA
ATOM     79  O25 NTO d 869     -21.134  20.415 -16.336  0.00  0.00    -0.646 OA
ATOM     80  S3H NTO d 869     -13.252  24.099 -20.445  0.00  0.00     0.156 S 
ATOM     81  S35 NTO d 869     -19.765  20.216 -23.319  0.00  0.00     0.251 S 
ATOM     82  O1I NTO d 869     -24.098  14.092 -19.180  0.00  0.00    -0.296 OA
ATOM     83  C13 NTO d 869     -22.478  17.253 -14.760  0.00  0.00     0.090 C 
ATOM     84  O58 NTO d 869      -6.249  21.643 -19.859  0.00  0.00    -0.572 OA
ATOM     85  O3A NTO d 869     -15.794  21.071 -18.458  0.00  0.00    -0.247 OA
ATOM     86  C1B NTO d 869     -24.155  17.375 -16.638  0.00  0.00     0.083 C 
ATOM     87  O4C NTO d 869     -10.295  20.449 -26.950  0.00  0.00    -0.572 OA
ATOM     88  O4E NTO d 869      -9.262  22.663 -27.064  0.00  0.00    -0.572 OA
ATOM     89  O36 NTO d 869     -20.680  19.645 -22.277  0.00  0.00    -0.572 OA
ATOM     90  O2A NTO d 869     -18.575  16.773 -20.980  0.00  0.00    -0.388 OA
ATOM     91  C30 NTO d 869     -16.548  20.218 -20.605  0.00  0.00     0.096 C 
ATOM     92  H   NTO d 869     -15.747  22.855 -20.434  0.00  0.00     0.076 H 
ATOM     93  H   NTO d 869      -5.513  16.327 -22.380  0.00  0.00     0.131 H 
ATOM     94  H   NTO d 869      -9.687  20.705 -22.853  0.00  0.00     0.133 H 
ATOM     95  H   NTO d 869     -22.473  16.309 -19.205  0.00  0.00     0.140 HD
ATOM     96  H   NTO d 869      -6.439  13.925 -20.254  0.00  0.00     0.231 HD
ATOM     97  H   NTO d 869     -14.172  22.691 -22.415  0.00  0.00     0.131 H 
ATOM     98  H   NTO d 869     -17.964  16.815 -19.019  0.00  0.00     0.094 H 
ATOM     99  H   NTO d 869     -19.496  17.343 -17.078  0.00  0.00     0.092 H 
ATOM    100  H   NTO d 869     -23.702  15.333 -17.091  0.00  0.00     0.076 H 
ATOM    101  H   NTO d 869     -12.727  25.962 -19.802  0.00  0.00     0.231 HD
ATOM    102  H   NTO d 869     -15.363  19.406 -22.163  0.00  0.00     0.090 H 
ATOM    103  H   NTO d 869     -11.936  22.133 -22.933  0.00  0.00     0.091 H 
ATOM    104  H   NTO d 869      -6.800  18.835 -24.653  0.00  0.00     0.090 H 
ATOM    105  H   NTO d 869      -7.832  16.295 -21.903  0.00  0.00     0.076 H 
ATOM    106  H   NTO d 869      -8.353  16.884 -24.801  0.00  0.00     0.089 H 
ATOM    107  H   NTO d 869     -20.413  19.754 -18.693  0.00  0.00     0.104 H 
ATOM    108  H   NTO d 869     -20.771  17.606 -19.788  0.00  0.00     0.091 H 
ATOM    109  H   NTO d 869     -13.356  21.754 -25.382  0.00  0.00     0.210 HD
ATOM    110  H   NTO d 869     -24.858  16.678 -21.066  0.00  0.00     0.231 HD
ATOM    111  H   NTO d 869      -3.768  16.179 -25.251  0.00  0.00     0.066 H 
ATOM    112  H   NTO d 869      -3.913  15.646 -23.594  0.00  0.00     0.066 H 
ATOM    113  H   NTO d 869      -3.796  17.351 -23.955  0.00  0.00     0.066 H 
ATOM    114  H   NTO d 869     -13.915  25.423 -21.847  0.00  0.00     0.231 HD
ATOM    115  H   NTO d 869      -8.667  13.008 -20.685  0.00  0.00     0.231 HD
ATOM    116  H   NTO d 869     -14.567  20.150 -19.809  0.00  0.00     0.092 H 
ATOM    117  H   NTO d 869     -21.224  15.735 -17.384  0.00  0.00     0.131 H 
ATOM    118  H   NTO d 869     -18.887  19.312 -20.412  0.00  0.00     0.133 H 
ATOM    119  H   NTO d 869      -6.797  14.647 -23.997  0.00  0.00     0.140 HD
ATOM    120  H   NTO d 869     -17.682  18.658 -22.500  0.00  0.00     0.080 H 
ATOM    121  H   NTO d 869     -17.120  19.567 -23.901  0.00  0.00     0.080 H 
ATOM    122  H   NTO d 869     -24.412  16.359 -14.781  0.00  0.00     0.091 H 
ATOM    123  H   NTO d 869     -11.464  20.249 -25.236  0.00  0.00     0.097 H 
ATOM    124  H   NTO d 869      -7.634  21.014 -23.715  0.00  0.00     0.080 H 
ATOM    125  H   NTO d 869      -5.925  20.775 -23.399  0.00  0.00     0.080 H 
ATOM    126  H   NTO d 869     -11.620  24.641 -21.544  0.00  0.00     0.231 HD
ATOM    127  H   NTO d 869     -24.157  19.214 -14.829  0.00  0.00     0.210 HD
ATOM    128  H   NTO d 869      -6.677  11.976 -21.683  0.00  0.00     0.231 HD
ATOM    129  H   NTO d 869     -10.072  16.702 -22.521  0.00  0.00     0.210 HD
ATOM    130  H   NTO d 869     -12.314  18.695 -24.124  0.00  0.00     0.104 H 
ATOM    131  H   NTO d 869     -25.657  17.265 -17.920  0.00  0.00     0.210 HD
ATOM    132  H   NTO d 869     -22.803  17.733 -12.705  0.00  0.00     0.080 H 
ATOM    133  H   NTO d 869     -22.821  16.012 -13.063  0.00  0.00     0.080 H 
ATOM    134  H   NTO d 869     -13.040  22.039 -19.745  0.00  0.00     0.140 HD
ATOM    135  H   NTO d 869     -14.033  20.274 -23.807  0.00  0.00     0.092 H 
ATOM    136  H   NTO d 869     -26.090  16.702 -18.946  0.00  0.00     0.231 HD
ATOM    137  H   NTO d 869     -19.716  15.358 -18.381  0.00  0.00     0.210 HD
ATOM    138  H   NTO d 869      -8.724  18.669 -22.370  0.00  0.00     0.091 H 
ATOM    139  H   NTO d 869     -23.239  13.923 -19.599  0.00  0.00     0.231 HD
ATOM    140  H   NTO d 869     -22.057  18.205 -15.009  0.00  0.00     0.090 H 
ATOM    141  H   NTO d 869     -23.834  18.341 -16.969  0.00  0.00     0.089 H 
ATOM    142  H   NTO d 869     -19.194  17.241 -21.562  0.00  0.00     0.210 HD
ATOM    143  H   NTO d 869     -17.397  20.860 -20.489  0.00  0.00     0.091 H 
ENDROOT
TORSDOF 46
ENDMDL
MODEL 44
REMARK VINA RESULT:      -5.8      3.778     13.677
REMARK  0 active torsions:
REMARK  status: ('A' for Active; 'I' for Inactive)
REMARK       I    between atoms: O4A_2  and  C49_47 
REMARK       I    between atoms: O4A_2  and  S4B_15 
REMARK       I    between atoms: C3F_4  and  N3G_69 
REMARK       I    between atoms: S17_5  and  O16_54 
REMARK       I    between atoms: C5L_6  and  O5M_26 
REMARK       I    between atoms: C4F_7  and  O4G_60 
REMARK       I    between atoms: N1F_9  and  C1E_19 
REMARK       I    between atoms: N1F_9  and  S1G_71 
REMARK       I    between atoms: O5J_11  and  S5H_38 
REMARK       I    between atoms: C3L_12  and  O3M_62 
REMARK       I    between atoms: C29_13  and  O2A_90 
REMARK       I    between atoms: S3B_14  and  O3A_85 
REMARK       I    between atoms: C20_18  and  O1L_72 
REMARK       I    between atoms: O3J_20  and  S3H_80 
REMARK       I    between atoms: C31_23  and  C33_44 
REMARK       I    between atoms: C46_25  and  O47_33 
REMARK       I    between atoms: O5M_26  and  C5N_35 
REMARK       I    between atoms: C51_28  and  C53_48 
REMARK       I    between atoms: C5F_29  and  N5G_43 
REMARK       I    between atoms: C59_30  and  O5A_59 
REMARK       I    between atoms: C21_31  and  C23_64 
REMARK       I    between atoms: C26_32  and  O27_76 
REMARK       I    between atoms: O1J_34  and  S1G_71 
REMARK       I    between atoms: O3K_36  and  S3H_80 
REMARK       I    between atoms: O5I_37  and  S5H_38 
REMARK       I    between atoms: S5H_38  and  O5K_53 
REMARK       I    between atoms: S5H_38  and  N5G_43 
REMARK       I    between atoms: C39_39  and  O3A_85 
REMARK       I    between atoms: C1K_40  and  O1L_72 
REMARK       I    between atoms: C2C_41  and  O2D_45 
REMARK       I    between atoms: C33_44  and  O34_74 
REMARK       I    between atoms: O2D_45  and  C30_91 
REMARK       I    between atoms: C12_46  and  O10_51 
REMARK       I    between atoms: C53_48  and  O54_57 
REMARK       I    between atoms: O3I_50  and  S3H_80 
REMARK       I    between atoms: O16_54  and  C15_68 
REMARK       I    between atoms: C43_56  and  C41_65 
REMARK       I    between atoms: O54_57  and  S55_58 
REMARK       I    between atoms: O4G_60  and  C50_77 
REMARK       I    between atoms: O3M_62  and  C40_70 
REMARK       I    between atoms: O1C_67  and  C1B_86 
REMARK       I    between atoms: C15_68  and  C13_83 
REMARK       I    between atoms: N3G_69  and  S3H_80 
REMARK       I    between atoms: S1G_71  and  O1H_75 
REMARK       I    between atoms: S1G_71  and  O1I_82 
REMARK       I    between atoms: O34_74  and  S35_81 
ROOT
ATOM      1  O42 NTO d 869     -11.859  19.512 -19.523  0.00  0.00    -0.340 OA
ATOM      2  O4A NTO d 869      -9.819  22.557 -19.241  0.00  0.00    -0.244 OA
ATOM      3  O32 NTO d 869     -15.199  22.034 -16.670  0.00  0.00    -0.349 OA
ATOM      4  C3F NTO d 869     -14.372  20.479 -15.028  0.00  0.00     0.083 C 
ATOM      5  S17 NTO d 869     -22.697  12.203 -12.519  0.00  0.00     0.251 S 
ATOM      6  C5L NTO d 869      -8.356  17.081 -23.104  0.00  0.00     0.149 C 
ATOM      7  C4F NTO d 869     -10.706  20.348 -19.711  0.00  0.00     0.161 C 
ATOM      8  O14 NTO d 869     -23.474  15.612 -14.600  0.00  0.00    -0.349 OA
ATOM      9  N1F NTO d 869     -24.494  18.910 -15.895  0.00  0.00    -0.210 NA
ATOM     10  O37 NTO d 869     -19.414  23.598 -18.272  0.00  0.00    -0.572 OA
ATOM     11  O5J NTO d 869      -9.842  14.370 -23.490  0.00  0.00    -0.296 OA
ATOM     12  C3L NTO d 869     -14.015  21.350 -16.231  0.00  0.00     0.150 C 
ATOM     13  C29 NTO d 869     -19.782  18.536 -17.137  0.00  0.00     0.110 C 
ATOM     14  S3B NTO d 869     -15.246  17.265 -14.557  0.00  0.00     0.252 S 
ATOM     15  S4B NTO d 869      -9.798  23.710 -20.088  0.00  0.00     0.252 S 
ATOM     16  O24 NTO d 869     -19.265  17.066 -12.654  0.00  0.00    -0.646 OA
ATOM     17  O45 NTO d 869     -14.506  18.667 -18.557  0.00  0.00    -0.646 OA
ATOM     18  C20 NTO d 869     -21.113  17.748 -15.188  0.00  0.00     0.103 C 
ATOM     19  C1E NTO d 869     -24.659  17.623 -15.208  0.00  0.00     0.081 C 
ATOM     20  O3J NTO d 869     -11.513  20.558 -12.660  0.00  0.00    -0.296 OA
ATOM     21  O38 NTO d 869     -19.245  24.561 -16.021  0.00  0.00    -0.572 OA
ATOM     22  O18 NTO d 869     -23.250  11.439 -13.685  0.00  0.00    -0.572 OA
ATOM     23  C31 NTO d 869     -16.171  21.105 -17.175  0.00  0.00     0.091 C 
ATOM     24  O52 NTO d 869      -7.771  17.563 -21.883  0.00  0.00    -0.349 OA
ATOM     25  C46 NTO d 869     -11.915  21.933 -18.190  0.00  0.00     0.094 C 
ATOM     26  O5M NTO d 869      -7.875  17.784 -24.257  0.00  0.00    -0.364 OA
ATOM     27  O3D NTO d 869     -15.678  16.423 -13.393  0.00  0.00    -0.572 OA
ATOM     28  C51 NTO d 869      -8.218  18.881 -21.527  0.00  0.00     0.091 C 
ATOM     29  C5F NTO d 869      -9.884  17.097 -23.040  0.00  0.00     0.081 C 
ATOM     30  C59 NTO d 869     -10.394  18.484 -22.644  0.00  0.00     0.083 C 
ATOM     31  C21 NTO d 869     -20.157  18.536 -14.307  0.00  0.00     0.152 C 
ATOM     32  C26 NTO d 869     -21.188  18.461 -16.538  0.00  0.00     0.092 C 
ATOM     33  O47 NTO d 869     -12.183  23.313 -17.924  0.00  0.00    -0.390 OA
ATOM     34  O1J NTO d 869     -25.707  20.596 -17.375  0.00  0.00    -0.296 OA
ATOM     35  C5N NTO d 869      -6.624  17.216 -24.658  0.00  0.00     0.007 C 
ATOM     36  O3K NTO d 869     -12.631  22.300 -13.947  0.00  0.00    -0.296 OA
ATOM     37  O5I NTO d 869     -12.200  14.946 -23.815  0.00  0.00    -0.296 OA
ATOM     38  S5H NTO d 869     -10.811  15.125 -24.350  0.00  0.00     0.156 S 
ATOM     39  C39 NTO d 869     -15.374  19.423 -15.500  0.00  0.00     0.108 C 
ATOM     40  C1K NTO d 869     -23.322  16.882 -15.253  0.00  0.00     0.150 C 
ATOM     41  C2C NTO d 869     -18.814  19.207 -16.159  0.00  0.00     0.160 C 
ATOM     42  O19 NTO d 869     -23.532  11.942 -11.301  0.00  0.00    -0.572 OA
ATOM     43  N5G NTO d 869     -10.439  16.714 -24.346  0.00  0.00    -0.210 NA
ATOM     44  C33 NTO d 869     -17.403  21.872 -17.664  0.00  0.00     0.067 C 
ATOM     45  O2D NTO d 869     -17.488  19.149 -16.710  0.00  0.00    -0.348 OA
ATOM     46  C12 NTO d 869     -25.048  16.547 -12.982  0.00  0.00     0.089 C 
ATOM     47  C49 NTO d 869     -11.029  21.819 -19.430  0.00  0.00     0.134 C 
ATOM     48  C53 NTO d 869      -7.547  19.245 -20.201  0.00  0.00     0.067 C 
ATOM     49  O4D NTO d 869     -10.705  24.764 -19.526  0.00  0.00    -0.572 OA
ATOM     50  O3I NTO d 869     -10.895  20.926 -15.003  0.00  0.00    -0.296 OA
ATOM     51  O10 NTO d 869     -25.193  16.825 -11.587  0.00  0.00    -0.390 OA
ATOM     52  O1A NTO d 869     -21.285  11.771 -12.268  0.00  0.00    -0.572 OA
ATOM     53  O5K NTO d 869     -10.735  14.591 -25.750  0.00  0.00    -0.296 OA
ATOM     54  O16 NTO d 869     -22.711  13.604 -12.820  0.00  0.00    -0.254 OA
ATOM     55  O56 NTO d 869      -8.311  18.796 -16.914  0.00  0.00    -0.572 OA
ATOM     56  C43 NTO d 869     -14.269  19.296 -19.614  0.00  0.00     0.206 C 
ATOM     57  O54 NTO d 869      -7.841  18.261 -19.208  0.00  0.00    -0.254 OA
ATOM     58  S55 NTO d 869      -7.271  18.348 -17.897  0.00  0.00     0.251 S 
ATOM     59  O5A NTO d 869     -11.808  18.433 -22.434  0.00  0.00    -0.391 OA
ATOM     60  O4G NTO d 869     -10.169  20.249 -21.038  0.00  0.00    -0.348 OA
ATOM     61  O3C NTO d 869     -13.747  17.309 -14.597  0.00  0.00    -0.572 OA
ATOM     62  O3M NTO d 869     -13.559  20.464 -17.263  0.00  0.00    -0.348 OA
ATOM     63  O44 NTO d 869     -14.957  19.186 -20.662  0.00  0.00    -0.646 OA
ATOM     64  C23 NTO d 869     -20.161  17.902 -12.924  0.00  0.00     0.206 C 
ATOM     65  C41 NTO d 869     -13.087  20.253 -19.627  0.00  0.00     0.152 C 
ATOM     66  O22 NTO d 869     -18.837  18.555 -14.878  0.00  0.00    -0.340 OA
ATOM     67  O1C NTO d 869     -26.332  18.474 -13.682  0.00  0.00    -0.391 OA
ATOM     68  C15 NTO d 869     -23.881  14.388 -12.580  0.00  0.00     0.067 C 
ATOM     69  N3G NTO d 869     -13.155  19.842 -14.492  0.00  0.00    -0.210 NA
ATOM     70  C40 NTO d 869     -13.232  21.203 -18.446  0.00  0.00     0.103 C 
ATOM     71  S1G NTO d 869     -25.862  19.261 -16.707  0.00  0.00     0.156 S 
ATOM     72  O1L NTO d 869     -22.389  17.701 -14.535  0.00  0.00    -0.348 OA
ATOM     73  O57 NTO d 869      -6.145  19.338 -17.912  0.00  0.00    -0.572 OA
ATOM     74  O34 NTO d 869     -18.042  22.576 -16.595  0.00  0.00    -0.254 OA
ATOM     75  O1H NTO d 869     -27.014  19.299 -15.748  0.00  0.00    -0.296 OA
ATOM     76  O27 NTO d 869     -22.039  17.732 -17.427  0.00  0.00    -0.390 OA
ATOM     77  C50 NTO d 869      -9.728  18.917 -21.339  0.00  0.00     0.095 C 
ATOM     78  O3E NTO d 869     -15.755  16.655 -15.831  0.00  0.00    -0.572 OA
ATOM     79  O25 NTO d 869     -21.072  18.236 -12.131  0.00  0.00    -0.646 OA
ATOM     80  S3H NTO d 869     -12.029  20.928 -14.020  0.00  0.00     0.156 S 
ATOM     81  S35 NTO d 869     -19.268  23.287 -16.812  0.00  0.00     0.251 S 
ATOM     82  O1I NTO d 869     -26.104  18.207 -17.747  0.00  0.00    -0.296 OA
ATOM     83  C13 NTO d 869     -23.741  15.782 -13.199  0.00  0.00     0.090 C 
ATOM     84  O58 NTO d 869      -6.750  17.000 -17.500  0.00  0.00    -0.572 OA
ATOM     85  O3A NTO d 869     -15.766  18.589 -14.404  0.00  0.00    -0.247 OA
ATOM     86  C1B NTO d 869     -25.037  17.873 -13.748  0.00  0.00     0.083 C 
ATOM     87  O4C NTO d 869     -10.253  23.331 -21.466  0.00  0.00    -0.572 OA
ATOM     88  O4E NTO d 869      -8.394  24.230 -20.157  0.00  0.00    -0.572 OA
ATOM     89  O36 NTO d 869     -20.429  22.450 -16.365  0.00  0.00    -0.572 OA
ATOM     90  O2A NTO d 869     -19.826  19.281 -18.355  0.00  0.00    -0.388 OA
ATOM     91  C30 NTO d 869     -16.603  20.107 -16.108  0.00  0.00     0.096 C 
ATOM     92  H   NTO d 869     -14.805  21.068 -14.246  0.00  0.00     0.076 H 
ATOM     93  H   NTO d 869      -8.043  16.064 -23.211  0.00  0.00     0.131 H 
ATOM     94  H   NTO d 869      -9.977  19.995 -19.013  0.00  0.00     0.133 H 
ATOM     95  H   NTO d 869     -23.714  18.850 -16.550  0.00  0.00     0.140 HD
ATOM     96  H   NTO d 869     -10.070  13.426 -23.498  0.00  0.00     0.231 HD
ATOM     97  H   NTO d 869     -13.262  22.072 -15.990  0.00  0.00     0.131 H 
ATOM     98  H   NTO d 869     -19.436  17.542 -17.331  0.00  0.00     0.094 H 
ATOM     99  H   NTO d 869     -20.786  16.742 -15.349  0.00  0.00     0.092 H 
ATOM    100  H   NTO d 869     -25.426  17.047 -15.683  0.00  0.00     0.076 H 
ATOM    101  H   NTO d 869     -10.845  21.203 -12.381  0.00  0.00     0.231 HD
ATOM    102  H   NTO d 869     -15.720  20.564 -17.979  0.00  0.00     0.090 H 
ATOM    103  H   NTO d 869     -11.418  21.497 -17.349  0.00  0.00     0.091 H 
ATOM    104  H   NTO d 869      -7.964  19.570 -22.306  0.00  0.00     0.090 H 
ATOM    105  H   NTO d 869     -10.202  16.395 -22.297  0.00  0.00     0.076 H 
ATOM    106  H   NTO d 869     -10.163  19.177 -23.426  0.00  0.00     0.089 H 
ATOM    107  H   NTO d 869     -20.473  19.556 -14.232  0.00  0.00     0.104 H 
ATOM    108  H   NTO d 869     -21.583  19.445 -16.399  0.00  0.00     0.091 H 
ATOM    109  H   NTO d 869     -12.634  23.708 -18.687  0.00  0.00     0.210 HD
ATOM    110  H   NTO d 869     -25.551  21.277 -16.703  0.00  0.00     0.231 HD
ATOM    111  H   NTO d 869      -6.257  17.734 -25.519  0.00  0.00     0.066 H 
ATOM    112  H   NTO d 869      -6.762  16.182 -24.896  0.00  0.00     0.066 H 
ATOM    113  H   NTO d 869      -5.918  17.307 -23.859  0.00  0.00     0.066 H 
ATOM    114  H   NTO d 869     -11.954  22.935 -13.666  0.00  0.00     0.231 HD
ATOM    115  H   NTO d 869     -12.427  14.002 -23.815  0.00  0.00     0.231 HD
ATOM    116  H   NTO d 869     -14.909  18.813 -16.247  0.00  0.00     0.092 H 
ATOM    117  H   NTO d 869     -22.988  16.708 -16.254  0.00  0.00     0.131 H 
ATOM    118  H   NTO d 869     -19.114  20.224 -16.016  0.00  0.00     0.133 H 
ATOM    119  H   NTO d 869      -9.750  16.901 -25.074  0.00  0.00     0.140 HD
ATOM    120  H   NTO d 869     -18.099  21.180 -18.088  0.00  0.00     0.080 H 
ATOM    121  H   NTO d 869     -17.084  22.588 -18.393  0.00  0.00     0.080 H 
ATOM    122  H   NTO d 869     -25.860  15.949 -13.338  0.00  0.00     0.091 H 
ATOM    123  H   NTO d 869     -11.554  22.226 -20.269  0.00  0.00     0.097 H 
ATOM    124  H   NTO d 869      -7.908  20.196 -19.872  0.00  0.00     0.080 H 
ATOM    125  H   NTO d 869      -6.487  19.284 -20.347  0.00  0.00     0.080 H 
ATOM    126  H   NTO d 869     -10.226  21.570 -14.724  0.00  0.00     0.231 HD
ATOM    127  H   NTO d 869     -24.447  17.368 -11.287  0.00  0.00     0.210 HD
ATOM    128  H   NTO d 869     -10.957  13.646 -25.748  0.00  0.00     0.231 HD
ATOM    129  H   NTO d 869     -12.007  17.803 -21.724  0.00  0.00     0.210 HD
ATOM    130  H   NTO d 869     -13.069  20.809 -20.541  0.00  0.00     0.104 H 
ATOM    131  H   NTO d 869     -26.324  19.313 -14.168  0.00  0.00     0.210 HD
ATOM    132  H   NTO d 869     -24.027  14.486 -11.525  0.00  0.00     0.080 H 
ATOM    133  H   NTO d 869     -24.720  13.897 -13.030  0.00  0.00     0.080 H 
ATOM    134  H   NTO d 869     -12.752  19.248 -15.216  0.00  0.00     0.140 HD
ATOM    135  H   NTO d 869     -14.005  21.905 -18.677  0.00  0.00     0.092 H 
ATOM    136  H   NTO d 869     -26.854  19.982 -15.078  0.00  0.00     0.231 HD
ATOM    137  H   NTO d 869     -21.684  16.838 -17.556  0.00  0.00     0.210 HD
ATOM    138  H   NTO d 869      -9.988  18.264 -20.532  0.00  0.00     0.091 H 
ATOM    139  H   NTO d 869     -25.357  18.185 -18.365  0.00  0.00     0.231 HD
ATOM    140  H   NTO d 869     -22.944  16.335 -12.748  0.00  0.00     0.090 H 
ATOM    141  H   NTO d 869     -24.317  18.530 -13.307  0.00  0.00     0.089 H 
ATOM    142  H   NTO d 869     -20.140  20.180 -18.173  0.00  0.00     0.210 HD
ATOM    143  H   NTO d 869     -17.118  20.609 -15.316  0.00  0.00     0.091 H 
ENDROOT
TORSDOF 46
ENDMDL
MODEL 45
REMARK VINA RESULT:      -5.8      3.520     14.205
REMARK  0 active torsions:
REMARK  status: ('A' for Active; 'I' for Inactive)
REMARK       I    between atoms: O4A_2  and  C49_47 
REMARK       I    between atoms: O4A_2  and  S4B_15 
REMARK       I    between atoms: C3F_4  and  N3G_69 
REMARK       I    between atoms: S17_5  and  O16_54 
REMARK       I    between atoms: C5L_6  and  O5M_26 
REMARK       I    between atoms: C4F_7  and  O4G_60 
REMARK       I    between atoms: N1F_9  and  C1E_19 
REMARK       I    between atoms: N1F_9  and  S1G_71 
REMARK       I    between atoms: O5J_11  and  S5H_38 
REMARK       I    between atoms: C3L_12  and  O3M_62 
REMARK       I    between atoms: C29_13  and  O2A_90 
REMARK       I    between atoms: S3B_14  and  O3A_85 
REMARK       I    between atoms: C20_18  and  O1L_72 
REMARK       I    between atoms: O3J_20  and  S3H_80 
REMARK       I    between atoms: C31_23  and  C33_44 
REMARK       I    between atoms: C46_25  and  O47_33 
REMARK       I    between atoms: O5M_26  and  C5N_35 
REMARK       I    between atoms: C51_28  and  C53_48 
REMARK       I    between atoms: C5F_29  and  N5G_43 
REMARK       I    between atoms: C59_30  and  O5A_59 
REMARK       I    between atoms: C21_31  and  C23_64 
REMARK       I    between atoms: C26_32  and  O27_76 
REMARK       I    between atoms: O1J_34  and  S1G_71 
REMARK       I    between atoms: O3K_36  and  S3H_80 
REMARK       I    between atoms: O5I_37  and  S5H_38 
REMARK       I    between atoms: S5H_38  and  O5K_53 
REMARK       I    between atoms: S5H_38  and  N5G_43 
REMARK       I    between atoms: C39_39  and  O3A_85 
REMARK       I    between atoms: C1K_40  and  O1L_72 
REMARK       I    between atoms: C2C_41  and  O2D_45 
REMARK       I    between atoms: C33_44  and  O34_74 
REMARK       I    between atoms: O2D_45  and  C30_91 
REMARK       I    between atoms: C12_46  and  O10_51 
REMARK       I    between atoms: C53_48  and  O54_57 
REMARK       I    between atoms: O3I_50  and  S3H_80 
REMARK       I    between atoms: O16_54  and  C15_68 
REMARK       I    between atoms: C43_56  and  C41_65 
REMARK       I    between atoms: O54_57  and  S55_58 
REMARK       I    between atoms: O4G_60  and  C50_77 
REMARK       I    between atoms: O3M_62  and  C40_70 
REMARK       I    between atoms: O1C_67  and  C1B_86 
REMARK       I    between atoms: C15_68  and  C13_83 
REMARK       I    between atoms: N3G_69  and  S3H_80 
REMARK       I    between atoms: S1G_71  and  O1H_75 
REMARK       I    between atoms: S1G_71  and  O1I_82 
REMARK       I    between atoms: O34_74  and  S35_81 
ROOT
ATOM      1  O42 NTO d 869     -10.278  20.073 -20.662  0.00  0.00    -0.340 OA
ATOM      2  O4A NTO d 869      -8.549  21.795 -17.914  0.00  0.00    -0.244 OA
ATOM      3  O32 NTO d 869     -14.515  21.622 -18.358  0.00  0.00    -0.349 OA
ATOM      4  C3F NTO d 869     -14.588  19.283 -17.788  0.00  0.00     0.083 C 
ATOM      5  S17 NTO d 869     -23.283  13.735 -23.928  0.00  0.00     0.251 S 
ATOM      6  C5L NTO d 869      -5.555  18.924 -23.377  0.00  0.00     0.149 C 
ATOM      7  C4F NTO d 869      -9.156  20.509 -19.880  0.00  0.00     0.161 C 
ATOM      8  O14 NTO d 869     -22.922  17.782 -23.704  0.00  0.00    -0.349 OA
ATOM      9  N1F NTO d 869     -23.147  21.407 -23.069  0.00  0.00    -0.210 NA
ATOM     10  O37 NTO d 869     -17.452  24.933 -20.144  0.00  0.00    -0.572 OA
ATOM     11  O5J NTO d 869      -6.741  17.364 -25.800  0.00  0.00    -0.296 OA
ATOM     12  C3L NTO d 869     -13.690  20.499 -18.008  0.00  0.00     0.150 C 
ATOM     13  C29 NTO d 869     -18.412  20.368 -22.444  0.00  0.00     0.110 C 
ATOM     14  S3B NTO d 869     -15.646  16.699 -19.665  0.00  0.00     0.252 S 
ATOM     15  S4B NTO d 869      -8.109  23.154 -17.836  0.00  0.00     0.252 S 
ATOM     16  O24 NTO d 869     -20.091  16.734 -19.895  0.00  0.00    -0.646 OA
ATOM     17  O45 NTO d 869     -13.086  19.666 -21.442  0.00  0.00    -0.646 OA
ATOM     18  C20 NTO d 869     -20.519  19.121 -21.998  0.00  0.00     0.103 C 
ATOM     19  C1E NTO d 869     -23.642  20.063 -23.394  0.00  0.00     0.081 C 
ATOM     20  O3J NTO d 869     -13.174  17.302 -14.984  0.00  0.00    -0.296 OA
ATOM     21  O38 NTO d 869     -18.340  24.508 -17.896  0.00  0.00    -0.572 OA
ATOM     22  O18 NTO d 869     -23.239  13.876 -25.420  0.00  0.00    -0.572 OA
ATOM     23  C31 NTO d 869     -15.155  21.412 -19.627  0.00  0.00     0.091 C 
ATOM     24  O52 NTO d 869      -5.602  18.517 -21.999  0.00  0.00    -0.349 OA
ATOM     25  C46 NTO d 869     -10.905  21.363 -18.299  0.00  0.00     0.094 C 
ATOM     26  O5M NTO d 869      -4.575  19.942 -23.614  0.00  0.00    -0.364 OA
ATOM     27  O3D NTO d 869     -16.591  15.549 -19.482  0.00  0.00    -0.572 OA
ATOM     28  C51 NTO d 869      -6.137  19.531 -21.132  0.00  0.00     0.091 C 
ATOM     29  C5F NTO d 869      -6.934  19.349 -23.885  0.00  0.00     0.081 C 
ATOM     30  C59 NTO d 869      -7.541  20.415 -22.972  0.00  0.00     0.083 C 
ATOM     31  C21 NTO d 869     -20.072  19.028 -20.547  0.00  0.00     0.152 C 
ATOM     32  C26 NTO d 869     -19.936  20.410 -22.576  0.00  0.00     0.092 C 
ATOM     33  O47 NTO d 869     -11.238  22.420 -17.393  0.00  0.00    -0.390 OA
ATOM     34  O1J NTO d 869     -23.489  23.880 -23.588  0.00  0.00    -0.296 OA
ATOM     35  C5N NTO d 869      -3.294  19.325 -23.776  0.00  0.00     0.007 C 
ATOM     36  O3K NTO d 869     -13.522  19.693 -15.296  0.00  0.00    -0.296 OA
ATOM     37  O5I NTO d 869      -8.658  18.682 -26.564  0.00  0.00    -0.296 OA
ATOM     38  S5H NTO d 869      -7.177  18.697 -26.331  0.00  0.00     0.156 S 
ATOM     39  C39 NTO d 869     -15.272  18.964 -19.119  0.00  0.00     0.108 C 
ATOM     40  C1K NTO d 869     -22.456  19.098 -23.369  0.00  0.00     0.150 C 
ATOM     41  C2C NTO d 869     -18.004  20.128 -20.988  0.00  0.00     0.160 C 
ATOM     42  O19 NTO d 869     -24.597  13.143 -23.514  0.00  0.00    -0.572 OA
ATOM     43  N5G NTO d 869      -6.818  19.870 -25.255  0.00  0.00    -0.210 NA
ATOM     44  C33 NTO d 869     -15.997  22.642 -19.981  0.00  0.00     0.067 C 
ATOM     45  O2D NTO d 869     -16.575  19.977 -20.930  0.00  0.00    -0.348 OA
ATOM     46  C12 NTO d 869     -25.052  18.166 -22.570  0.00  0.00     0.089 C 
ATOM     47  C49 NTO d 869      -9.542  21.647 -18.931  0.00  0.00     0.134 C 
ATOM     48  C53 NTO d 869      -6.160  18.949 -19.717  0.00  0.00     0.067 C 
ATOM     49  O4D NTO d 869      -9.152  23.982 -17.146  0.00  0.00    -0.572 OA
ATOM     50  O3I NTO d 869     -11.521  18.619 -16.224  0.00  0.00    -0.296 OA
ATOM     51  O10 NTO d 869     -25.829  17.718 -21.456  0.00  0.00    -0.390 OA
ATOM     52  O1A NTO d 869     -22.163  12.846 -23.481  0.00  0.00    -0.572 OA
ATOM     53  O5K NTO d 869      -6.463  18.960 -27.624  0.00  0.00    -0.296 OA
ATOM     54  O16 NTO d 869     -23.125  15.025 -23.325  0.00  0.00    -0.254 OA
ATOM     55  O56 NTO d 869      -8.387  17.125 -17.899  0.00  0.00    -0.572 OA
ATOM     56  C43 NTO d 869     -12.368  20.647 -21.744  0.00  0.00     0.206 C 
ATOM     57  O54 NTO d 869      -6.906  17.731 -19.691  0.00  0.00    -0.254 OA
ATOM     58  S55 NTO d 869      -7.016  16.964 -18.487  0.00  0.00     0.251 S 
ATOM     59  O5A NTO d 869      -8.890  20.678 -23.372  0.00  0.00    -0.391 OA
ATOM     60  O4G NTO d 869      -8.061  20.953 -20.694  0.00  0.00    -0.348 OA
ATOM     61  O3C NTO d 869     -14.303  16.319 -19.114  0.00  0.00    -0.572 OA
ATOM     62  O3M NTO d 869     -12.821  20.179 -19.104  0.00  0.00    -0.348 OA
ATOM     63  O44 NTO d 869     -12.485  21.295 -22.817  0.00  0.00    -0.646 OA
ATOM     64  C23 NTO d 869     -20.738  17.808 -19.927  0.00  0.00     0.206 C 
ATOM     65  C41 NTO d 869     -11.299  21.083 -20.754  0.00  0.00     0.152 C 
ATOM     66  O22 NTO d 869     -18.638  18.952 -20.460  0.00  0.00    -0.340 OA
ATOM     67  O1C NTO d 869     -25.817  20.455 -22.412  0.00  0.00    -0.391 OA
ATOM     68  C15 NTO d 869     -24.255  15.876 -23.123  0.00  0.00     0.067 C 
ATOM     69  N3G NTO d 869     -13.779  18.140 -17.328  0.00  0.00    -0.210 NA
ATOM     70  C40 NTO d 869     -11.962  21.287 -19.399  0.00  0.00     0.103 C 
ATOM     71  S1G NTO d 869     -23.966  22.505 -23.951  0.00  0.00     0.156 S 
ATOM     72  O1L NTO d 869     -21.953  19.120 -22.026  0.00  0.00    -0.348 OA
ATOM     73  O57 NTO d 869      -5.995  17.444 -17.499  0.00  0.00    -0.572 OA
ATOM     74  O34 NTO d 869     -17.049  22.849 -19.033  0.00  0.00    -0.254 OA
ATOM     75  O1H NTO d 869     -25.433  22.379 -23.663  0.00  0.00    -0.296 OA
ATOM     76  O27 NTO d 869     -20.285  20.525 -23.959  0.00  0.00    -0.390 OA
ATOM     77  C50 NTO d 869      -7.557  19.902 -21.533  0.00  0.00     0.095 C 
ATOM     78  O3E NTO d 869     -15.509  17.008 -21.127  0.00  0.00    -0.572 OA
ATOM     79  O25 NTO d 869     -21.908  17.937 -19.497  0.00  0.00    -0.646 OA
ATOM     80  S3H NTO d 869     -12.984  18.447 -15.934  0.00  0.00     0.156 S 
ATOM     81  S35 NTO d 869     -18.015  23.891 -19.223  0.00  0.00     0.251 S 
ATOM     82  O1I NTO d 869     -23.713  22.256 -25.409  0.00  0.00    -0.296 OA
ATOM     83  C13 NTO d 869     -23.812  17.278 -22.694  0.00  0.00     0.090 C 
ATOM     84  O58 NTO d 869      -6.770  15.520 -18.803  0.00  0.00    -0.572 OA
ATOM     85  O3A NTO d 869     -16.150  17.843 -18.966  0.00  0.00    -0.247 OA
ATOM     86  C1B NTO d 869     -24.655  19.626 -22.336  0.00  0.00     0.083 C 
ATOM     87  O4C NTO d 869      -7.872  23.686 -19.218  0.00  0.00    -0.572 OA
ATOM     88  O4E NTO d 869      -6.827  23.201 -17.062  0.00  0.00    -0.572 OA
ATOM     89  O36 NTO d 869     -19.266  23.324 -19.823  0.00  0.00    -0.572 OA
ATOM     90  O2A NTO d 869     -17.864  21.607 -22.897  0.00  0.00    -0.388 OA
ATOM     91  C30 NTO d 869     -16.058  20.185 -19.606  0.00  0.00     0.096 C 
ATOM     92  H   NTO d 869     -15.325  19.484 -17.038  0.00  0.00     0.076 H 
ATOM     93  H   NTO d 869      -5.250  18.065 -23.938  0.00  0.00     0.131 H 
ATOM     94  H   NTO d 869      -8.847  19.654 -19.317  0.00  0.00     0.133 H 
ATOM     95  H   NTO d 869     -22.153  21.466 -23.287  0.00  0.00     0.140 HD
ATOM     96  H   NTO d 869      -6.957  16.672 -26.445  0.00  0.00     0.231 HD
ATOM     97  H   NTO d 869     -13.124  20.740 -17.132  0.00  0.00     0.131 H 
ATOM     98  H   NTO d 869     -18.036  19.564 -23.041  0.00  0.00     0.094 H 
ATOM     99  H   NTO d 869     -20.175  18.296 -22.585  0.00  0.00     0.092 H 
ATOM    100  H   NTO d 869     -24.108  20.065 -24.358  0.00  0.00     0.076 H 
ATOM    101  H   NTO d 869     -12.702  17.485 -14.157  0.00  0.00     0.231 HD
ATOM    102  H   NTO d 869     -14.390  21.256 -20.357  0.00  0.00     0.090 H 
ATOM    103  H   NTO d 869     -10.870  20.435 -17.767  0.00  0.00     0.091 H 
ATOM    104  H   NTO d 869      -5.533  20.412 -21.193  0.00  0.00     0.090 H 
ATOM    105  H   NTO d 869      -7.578  18.494 -23.882  0.00  0.00     0.076 H 
ATOM    106  H   NTO d 869      -6.956  21.308 -23.041  0.00  0.00     0.089 H 
ATOM    107  H   NTO d 869     -20.366  19.906 -20.009  0.00  0.00     0.104 H 
ATOM    108  H   NTO d 869     -20.331  21.250 -22.043  0.00  0.00     0.091 H 
ATOM    109  H   NTO d 869     -11.270  23.260 -17.876  0.00  0.00     0.210 HD
ATOM    110  H   NTO d 869     -23.653  24.041 -22.646  0.00  0.00     0.231 HD
ATOM    111  H   NTO d 869      -2.555  20.078 -23.955  0.00  0.00     0.066 H 
ATOM    112  H   NTO d 869      -3.325  18.652 -24.607  0.00  0.00     0.066 H 
ATOM    113  H   NTO d 869      -3.044  18.783 -22.888  0.00  0.00     0.066 H 
ATOM    114  H   NTO d 869     -13.043  19.866 -14.470  0.00  0.00     0.231 HD
ATOM    115  H   NTO d 869      -8.877  17.986 -27.203  0.00  0.00     0.231 HD
ATOM    116  H   NTO d 869     -14.524  18.718 -19.844  0.00  0.00     0.092 H 
ATOM    117  H   NTO d 869     -21.694  19.373 -24.069  0.00  0.00     0.131 H 
ATOM    118  H   NTO d 869     -18.315  20.963 -20.397  0.00  0.00     0.133 H 
ATOM    119  H   NTO d 869      -5.865  20.193 -25.414  0.00  0.00     0.140 HD
ATOM    120  H   NTO d 869     -16.426  22.502 -20.950  0.00  0.00     0.080 H 
ATOM    121  H   NTO d 869     -15.359  23.501 -19.966  0.00  0.00     0.080 H 
ATOM    122  H   NTO d 869     -25.614  18.102 -23.478  0.00  0.00     0.091 H 
ATOM    123  H   NTO d 869      -9.604  22.559 -19.488  0.00  0.00     0.097 H 
ATOM    124  H   NTO d 869      -6.614  19.655 -19.053  0.00  0.00     0.080 H 
ATOM    125  H   NTO d 869      -5.155  18.748 -19.408  0.00  0.00     0.080 H 
ATOM    126  H   NTO d 869     -11.048  18.802 -15.397  0.00  0.00     0.231 HD
ATOM    127  H   NTO d 869     -25.301  17.786 -20.646  0.00  0.00     0.210 HD
ATOM    128  H   NTO d 869      -6.680  18.260 -28.260  0.00  0.00     0.231 HD
ATOM    129  H   NTO d 869      -9.411  19.863 -23.307  0.00  0.00     0.210 HD
ATOM    130  H   NTO d 869     -10.842  21.995 -21.077  0.00  0.00     0.104 H 
ATOM    131  H   NTO d 869     -25.566  21.380 -22.264  0.00  0.00     0.210 HD
ATOM    132  H   NTO d 869     -24.877  15.457 -22.359  0.00  0.00     0.080 H 
ATOM    133  H   NTO d 869     -24.794  15.954 -24.044  0.00  0.00     0.080 H 
ATOM    134  H   NTO d 869     -13.094  17.913 -18.051  0.00  0.00     0.140 HD
ATOM    135  H   NTO d 869     -12.521  22.197 -19.437  0.00  0.00     0.092 H 
ATOM    136  H   NTO d 869     -25.592  22.541 -22.720  0.00  0.00     0.231 HD
ATOM    137  H   NTO d 869     -19.929  19.765 -24.447  0.00  0.00     0.210 HD
ATOM    138  H   NTO d 869      -8.179  19.037 -21.433  0.00  0.00     0.091 H 
ATOM    139  H   NTO d 869     -22.764  22.338 -25.590  0.00  0.00     0.231 HD
ATOM    140  H   NTO d 869     -23.309  17.263 -21.750  0.00  0.00     0.090 H 
ATOM    141  H   NTO d 869     -24.214  19.722 -21.366  0.00  0.00     0.089 H 
ATOM    142  H   NTO d 869     -18.209  22.332 -22.353  0.00  0.00     0.210 HD
ATOM    143  H   NTO d 869     -16.874  20.335 -18.931  0.00  0.00     0.091 H 
ENDROOT
TORSDOF 46
ENDMDL
MODEL 46
REMARK VINA RESULT:      -5.7      4.126     14.068
REMARK  0 active torsions:
REMARK  status: ('A' for Active; 'I' for Inactive)
REMARK       I    between atoms: O4A_2  and  C49_47 
REMARK       I    between atoms: O4A_2  and  S4B_15 
REMARK       I    between atoms: C3F_4  and  N3G_69 
REMARK       I    between atoms: S17_5  and  O16_54 
REMARK       I    between atoms: C5L_6  and  O5M_26 
REMARK       I    between atoms: C4F_7  and  O4G_60 
REMARK       I    between atoms: N1F_9  and  C1E_19 
REMARK       I    between atoms: N1F_9  and  S1G_71 
REMARK       I    between atoms: O5J_11  and  S5H_38 
REMARK       I    between atoms: C3L_12  and  O3M_62 
REMARK       I    between atoms: C29_13  and  O2A_90 
REMARK       I    between atoms: S3B_14  and  O3A_85 
REMARK       I    between atoms: C20_18  and  O1L_72 
REMARK       I    between atoms: O3J_20  and  S3H_80 
REMARK       I    between atoms: C31_23  and  C33_44 
REMARK       I    between atoms: C46_25  and  O47_33 
REMARK       I    between atoms: O5M_26  and  C5N_35 
REMARK       I    between atoms: C51_28  and  C53_48 
REMARK       I    between atoms: C5F_29  and  N5G_43 
REMARK       I    between atoms: C59_30  and  O5A_59 
REMARK       I    between atoms: C21_31  and  C23_64 
REMARK       I    between atoms: C26_32  and  O27_76 
REMARK       I    between atoms: O1J_34  and  S1G_71 
REMARK       I    between atoms: O3K_36  and  S3H_80 
REMARK       I    between atoms: O5I_37  and  S5H_38 
REMARK       I    between atoms: S5H_38  and  O5K_53 
REMARK       I    between atoms: S5H_38  and  N5G_43 
REMARK       I    between atoms: C39_39  and  O3A_85 
REMARK       I    between atoms: C1K_40  and  O1L_72 
REMARK       I    between atoms: C2C_41  and  O2D_45 
REMARK       I    between atoms: C33_44  and  O34_74 
REMARK       I    between atoms: O2D_45  and  C30_91 
REMARK       I    between atoms: C12_46  and  O10_51 
REMARK       I    between atoms: C53_48  and  O54_57 
REMARK       I    between atoms: O3I_50  and  S3H_80 
REMARK       I    between atoms: O16_54  and  C15_68 
REMARK       I    between atoms: C43_56  and  C41_65 
REMARK       I    between atoms: O54_57  and  S55_58 
REMARK       I    between atoms: O4G_60  and  C50_77 
REMARK       I    between atoms: O3M_62  and  C40_70 
REMARK       I    between atoms: O1C_67  and  C1B_86 
REMARK       I    between atoms: C15_68  and  C13_83 
REMARK       I    between atoms: N3G_69  and  S3H_80 
REMARK       I    between atoms: S1G_71  and  O1H_75 
REMARK       I    between atoms: S1G_71  and  O1I_82 
REMARK       I    between atoms: O34_74  and  S35_81 
ROOT
ATOM      1  O42 NTO d 869      -9.670  20.184 -18.163  0.00  0.00    -0.340 OA
ATOM      2  O4A NTO d 869      -6.226  19.377 -19.160  0.00  0.00    -0.244 OA
ATOM      3  O32 NTO d 869     -10.945  18.222 -22.656  0.00  0.00    -0.349 OA
ATOM      4  C3F NTO d 869     -11.287  20.557 -23.134  0.00  0.00     0.083 C 
ATOM      5  S17 NTO d 869     -23.009  22.988 -24.009  0.00  0.00     0.251 S 
ATOM      6  C5L NTO d 869      -8.182  21.790 -13.044  0.00  0.00     0.149 C 
ATOM      7  C4F NTO d 869      -8.241  20.137 -18.042  0.00  0.00     0.161 C 
ATOM      8  O14 NTO d 869     -21.496  19.212 -23.959  0.00  0.00    -0.349 OA
ATOM      9  N1F NTO d 869     -20.276  15.792 -24.598  0.00  0.00    -0.210 NA
ATOM     10  O37 NTO d 869     -13.305  14.108 -23.185  0.00  0.00    -0.572 OA
ATOM     11  O5J NTO d 869     -10.980  22.613 -11.947  0.00  0.00    -0.296 OA
ATOM     12  C3L NTO d 869     -10.428  19.536 -22.390  0.00  0.00     0.150 C 
ATOM     13  C29 NTO d 869     -16.685  17.888 -22.030  0.00  0.00     0.110 C 
ATOM     14  S3B NTO d 869     -13.934  22.488 -22.371  0.00  0.00     0.252 S 
ATOM     15  S4B NTO d 869      -5.481  18.176 -18.940  0.00  0.00     0.252 S 
ATOM     16  O24 NTO d 869     -17.343  21.487 -25.052  0.00  0.00    -0.646 OA
ATOM     17  O45 NTO d 869     -12.333  19.851 -19.370  0.00  0.00    -0.646 OA
ATOM     18  C20 NTO d 869     -18.303  18.728 -23.723  0.00  0.00     0.103 C 
ATOM     19  C1E NTO d 869     -21.210  16.923 -24.664  0.00  0.00     0.081 C 
ATOM     20  O3J NTO d 869      -9.056  23.256 -24.367  0.00  0.00    -0.296 OA
ATOM     21  O38 NTO d 869     -12.687  14.731 -25.476  0.00  0.00    -0.572 OA
ATOM     22  O18 NTO d 869     -23.860  22.597 -22.838  0.00  0.00    -0.572 OA
ATOM     23  C31 NTO d 869     -12.258  18.064 -22.096  0.00  0.00     0.091 C 
ATOM     24  O52 NTO d 869      -7.477  22.417 -14.129  0.00  0.00    -0.349 OA
ATOM     25  C46 NTO d 869      -8.319  19.234 -20.380  0.00  0.00     0.094 C 
ATOM     26  O5M NTO d 869      -7.327  20.973 -12.235  0.00  0.00    -0.364 OA
ATOM     27  O3D NTO d 869     -14.833  23.430 -23.115  0.00  0.00    -0.572 OA
ATOM     28  C51 NTO d 869      -7.058  21.485 -15.139  0.00  0.00     0.091 C 
ATOM     29  C5F NTO d 869      -9.396  21.004 -13.543  0.00  0.00     0.081 C 
ATOM     30  C59 NTO d 869      -8.987  20.015 -14.635  0.00  0.00     0.083 C 
ATOM     31  C21 NTO d 869     -17.103  19.169 -24.547  0.00  0.00     0.152 C 
ATOM     32  C26 NTO d 869     -17.878  17.507 -22.908  0.00  0.00     0.092 C 
ATOM     33  O47 NTO d 869      -7.715  18.309 -21.289  0.00  0.00    -0.390 OA
ATOM     34  O1J NTO d 869     -20.171  13.250 -24.426  0.00  0.00    -0.296 OA
ATOM     35  C5N NTO d 869      -6.652  21.805 -11.285  0.00  0.00     0.007 C 
ATOM     36  O3K NTO d 869      -8.849  20.828 -24.358  0.00  0.00    -0.296 OA
ATOM     37  O5I NTO d 869     -12.504  20.809 -12.598  0.00  0.00    -0.296 OA
ATOM     38  S5H NTO d 869     -11.264  21.145 -11.824  0.00  0.00     0.156 S 
ATOM     39  C39 NTO d 869     -12.701  20.485 -22.554  0.00  0.00     0.108 C 
ATOM     40  C1K NTO d 869     -20.585  18.103 -23.918  0.00  0.00     0.150 C 
ATOM     41  C2C NTO d 869     -15.550  18.463 -22.881  0.00  0.00     0.160 C 
ATOM     42  O19 NTO d 869     -23.884  23.358 -25.170  0.00  0.00    -0.572 OA
ATOM     43  N5G NTO d 869     -10.014  20.283 -12.421  0.00  0.00    -0.210 NA
ATOM     44  C33 NTO d 869     -12.760  16.643 -22.369  0.00  0.00     0.067 C 
ATOM     45  O2D NTO d 869     -14.503  18.917 -22.007  0.00  0.00    -0.348 OA
ATOM     46  C12 NTO d 869     -22.259  18.600 -26.197  0.00  0.00     0.089 C 
ATOM     47  C49 NTO d 869      -7.627  19.131 -19.020  0.00  0.00     0.134 C 
ATOM     48  C53 NTO d 869      -6.359  22.291 -16.236  0.00  0.00     0.067 C 
ATOM     49  O4D NTO d 869      -5.597  17.285 -20.141  0.00  0.00    -0.572 OA
ATOM     50  O3I NTO d 869      -8.242  22.113 -22.358  0.00  0.00    -0.296 OA
ATOM     51  O10 NTO d 869     -22.267  19.067 -27.548  0.00  0.00    -0.390 OA
ATOM     52  O1A NTO d 869     -22.151  24.156 -23.629  0.00  0.00    -0.572 OA
ATOM     53  O5K NTO d 869     -11.466  20.810 -10.376  0.00  0.00    -0.296 OA
ATOM     54  O16 NTO d 869     -22.166  21.888 -24.373  0.00  0.00    -0.254 OA
ATOM     55  O56 NTO d 869      -7.377  23.905 -19.056  0.00  0.00    -0.572 OA
ATOM     56  C43 NTO d 869     -11.722  19.005 -18.679  0.00  0.00     0.206 C 
ATOM     57  O54 NTO d 869      -7.227  23.312 -16.732  0.00  0.00    -0.254 OA
ATOM     58  S55 NTO d 869      -6.774  24.241 -17.724  0.00  0.00     0.251 S 
ATOM     59  O5A NTO d 869     -10.156  19.409 -15.196  0.00  0.00    -0.391 OA
ATOM     60  O4G NTO d 869      -7.815  19.794 -16.715  0.00  0.00    -0.348 OA
ATOM     61  O3C NTO d 869     -12.709  23.231 -21.928  0.00  0.00    -0.572 OA
ATOM     62  O3M NTO d 869     -10.552  19.829 -20.992  0.00  0.00    -0.348 OA
ATOM     63  O44 NTO d 869     -12.293  18.165 -17.935  0.00  0.00    -0.646 OA
ATOM     64  C23 NTO d 869     -17.545  20.313 -25.446  0.00  0.00     0.206 C 
ATOM     65  C41 NTO d 869     -10.203  18.984 -18.752  0.00  0.00     0.152 C 
ATOM     66  O22 NTO d 869     -16.013  19.556 -23.691  0.00  0.00    -0.340 OA
ATOM     67  O1C NTO d 869     -22.099  16.267 -26.816  0.00  0.00    -0.391 OA
ATOM     68  C15 NTO d 869     -22.641  20.870 -25.256  0.00  0.00     0.067 C 
ATOM     69  N3G NTO d 869     -10.720  21.907 -22.963  0.00  0.00    -0.210 NA
ATOM     70  C40 NTO d 869      -9.798  18.891 -20.216  0.00  0.00     0.103 C 
ATOM     71  S1G NTO d 869     -21.124  14.408 -24.452  0.00  0.00     0.156 S 
ATOM     72  O1L NTO d 869     -19.378  18.425 -24.623  0.00  0.00    -0.348 OA
ATOM     73  O57 NTO d 869      -5.279  24.168 -17.825  0.00  0.00    -0.572 OA
ATOM     74  O34 NTO d 869     -12.893  16.394 -23.771  0.00  0.00    -0.254 OA
ATOM     75  O1H NTO d 869     -22.061  14.274 -25.615  0.00  0.00    -0.296 OA
ATOM     76  O27 NTO d 869     -18.958  17.078 -22.074  0.00  0.00    -0.390 OA
ATOM     77  C50 NTO d 869      -8.249  20.760 -15.746  0.00  0.00     0.095 C 
ATOM     78  O3E NTO d 869     -14.652  21.960 -21.164  0.00  0.00    -0.572 OA
ATOM     79  O25 NTO d 869     -18.106  20.022 -26.529  0.00  0.00    -0.646 OA
ATOM     80  S3H NTO d 869      -9.189  22.025 -23.520  0.00  0.00     0.156 S 
ATOM     81  S35 NTO d 869     -13.436  15.156 -24.250  0.00  0.00     0.251 S 
ATOM     82  O1I NTO d 869     -21.906  14.441 -23.172  0.00  0.00    -0.296 OA
ATOM     83  C13 NTO d 869     -21.666  19.690 -25.302  0.00  0.00     0.090 C 
ATOM     84  O58 NTO d 869      -7.183  25.625 -17.321  0.00  0.00    -0.572 OA
ATOM     85  O3A NTO d 869     -13.561  21.407 -23.232  0.00  0.00    -0.247 OA
ATOM     86  C1B NTO d 869     -21.422  17.320 -26.125  0.00  0.00     0.083 C 
ATOM     87  O4C NTO d 869      -6.015  17.467 -17.730  0.00  0.00    -0.572 OA
ATOM     88  O4E NTO d 869      -4.045  18.535 -18.709  0.00  0.00    -0.572 OA
ATOM     89  O36 NTO d 869     -14.885  15.334 -24.593  0.00  0.00    -0.572 OA
ATOM     90  O2A NTO d 869     -16.222  16.730 -21.333  0.00  0.00    -0.388 OA
ATOM     91  C30 NTO d 869     -13.246  19.060 -22.688  0.00  0.00     0.096 C 
ATOM     92  H   NTO d 869     -11.312  20.344 -24.182  0.00  0.00     0.076 H 
ATOM     93  H   NTO d 869      -8.539  22.580 -12.416  0.00  0.00     0.131 H 
ATOM     94  H   NTO d 869      -7.899  21.125 -18.272  0.00  0.00     0.133 H 
ATOM     95  H   NTO d 869     -19.662  15.903 -23.791  0.00  0.00     0.140 HD
ATOM     96  H   NTO d 869     -11.728  23.118 -11.591  0.00  0.00     0.231 HD
ATOM     97  H   NTO d 869      -9.404  19.578 -22.698  0.00  0.00     0.131 H 
ATOM     98  H   NTO d 869     -16.997  18.633 -21.328  0.00  0.00     0.094 H 
ATOM     99  H   NTO d 869     -18.639  19.489 -23.050  0.00  0.00     0.092 H 
ATOM    100  H   NTO d 869     -22.148  16.653 -24.225  0.00  0.00     0.076 H 
ATOM    101  H   NTO d 869      -8.146  23.325 -24.697  0.00  0.00     0.231 HD
ATOM    102  H   NTO d 869     -12.188  18.244 -21.043  0.00  0.00     0.090 H 
ATOM    103  H   NTO d 869      -8.219  20.228 -20.762  0.00  0.00     0.091 H 
ATOM    104  H   NTO d 869      -6.409  20.753 -14.706  0.00  0.00     0.090 H 
ATOM    105  H   NTO d 869     -10.102  21.692 -13.957  0.00  0.00     0.076 H 
ATOM    106  H   NTO d 869      -8.353  19.265 -14.209  0.00  0.00     0.089 H 
ATOM    107  H   NTO d 869     -16.747  18.359 -25.150  0.00  0.00     0.104 H 
ATOM    108  H   NTO d 869     -17.609  16.712 -23.572  0.00  0.00     0.091 H 
ATOM    109  H   NTO d 869      -7.807  17.408 -20.942  0.00  0.00     0.210 HD
ATOM    110  H   NTO d 869     -19.665  13.229 -25.254  0.00  0.00     0.231 HD
ATOM    111  H   NTO d 869      -6.012  21.203 -10.675  0.00  0.00     0.066 H 
ATOM    112  H   NTO d 869      -7.373  22.298 -10.667  0.00  0.00     0.066 H 
ATOM    113  H   NTO d 869      -6.068  22.536 -11.804  0.00  0.00     0.066 H 
ATOM    114  H   NTO d 869      -7.939  20.909 -24.683  0.00  0.00     0.231 HD
ATOM    115  H   NTO d 869     -13.252  21.319 -12.248  0.00  0.00     0.231 HD
ATOM    116  H   NTO d 869     -12.665  20.749 -21.517  0.00  0.00     0.092 H 
ATOM    117  H   NTO d 869     -20.380  17.873 -22.893  0.00  0.00     0.131 H 
ATOM    118  H   NTO d 869     -15.185  17.700 -23.536  0.00  0.00     0.133 H 
ATOM    119  H   NTO d 869      -9.321  20.142 -11.686  0.00  0.00     0.140 HD
ATOM    120  H   NTO d 869     -13.714  16.516 -21.902  0.00  0.00     0.080 H 
ATOM    121  H   NTO d 869     -12.045  15.953 -21.972  0.00  0.00     0.080 H 
ATOM    122  H   NTO d 869     -23.252  18.383 -25.863  0.00  0.00     0.091 H 
ATOM    123  H   NTO d 869      -7.767  18.143 -18.635  0.00  0.00     0.097 H 
ATOM    124  H   NTO d 869      -6.090  21.636 -17.038  0.00  0.00     0.080 H 
ATOM    125  H   NTO d 869      -5.483  22.749 -15.827  0.00  0.00     0.080 H 
ATOM    126  H   NTO d 869      -7.333  22.183 -22.688  0.00  0.00     0.231 HD
ATOM    127  H   NTO d 869     -21.358  19.256 -27.830  0.00  0.00     0.210 HD
ATOM    128  H   NTO d 869     -12.210  21.325 -10.026  0.00  0.00     0.231 HD
ATOM    129  H   NTO d 869     -10.723  20.096 -15.580  0.00  0.00     0.210 HD
ATOM    130  H   NTO d 869      -9.816  18.145 -18.213  0.00  0.00     0.104 H 
ATOM    131  H   NTO d 869     -21.568  15.456 -26.769  0.00  0.00     0.210 HD
ATOM    132  H   NTO d 869     -22.743  21.279 -26.240  0.00  0.00     0.080 H 
ATOM    133  H   NTO d 869     -23.586  20.519 -24.897  0.00  0.00     0.080 H 
ATOM    134  H   NTO d 869     -10.724  22.139 -21.969  0.00  0.00     0.140 HD
ATOM    135  H   NTO d 869      -9.984  17.892 -20.549  0.00  0.00     0.092 H 
ATOM    136  H   NTO d 869     -21.552  14.253 -26.440  0.00  0.00     0.231 HD
ATOM    137  H   NTO d 869     -19.206  17.795 -21.470  0.00  0.00     0.210 HD
ATOM    138  H   NTO d 869      -8.883  21.480 -16.220  0.00  0.00     0.091 H 
ATOM    139  H   NTO d 869     -21.296  14.527 -22.423  0.00  0.00     0.231 HD
ATOM    140  H   NTO d 869     -20.716  19.978 -25.702  0.00  0.00     0.090 H 
ATOM    141  H   NTO d 869     -20.471  17.493 -26.584  0.00  0.00     0.089 H 
ATOM    142  H   NTO d 869     -15.941  16.058 -21.974  0.00  0.00     0.210 HD
ATOM    143  H   NTO d 869     -13.390  18.866 -23.731  0.00  0.00     0.091 H 
ENDROOT
TORSDOF 46
ENDMDL
MODEL 47
REMARK VINA RESULT:      -5.7      3.289      6.470
REMARK  0 active torsions:
REMARK  status: ('A' for Active; 'I' for Inactive)
REMARK       I    between atoms: O4A_2  and  C49_47 
REMARK       I    between atoms: O4A_2  and  S4B_15 
REMARK       I    between atoms: C3F_4  and  N3G_69 
REMARK       I    between atoms: S17_5  and  O16_54 
REMARK       I    between atoms: C5L_6  and  O5M_26 
REMARK       I    between atoms: C4F_7  and  O4G_60 
REMARK       I    between atoms: N1F_9  and  C1E_19 
REMARK       I    between atoms: N1F_9  and  S1G_71 
REMARK       I    between atoms: O5J_11  and  S5H_38 
REMARK       I    between atoms: C3L_12  and  O3M_62 
REMARK       I    between atoms: C29_13  and  O2A_90 
REMARK       I    between atoms: S3B_14  and  O3A_85 
REMARK       I    between atoms: C20_18  and  O1L_72 
REMARK       I    between atoms: O3J_20  and  S3H_80 
REMARK       I    between atoms: C31_23  and  C33_44 
REMARK       I    between atoms: C46_25  and  O47_33 
REMARK       I    between atoms: O5M_26  and  C5N_35 
REMARK       I    between atoms: C51_28  and  C53_48 
REMARK       I    between atoms: C5F_29  and  N5G_43 
REMARK       I    between atoms: C59_30  and  O5A_59 
REMARK       I    between atoms: C21_31  and  C23_64 
REMARK       I    between atoms: C26_32  and  O27_76 
REMARK       I    between atoms: O1J_34  and  S1G_71 
REMARK       I    between atoms: O3K_36  and  S3H_80 
REMARK       I    between atoms: O5I_37  and  S5H_38 
REMARK       I    between atoms: S5H_38  and  O5K_53 
REMARK       I    between atoms: S5H_38  and  N5G_43 
REMARK       I    between atoms: C39_39  and  O3A_85 
REMARK       I    between atoms: C1K_40  and  O1L_72 
REMARK       I    between atoms: C2C_41  and  O2D_45 
REMARK       I    between atoms: C33_44  and  O34_74 
REMARK       I    between atoms: O2D_45  and  C30_91 
REMARK       I    between atoms: C12_46  and  O10_51 
REMARK       I    between atoms: C53_48  and  O54_57 
REMARK       I    between atoms: O3I_50  and  S3H_80 
REMARK       I    between atoms: O16_54  and  C15_68 
REMARK       I    between atoms: C43_56  and  C41_65 
REMARK       I    between atoms: O54_57  and  S55_58 
REMARK       I    between atoms: O4G_60  and  C50_77 
REMARK       I    between atoms: O3M_62  and  C40_70 
REMARK       I    between atoms: O1C_67  and  C1B_86 
REMARK       I    between atoms: C15_68  and  C13_83 
REMARK       I    between atoms: N3G_69  and  S3H_80 
REMARK       I    between atoms: S1G_71  and  O1H_75 
REMARK       I    between atoms: S1G_71  and  O1I_82 
REMARK       I    between atoms: O34_74  and  S35_81 
ROOT
ATOM      1  O42 NTO d 869     -19.504  18.650 -20.770  0.00  0.00    -0.340 OA
ATOM      2  O4A NTO d 869     -21.778  18.940 -17.898  0.00  0.00    -0.244 OA
ATOM      3  O32 NTO d 869     -15.848  19.578 -17.389  0.00  0.00    -0.349 OA
ATOM      4  C3F NTO d 869     -15.880  21.699 -18.529  0.00  0.00     0.083 C 
ATOM      5  S17 NTO d 869      -6.062  22.961 -25.318  0.00  0.00     0.251 S 
ATOM      6  C5L NTO d 869     -23.553  17.091 -24.260  0.00  0.00     0.149 C 
ATOM      7  C4F NTO d 869     -20.767  18.688 -20.089  0.00  0.00     0.161 C 
ATOM      8  O14 NTO d 869      -6.489  20.053 -22.505  0.00  0.00    -0.349 OA
ATOM      9  N1F NTO d 869      -6.425  17.806 -19.582  0.00  0.00    -0.210 NA
ATOM     10  O37 NTO d 869     -12.627  16.340 -16.003  0.00  0.00    -0.572 OA
ATOM     11  O5J NTO d 869     -21.879  16.820 -26.875  0.00  0.00    -0.296 OA
ATOM     12  C3L NTO d 869     -16.721  20.531 -18.018  0.00  0.00     0.150 C 
ATOM     13  C29 NTO d 869     -11.179  18.352 -20.575  0.00  0.00     0.110 C 
ATOM     14  S3B NTO d 869     -14.438  22.530 -21.452  0.00  0.00     0.252 S 
ATOM     15  S4B NTO d 869     -22.234  17.923 -17.002  0.00  0.00     0.252 S 
ATOM     16  O24 NTO d 869     -10.042  22.949 -20.890  0.00  0.00    -0.646 OA
ATOM     17  O45 NTO d 869     -16.593  18.817 -21.163  0.00  0.00    -0.646 OA
ATOM     18  C20 NTO d 869      -9.203  19.854 -20.751  0.00  0.00     0.103 C 
ATOM     19  C1E NTO d 869      -5.864  18.658 -20.639  0.00  0.00     0.081 C 
ATOM     20  O3J NTO d 869     -17.832  24.820 -18.044  0.00  0.00    -0.296 OA
ATOM     21  O38 NTO d 869     -12.223  18.249 -14.514  0.00  0.00    -0.572 OA
ATOM     22  O18 NTO d 869      -5.796  21.873 -26.314  0.00  0.00    -0.572 OA
ATOM     23  C31 NTO d 869     -14.957  18.988 -18.348  0.00  0.00     0.091 C 
ATOM     24  O52 NTO d 869     -23.790  18.302 -23.525  0.00  0.00    -0.349 OA
ATOM     25  C46 NTO d 869     -19.390  19.325 -18.092  0.00  0.00     0.094 C 
ATOM     26  O5M NTO d 869     -24.469  16.047 -23.907  0.00  0.00    -0.364 OA
ATOM     27  O3D NTO d 869     -13.544  23.631 -21.939  0.00  0.00    -0.572 OA
ATOM     28  C51 NTO d 869     -23.453  18.190 -22.132  0.00  0.00     0.091 C 
ATOM     29  C5F NTO d 869     -22.101  16.627 -24.126  0.00  0.00     0.081 C 
ATOM     30  C59 NTO d 869     -21.704  16.514 -22.653  0.00  0.00     0.083 C 
ATOM     31  C21 NTO d 869      -9.941  20.815 -19.831  0.00  0.00     0.152 C 
ATOM     32  C26 NTO d 869      -9.661  18.439 -20.401  0.00  0.00     0.092 C 
ATOM     33  O47 NTO d 869     -19.260  19.178 -16.675  0.00  0.00    -0.390 OA
ATOM     34  O1J NTO d 869      -6.000  15.674 -18.250  0.00  0.00    -0.296 OA
ATOM     35  C5N NTO d 869     -25.684  16.227 -24.641  0.00  0.00     0.007 C 
ATOM     36  O3K NTO d 869     -17.443  22.885 -16.614  0.00  0.00    -0.296 OA
ATOM     37  O5I NTO d 869     -19.854  15.597 -26.243  0.00  0.00    -0.296 OA
ATOM     38  S5H NTO d 869     -21.351  15.540 -26.299  0.00  0.00     0.156 S 
ATOM     39  C39 NTO d 869     -14.932  21.156 -19.600  0.00  0.00     0.108 C 
ATOM     40  C1K NTO d 869      -7.023  19.232 -21.455  0.00  0.00     0.150 C 
ATOM     41  C2C NTO d 869     -11.880  19.431 -19.744  0.00  0.00     0.160 C 
ATOM     42  O19 NTO d 869      -4.858  23.849 -25.205  0.00  0.00    -0.572 OA
ATOM     43  N5G NTO d 869     -21.933  15.326 -24.790  0.00  0.00    -0.210 NA
ATOM     44  C33 NTO d 869     -14.069  17.955 -17.649  0.00  0.00     0.067 C 
ATOM     45  O2D NTO d 869     -13.288  19.390 -20.029  0.00  0.00    -0.348 OA
ATOM     46  C12 NTO d 869      -4.643  20.797 -21.086  0.00  0.00     0.089 C 
ATOM     47  C49 NTO d 869     -20.594  18.516 -18.577  0.00  0.00     0.134 C 
ATOM     48  C53 NTO d 869     -23.721  19.553 -21.490  0.00  0.00     0.067 C 
ATOM     49  O4D NTO d 869     -21.362  17.899 -15.781  0.00  0.00    -0.572 OA
ATOM     50  O3I NTO d 869     -19.200  22.807 -18.324  0.00  0.00    -0.296 OA
ATOM     51  O10 NTO d 869      -4.112  21.963 -20.454  0.00  0.00    -0.390 OA
ATOM     52  O1A NTO d 869      -7.244  23.765 -25.766  0.00  0.00    -0.572 OA
ATOM     53  O5K NTO d 869     -21.782  14.401 -27.175  0.00  0.00    -0.296 OA
ATOM     54  O16 NTO d 869      -6.350  22.378 -24.042  0.00  0.00    -0.254 OA
ATOM     55  O56 NTO d 869     -21.908  22.398 -21.038  0.00  0.00    -0.572 OA
ATOM     56  C43 NTO d 869     -17.239  17.794 -20.841  0.00  0.00     0.206 C 
ATOM     57  O54 NTO d 869     -22.989  20.574 -22.168  0.00  0.00    -0.254 OA
ATOM     58  S55 NTO d 869     -23.126  21.949 -21.790  0.00  0.00     0.251 S 
ATOM     59  O5A NTO d 869     -20.303  16.237 -22.554  0.00  0.00    -0.391 OA
ATOM     60  O4G NTO d 869     -21.672  17.678 -20.557  0.00  0.00    -0.348 OA
ATOM     61  O3C NTO d 869     -15.863  22.994 -21.519  0.00  0.00    -0.572 OA
ATOM     62  O3M NTO d 869     -17.341  19.934 -19.165  0.00  0.00    -0.348 OA
ATOM     63  O44 NTO d 869     -16.906  16.625 -21.166  0.00  0.00    -0.646 OA
ATOM     64  C23 NTO d 869      -9.410  22.217 -20.092  0.00  0.00     0.206 C 
ATOM     65  C41 NTO d 869     -18.493  17.976 -19.999  0.00  0.00     0.152 C 
ATOM     66  O22 NTO d 869     -11.361  20.736 -20.047  0.00  0.00    -0.340 OA
ATOM     67  O1C NTO d 869      -3.943  19.301 -19.318  0.00  0.00    -0.391 OA
ATOM     68  C15 NTO d 869      -5.293  22.029 -23.146  0.00  0.00     0.067 C 
ATOM     69  N3G NTO d 869     -16.759  22.742 -19.088  0.00  0.00    -0.210 NA
ATOM     70  C40 NTO d 869     -18.128  18.802 -18.774  0.00  0.00     0.103 C 
ATOM     71  S1G NTO d 869      -5.448  16.522 -19.357  0.00  0.00     0.156 S 
ATOM     72  O1L NTO d 869      -7.794  20.029 -20.545  0.00  0.00    -0.348 OA
ATOM     73  O57 NTO d 869     -24.333  22.103 -20.913  0.00  0.00    -0.572 OA
ATOM     74  O34 NTO d 869     -13.238  18.563 -16.655  0.00  0.00    -0.254 OA
ATOM     75  O1H NTO d 869      -4.072  17.000 -19.000  0.00  0.00    -0.296 OA
ATOM     76  O27 NTO d 869      -9.034  17.494 -21.273  0.00  0.00    -0.390 OA
ATOM     77  C50 NTO d 869     -21.984  17.841 -21.949  0.00  0.00     0.095 C 
ATOM     78  O3E NTO d 869     -14.270  21.324 -22.329  0.00  0.00    -0.572 OA
ATOM     79  O25 NTO d 869      -8.356  22.560 -19.507  0.00  0.00    -0.646 OA
ATOM     80  S3H NTO d 869     -17.828  23.321 -17.997  0.00  0.00     0.156 S 
ATOM     81  S35 NTO d 869     -12.261  17.794 -15.942  0.00  0.00     0.251 S 
ATOM     82  O1I NTO d 869      -5.391  15.717 -20.623  0.00  0.00    -0.296 OA
ATOM     83  C13 NTO d 869      -5.825  21.209 -21.967  0.00  0.00     0.090 C 
ATOM     84  O58 NTO d 869     -23.291  22.782 -23.025  0.00  0.00    -0.572 OA
ATOM     85  O3A NTO d 869     -14.097  22.206 -20.100  0.00  0.00    -0.247 OA
ATOM     86  C1B NTO d 869      -5.090  19.812 -20.002  0.00  0.00     0.083 C 
ATOM     87  O4C NTO d 869     -22.182  16.589 -17.687  0.00  0.00    -0.572 OA
ATOM     88  O4E NTO d 869     -23.649  18.223 -16.612  0.00  0.00    -0.572 OA
ATOM     89  O36 NTO d 869     -10.908  17.990 -16.559  0.00  0.00    -0.572 OA
ATOM     90  O2A NTO d 869     -11.630  17.061 -20.162  0.00  0.00    -0.388 OA
ATOM     91  C30 NTO d 869     -14.071  20.033 -19.011  0.00  0.00     0.096 C 
ATOM     92  H   NTO d 869     -15.316  22.140 -17.733  0.00  0.00     0.076 H 
ATOM     93  H   NTO d 869     -23.729  17.320 -25.290  0.00  0.00     0.131 H 
ATOM     94  H   NTO d 869     -21.181  19.651 -20.302  0.00  0.00     0.133 H 
ATOM     95  H   NTO d 869      -7.353  17.485 -19.859  0.00  0.00     0.140 HD
ATOM     96  H   NTO d 869     -21.528  16.941 -27.772  0.00  0.00     0.231 HD
ATOM     97  H   NTO d 869     -17.458  20.850 -17.310  0.00  0.00     0.131 H 
ATOM     98  H   NTO d 869     -11.418  18.508 -21.606  0.00  0.00     0.094 H 
ATOM     99  H   NTO d 869      -9.412  20.037 -21.784  0.00  0.00     0.092 H 
ATOM    100  H   NTO d 869      -5.209  18.087 -21.263  0.00  0.00     0.076 H 
ATOM    101  H   NTO d 869     -18.466  25.163 -17.395  0.00  0.00     0.231 HD
ATOM    102  H   NTO d 869     -15.553  18.522 -19.105  0.00  0.00     0.090 H 
ATOM    103  H   NTO d 869     -19.529  20.358 -18.333  0.00  0.00     0.091 H 
ATOM    104  H   NTO d 869     -24.037  17.414 -21.683  0.00  0.00     0.090 H 
ATOM    105  H   NTO d 869     -21.466  17.350 -24.593  0.00  0.00     0.076 H 
ATOM    106  H   NTO d 869     -22.268  15.727 -22.198  0.00  0.00     0.089 H 
ATOM    107  H   NTO d 869      -9.771  20.555 -18.807  0.00  0.00     0.104 H 
ATOM    108  H   NTO d 869      -9.392  18.218 -19.390  0.00  0.00     0.091 H 
ATOM    109  H   NTO d 869     -19.134  18.241 -16.458  0.00  0.00     0.210 HD
ATOM    110  H   NTO d 869      -6.036  16.194 -17.432  0.00  0.00     0.231 HD
ATOM    111  H   NTO d 869     -26.375  15.452 -24.384  0.00  0.00     0.066 H 
ATOM    112  H   NTO d 869     -25.477  16.187 -25.690  0.00  0.00     0.066 H 
ATOM    113  H   NTO d 869     -26.109  17.179 -24.398  0.00  0.00     0.066 H 
ATOM    114  H   NTO d 869     -18.084  23.234 -15.975  0.00  0.00     0.231 HD
ATOM    115  H   NTO d 869     -19.501  15.724 -27.138  0.00  0.00     0.231 HD
ATOM    116  H   NTO d 869     -15.512  20.763 -20.409  0.00  0.00     0.092 H 
ATOM    117  H   NTO d 869      -7.625  18.467 -21.900  0.00  0.00     0.131 H 
ATOM    118  H   NTO d 869     -11.704  19.239 -18.707  0.00  0.00     0.133 H 
ATOM    119  H   NTO d 869     -22.835  14.853 -24.840  0.00  0.00     0.140 HD
ATOM    120  H   NTO d 869     -13.447  17.480 -18.379  0.00  0.00     0.080 H 
ATOM    121  H   NTO d 869     -14.702  17.240 -17.165  0.00  0.00     0.080 H 
ATOM    122  H   NTO d 869      -3.905  20.324 -21.699  0.00  0.00     0.091 H 
ATOM    123  H   NTO d 869     -20.424  17.482 -18.362  0.00  0.00     0.097 H 
ATOM    124  H   NTO d 869     -23.420  19.524 -20.464  0.00  0.00     0.080 H 
ATOM    125  H   NTO d 869     -24.767  19.770 -21.560  0.00  0.00     0.080 H 
ATOM    126  H   NTO d 869     -19.836  23.150 -17.677  0.00  0.00     0.231 HD
ATOM    127  H   NTO d 869      -4.797  22.374 -19.904  0.00  0.00     0.210 HD
ATOM    128  H   NTO d 869     -21.434  14.533 -28.071  0.00  0.00     0.231 HD
ATOM    129  H   NTO d 869     -19.802  16.956 -22.969  0.00  0.00     0.210 HD
ATOM    130  H   NTO d 869     -18.879  17.026 -19.696  0.00  0.00     0.104 H 
ATOM    131  H   NTO d 869      -4.226  18.678 -18.632  0.00  0.00     0.210 HD
ATOM    132  H   NTO d 869      -4.840  22.924 -22.774  0.00  0.00     0.080 H 
ATOM    133  H   NTO d 869      -4.575  21.439 -23.677  0.00  0.00     0.080 H 
ATOM    134  H   NTO d 869     -17.277  22.345 -19.873  0.00  0.00     0.140 HD
ATOM    135  H   NTO d 869     -17.579  18.176 -18.103  0.00  0.00     0.092 H 
ATOM    136  H   NTO d 869      -4.113  17.519 -18.182  0.00  0.00     0.231 HD
ATOM    137  H   NTO d 869      -9.275  17.691 -22.192  0.00  0.00     0.210 HD
ATOM    138  H   NTO d 869     -21.390  18.632 -22.357  0.00  0.00     0.091 H 
ATOM    139  H   NTO d 869      -6.283  15.410 -20.850  0.00  0.00     0.231 HD
ATOM    140  H   NTO d 869      -6.513  21.772 -21.372  0.00  0.00     0.090 H 
ATOM    141  H   NTO d 869      -5.724  20.318 -19.304  0.00  0.00     0.089 H 
ATOM    142  H   NTO d 869     -11.410  16.926 -19.227  0.00  0.00     0.210 HD
ATOM    143  H   NTO d 869     -13.413  20.474 -18.291  0.00  0.00     0.091 H 
ENDROOT
TORSDOF 46
ENDMDL
MODEL 48
REMARK VINA RESULT:      -5.6      4.723      5.865
REMARK  0 active torsions:
REMARK  status: ('A' for Active; 'I' for Inactive)
REMARK       I    between atoms: O4A_2  and  C49_47 
REMARK       I    between atoms: O4A_2  and  S4B_15 
REMARK       I    between atoms: C3F_4  and  N3G_69 
REMARK       I    between atoms: S17_5  and  O16_54 
REMARK       I    between atoms: C5L_6  and  O5M_26 
REMARK       I    between atoms: C4F_7  and  O4G_60 
REMARK       I    between atoms: N1F_9  and  C1E_19 
REMARK       I    between atoms: N1F_9  and  S1G_71 
REMARK       I    between atoms: O5J_11  and  S5H_38 
REMARK       I    between atoms: C3L_12  and  O3M_62 
REMARK       I    between atoms: C29_13  and  O2A_90 
REMARK       I    between atoms: S3B_14  and  O3A_85 
REMARK       I    between atoms: C20_18  and  O1L_72 
REMARK       I    between atoms: O3J_20  and  S3H_80 
REMARK       I    between atoms: C31_23  and  C33_44 
REMARK       I    between atoms: C46_25  and  O47_33 
REMARK       I    between atoms: O5M_26  and  C5N_35 
REMARK       I    between atoms: C51_28  and  C53_48 
REMARK       I    between atoms: C5F_29  and  N5G_43 
REMARK       I    between atoms: C59_30  and  O5A_59 
REMARK       I    between atoms: C21_31  and  C23_64 
REMARK       I    between atoms: C26_32  and  O27_76 
REMARK       I    between atoms: O1J_34  and  S1G_71 
REMARK       I    between atoms: O3K_36  and  S3H_80 
REMARK       I    between atoms: O5I_37  and  S5H_38 
REMARK       I    between atoms: S5H_38  and  O5K_53 
REMARK       I    between atoms: S5H_38  and  N5G_43 
REMARK       I    between atoms: C39_39  and  O3A_85 
REMARK       I    between atoms: C1K_40  and  O1L_72 
REMARK       I    between atoms: C2C_41  and  O2D_45 
REMARK       I    between atoms: C33_44  and  O34_74 
REMARK       I    between atoms: O2D_45  and  C30_91 
REMARK       I    between atoms: C12_46  and  O10_51 
REMARK       I    between atoms: C53_48  and  O54_57 
REMARK       I    between atoms: O3I_50  and  S3H_80 
REMARK       I    between atoms: O16_54  and  C15_68 
REMARK       I    between atoms: C43_56  and  C41_65 
REMARK       I    between atoms: O54_57  and  S55_58 
REMARK       I    between atoms: O4G_60  and  C50_77 
REMARK       I    between atoms: O3M_62  and  C40_70 
REMARK       I    between atoms: O1C_67  and  C1B_86 
REMARK       I    between atoms: C15_68  and  C13_83 
REMARK       I    between atoms: N3G_69  and  S3H_80 
REMARK       I    between atoms: S1G_71  and  O1H_75 
REMARK       I    between atoms: S1G_71  and  O1I_82 
REMARK       I    between atoms: O34_74  and  S35_81 
ROOT
ATOM      1  O42 NTO d 869     -21.168  21.023 -20.709  0.00  0.00    -0.340 OA
ATOM      2  O4A NTO d 869     -23.932  22.307 -22.764  0.00  0.00    -0.244 OA
ATOM      3  O32 NTO d 869     -18.385  21.611 -24.900  0.00  0.00    -0.349 OA
ATOM      4  C3F NTO d 869     -18.574  19.211 -24.886  0.00  0.00     0.083 C 
ATOM      5  S17 NTO d 869      -8.068  14.186 -21.979  0.00  0.00     0.251 S 
ATOM      6  C5L NTO d 869     -24.206  20.959 -16.043  0.00  0.00     0.149 C 
ATOM      7  C4F NTO d 869     -22.519  21.401 -21.011  0.00  0.00     0.161 C 
ATOM      8  O14 NTO d 869      -8.485  18.113 -22.958  0.00  0.00    -0.349 OA
ATOM      9  N1F NTO d 869      -8.559  21.484 -24.450  0.00  0.00    -0.210 NA
ATOM     10  O37 NTO d 869     -14.956  24.898 -25.373  0.00  0.00    -0.572 OA
ATOM     11  O5J NTO d 869     -22.072  19.821 -14.077  0.00  0.00    -0.296 OA
ATOM     12  C3L NTO d 869     -19.281  20.532 -24.590  0.00  0.00     0.150 C 
ATOM     13  C29 NTO d 869     -13.084  20.836 -22.719  0.00  0.00     0.110 C 
ATOM     14  S3B NTO d 869     -16.799  16.977 -23.104  0.00  0.00     0.252 S 
ATOM     15  S4B NTO d 869     -24.359  23.658 -22.958  0.00  0.00     0.252 S 
ATOM     16  O24 NTO d 869     -12.710  16.598 -24.822  0.00  0.00    -0.646 OA
ATOM     17  O45 NTO d 869     -18.305  20.498 -21.141  0.00  0.00    -0.646 OA
ATOM     18  C20 NTO d 869     -11.394  19.312 -23.725  0.00  0.00     0.103 C 
ATOM     19  C1E NTO d 869      -7.974  20.193 -24.068  0.00  0.00     0.081 C 
ATOM     20  O3J NTO d 869     -21.085  16.848 -26.265  0.00  0.00    -0.296 OA
ATOM     21  O38 NTO d 869     -15.155  23.926 -27.617  0.00  0.00    -0.572 OA
ATOM     22  O18 NTO d 869      -7.447  14.637 -20.691  0.00  0.00    -0.572 OA
ATOM     23  C31 NTO d 869     -17.250  21.605 -24.020  0.00  0.00     0.091 C 
ATOM     24  O52 NTO d 869     -24.773  20.272 -17.171  0.00  0.00    -0.349 OA
ATOM     25  C46 NTO d 869     -21.649  21.722 -23.340  0.00  0.00     0.094 C 
ATOM     26  O5M NTO d 869     -24.978  22.100 -15.651  0.00  0.00    -0.364 OA
ATOM     27  O3D NTO d 869     -16.034  15.722 -23.402  0.00  0.00    -0.572 OA
ATOM     28  C51 NTO d 869     -24.675  21.023 -18.393  0.00  0.00     0.091 C 
ATOM     29  C5F NTO d 869     -22.743  21.334 -16.291  0.00  0.00     0.081 C 
ATOM     30  C59 NTO d 869     -22.601  22.119 -17.596  0.00  0.00     0.083 C 
ATOM     31  C21 NTO d 869     -12.436  18.966 -24.777  0.00  0.00     0.152 C 
ATOM     32  C26 NTO d 869     -11.659  20.746 -23.269  0.00  0.00     0.092 C 
ATOM     33  O47 NTO d 869     -21.749  22.527 -24.518  0.00  0.00    -0.390 OA
ATOM     34  O1J NTO d 869      -8.020  23.962 -24.718  0.00  0.00    -0.296 OA
ATOM     35  C5N NTO d 869     -26.056  21.666 -14.816  0.00  0.00     0.007 C 
ATOM     36  O3K NTO d 869     -20.632  19.203 -26.698  0.00  0.00    -0.296 OA
ATOM     37  O5I NTO d 869     -20.013  21.063 -14.540  0.00  0.00    -0.296 OA
ATOM     38  S5H NTO d 869     -21.445  21.182 -14.110  0.00  0.00     0.156 S 
ATOM     39  C39 NTO d 869     -17.373  19.105 -23.945  0.00  0.00     0.108 C 
ATOM     40  C1K NTO d 869      -9.050  19.373 -23.355  0.00  0.00     0.150 C 
ATOM     41  C2C NTO d 869     -14.094  20.342 -23.758  0.00  0.00     0.160 C 
ATOM     42  O19 NTO d 869      -7.073  13.388 -22.768  0.00  0.00    -0.572 OA
ATOM     43  N5G NTO d 869     -22.240  22.137 -15.167  0.00  0.00    -0.210 NA
ATOM     44  C33 NTO d 869     -16.336  22.787 -24.358  0.00  0.00     0.067 C 
ATOM     45  O2D NTO d 869     -15.402  20.332 -23.160  0.00  0.00    -0.348 OA
ATOM     46  C12 NTO d 869      -7.076  18.031 -24.953  0.00  0.00     0.089 C 
ATOM     47  C49 NTO d 869     -22.591  22.271 -22.269  0.00  0.00     0.134 C 
ATOM     48  C53 NTO d 869     -25.281  20.161 -19.503  0.00  0.00     0.067 C 
ATOM     49  O4D NTO d 869     -23.727  24.213 -24.200  0.00  0.00    -0.572 OA
ATOM     50  O3I NTO d 869     -22.018  18.559 -24.779  0.00  0.00    -0.296 OA
ATOM     51  O10 NTO d 869      -6.872  17.284 -26.154  0.00  0.00    -0.390 OA
ATOM     52  O1A NTO d 869      -9.271  13.345 -21.681  0.00  0.00    -0.572 OA
ATOM     53  O5K NTO d 869     -21.512  21.781 -12.737  0.00  0.00    -0.296 OA
ATOM     54  O16 NTO d 869      -8.475  15.332 -22.737  0.00  0.00    -0.254 OA
ATOM     55  O56 NTO d 869     -24.090  17.778 -21.623  0.00  0.00    -0.572 OA
ATOM     56  C43 NTO d 869     -18.814  21.588 -20.796  0.00  0.00     0.206 C 
ATOM     57  O54 NTO d 869     -24.625  18.893 -19.563  0.00  0.00    -0.254 OA
ATOM     58  S55 NTO d 869     -25.060  17.886 -20.484  0.00  0.00     0.251 S 
ATOM     59  O5A NTO d 869     -21.214  22.318 -17.888  0.00  0.00    -0.391 OA
ATOM     60  O4G NTO d 869     -23.141  22.115 -19.932  0.00  0.00    -0.348 OA
ATOM     61  O3C NTO d 869     -18.247  16.633 -22.919  0.00  0.00    -0.572 OA
ATOM     62  O3M NTO d 869     -19.576  20.539 -23.187  0.00  0.00    -0.348 OA
ATOM     63  O44 NTO d 869     -18.234  22.430 -20.061  0.00  0.00    -0.646 OA
ATOM     64  C23 NTO d 869     -12.114  17.582 -25.321  0.00  0.00     0.206 C 
ATOM     65  C41 NTO d 869     -20.210  21.918 -21.302  0.00  0.00     0.152 C 
ATOM     66  O22 NTO d 869     -13.761  19.023 -24.219  0.00  0.00    -0.340 OA
ATOM     67  O1C NTO d 869      -6.456  20.146 -25.950  0.00  0.00    -0.391 OA
ATOM     68  C15 NTO d 869      -7.550  16.001 -23.596  0.00  0.00     0.067 C 
ATOM     69  N3G NTO d 869     -19.505  18.087 -24.674  0.00  0.00    -0.210 NA
ATOM     70  C40 NTO d 869     -20.215  21.767 -22.817  0.00  0.00     0.103 C 
ATOM     71  S1G NTO d 869      -7.433  22.650 -24.288  0.00  0.00     0.156 S 
ATOM     72  O1L NTO d 869     -10.095  19.168 -24.316  0.00  0.00    -0.348 OA
ATOM     73  O57 NTO d 869     -26.412  18.254 -21.018  0.00  0.00    -0.572 OA
ATOM     74  O34 NTO d 869     -15.812  22.682 -25.685  0.00  0.00    -0.254 OA
ATOM     75  O1H NTO d 869      -6.245  22.316 -25.140  0.00  0.00    -0.296 OA
ATOM     76  O27 NTO d 869     -10.734  21.108 -22.239  0.00  0.00    -0.390 OA
ATOM     77  C50 NTO d 869     -23.224  21.320 -18.740  0.00  0.00     0.095 C 
ATOM     78  O3E NTO d 869     -16.275  17.595 -21.841  0.00  0.00    -0.572 OA
ATOM     79  O25 NTO d 869     -11.255  17.497 -26.230  0.00  0.00    -0.646 OA
ATOM     80  S3H NTO d 869     -20.834  18.179 -25.621  0.00  0.00     0.156 S 
ATOM     81  S35 NTO d 869     -14.860  23.635 -26.177  0.00  0.00     0.251 S 
ATOM     82  O1I NTO d 869      -7.016  22.737 -22.849  0.00  0.00    -0.296 OA
ATOM     83  C13 NTO d 869      -8.134  17.322 -24.105  0.00  0.00     0.090 C 
ATOM     84  O58 NTO d 869     -25.143  16.572 -19.767  0.00  0.00    -0.572 OA
ATOM     85  O3A NTO d 869     -16.654  17.892 -24.196  0.00  0.00    -0.247 OA
ATOM     86  C1B NTO d 869      -7.533  19.444 -25.325  0.00  0.00     0.083 C 
ATOM     87  O4C NTO d 869     -23.960  24.488 -21.773  0.00  0.00    -0.572 OA
ATOM     88  O4E NTO d 869     -25.851  23.677 -23.093  0.00  0.00    -0.572 OA
ATOM     89  O36 NTO d 869     -13.473  23.078 -26.060  0.00  0.00    -0.572 OA
ATOM     90  O2A NTO d 869     -13.373  22.192 -22.376  0.00  0.00    -0.388 OA
ATOM     91  C30 NTO d 869     -16.451  20.313 -24.141  0.00  0.00     0.096 C 
ATOM     92  H   NTO d 869     -18.244  19.174 -25.904  0.00  0.00     0.076 H 
ATOM     93  H   NTO d 869     -24.232  20.272 -15.224  0.00  0.00     0.131 H 
ATOM     94  H   NTO d 869     -23.047  20.485 -21.171  0.00  0.00     0.133 H 
ATOM     95  H   NTO d 869      -9.355  21.690 -23.846  0.00  0.00     0.140 HD
ATOM     96  H   NTO d 869     -21.594  19.259 -13.447  0.00  0.00     0.231 HD
ATOM     97  H   NTO d 869     -20.175  20.644 -25.168  0.00  0.00     0.131 H 
ATOM     98  H   NTO d 869     -13.158  20.217 -21.850  0.00  0.00     0.094 H 
ATOM     99  H   NTO d 869     -11.443  18.666 -22.873  0.00  0.00     0.092 H 
ATOM    100  H   NTO d 869      -7.130  20.346 -23.427  0.00  0.00     0.076 H 
ATOM    101  H   NTO d 869     -21.874  16.904 -26.827  0.00  0.00     0.231 HD
ATOM    102  H   NTO d 869     -17.613  21.683 -23.017  0.00  0.00     0.090 H 
ATOM    103  H   NTO d 869     -21.917  20.713 -23.573  0.00  0.00     0.091 H 
ATOM    104  H   NTO d 869     -25.189  21.955 -18.285  0.00  0.00     0.090 H 
ATOM    105  H   NTO d 869     -22.169  20.435 -16.373  0.00  0.00     0.076 H 
ATOM    106  H   NTO d 869     -23.094  23.063 -17.492  0.00  0.00     0.089 H 
ATOM    107  H   NTO d 869     -12.409  19.678 -25.576  0.00  0.00     0.104 H 
ATOM    108  H   NTO d 869     -11.540  21.411 -24.098  0.00  0.00     0.091 H 
ATOM    109  H   NTO d 869     -21.506  23.442 -24.306  0.00  0.00     0.210 HD
ATOM    110  H   NTO d 869      -8.290  23.906 -25.648  0.00  0.00     0.231 HD
ATOM    111  H   NTO d 869     -26.639  22.512 -14.517  0.00  0.00     0.066 H 
ATOM    112  H   NTO d 869     -25.662  21.181 -13.948  0.00  0.00     0.066 H 
ATOM    113  H   NTO d 869     -26.673  20.981 -15.358  0.00  0.00     0.066 H 
ATOM    114  H   NTO d 869     -21.426  19.249 -27.253  0.00  0.00     0.231 HD
ATOM    115  H   NTO d 869     -19.535  20.496 -13.915  0.00  0.00     0.231 HD
ATOM    116  H   NTO d 869     -17.724  19.094 -22.934  0.00  0.00     0.092 H 
ATOM    117  H   NTO d 869      -9.424  19.864 -22.481  0.00  0.00     0.131 H 
ATOM    118  H   NTO d 869     -14.076  21.000 -24.601  0.00  0.00     0.133 H 
ATOM    119  H   NTO d 869     -23.025  22.584 -14.694  0.00  0.00     0.140 HD
ATOM    120  H   NTO d 869     -15.523  22.807 -23.664  0.00  0.00     0.080 H 
ATOM    121  H   NTO d 869     -16.914  23.685 -24.296  0.00  0.00     0.080 H 
ATOM    122  H   NTO d 869      -6.171  18.098 -24.387  0.00  0.00     0.091 H 
ATOM    123  H   NTO d 869     -22.288  23.267 -22.020  0.00  0.00     0.097 H 
ATOM    124  H   NTO d 869     -25.167  20.662 -20.441  0.00  0.00     0.080 H 
ATOM    125  H   NTO d 869     -26.319  20.005 -19.294  0.00  0.00     0.080 H 
ATOM    126  H   NTO d 869     -22.807  18.614 -25.340  0.00  0.00     0.231 HD
ATOM    127  H   NTO d 869      -7.704  17.236 -26.650  0.00  0.00     0.210 HD
ATOM    128  H   NTO d 869     -21.038  21.210 -12.112  0.00  0.00     0.231 HD
ATOM    129  H   NTO d 869     -20.777  21.457 -17.980  0.00  0.00     0.210 HD
ATOM    130  H   NTO d 869     -20.476  22.920 -21.036  0.00  0.00     0.104 H 
ATOM    131  H   NTO d 869      -6.746  21.040 -26.186  0.00  0.00     0.210 HD
ATOM    132  H   NTO d 869      -7.330  15.370 -24.433  0.00  0.00     0.080 H 
ATOM    133  H   NTO d 869      -6.658  16.212 -23.042  0.00  0.00     0.080 H 
ATOM    134  H   NTO d 869     -19.800  18.088 -23.697  0.00  0.00     0.140 HD
ATOM    135  H   NTO d 869     -19.695  22.602 -23.236  0.00  0.00     0.092 H 
ATOM    136  H   NTO d 869      -6.519  22.262 -26.069  0.00  0.00     0.231 HD
ATOM    137  H   NTO d 869     -10.838  20.508 -21.484  0.00  0.00     0.210 HD
ATOM    138  H   NTO d 869     -22.711  20.393 -18.894  0.00  0.00     0.091 H 
ATOM    139  H   NTO d 869      -7.787  22.953 -22.301  0.00  0.00     0.231 HD
ATOM    140  H   NTO d 869      -9.003  17.163 -24.709  0.00  0.00     0.090 H 
ATOM    141  H   NTO d 869      -8.358  19.381 -26.004  0.00  0.00     0.089 H 
ATOM    142  H   NTO d 869     -13.304  22.748 -23.167  0.00  0.00     0.210 HD
ATOM    143  H   NTO d 869     -16.017  20.234 -25.116  0.00  0.00     0.091 H 
ENDROOT
TORSDOF 46
ENDMDL
MODEL 49
REMARK VINA RESULT:      -5.6      3.657     14.205
REMARK  0 active torsions:
REMARK  status: ('A' for Active; 'I' for Inactive)
REMARK       I    between atoms: O4A_2  and  C49_47 
REMARK       I    between atoms: O4A_2  and  S4B_15 
REMARK       I    between atoms: C3F_4  and  N3G_69 
REMARK       I    between atoms: S17_5  and  O16_54 
REMARK       I    between atoms: C5L_6  and  O5M_26 
REMARK       I    between atoms: C4F_7  and  O4G_60 
REMARK       I    between atoms: N1F_9  and  C1E_19 
REMARK       I    between atoms: N1F_9  and  S1G_71 
REMARK       I    between atoms: O5J_11  and  S5H_38 
REMARK       I    between atoms: C3L_12  and  O3M_62 
REMARK       I    between atoms: C29_13  and  O2A_90 
REMARK       I    between atoms: S3B_14  and  O3A_85 
REMARK       I    between atoms: C20_18  and  O1L_72 
REMARK       I    between atoms: O3J_20  and  S3H_80 
REMARK       I    between atoms: C31_23  and  C33_44 
REMARK       I    between atoms: C46_25  and  O47_33 
REMARK       I    between atoms: O5M_26  and  C5N_35 
REMARK       I    between atoms: C51_28  and  C53_48 
REMARK       I    between atoms: C5F_29  and  N5G_43 
REMARK       I    between atoms: C59_30  and  O5A_59 
REMARK       I    between atoms: C21_31  and  C23_64 
REMARK       I    between atoms: C26_32  and  O27_76 
REMARK       I    between atoms: O1J_34  and  S1G_71 
REMARK       I    between atoms: O3K_36  and  S3H_80 
REMARK       I    between atoms: O5I_37  and  S5H_38 
REMARK       I    between atoms: S5H_38  and  O5K_53 
REMARK       I    between atoms: S5H_38  and  N5G_43 
REMARK       I    between atoms: C39_39  and  O3A_85 
REMARK       I    between atoms: C1K_40  and  O1L_72 
REMARK       I    between atoms: C2C_41  and  O2D_45 
REMARK       I    between atoms: C33_44  and  O34_74 
REMARK       I    between atoms: O2D_45  and  C30_91 
REMARK       I    between atoms: C12_46  and  O10_51 
REMARK       I    between atoms: C53_48  and  O54_57 
REMARK       I    between atoms: O3I_50  and  S3H_80 
REMARK       I    between atoms: O16_54  and  C15_68 
REMARK       I    between atoms: C43_56  and  C41_65 
REMARK       I    between atoms: O54_57  and  S55_58 
REMARK       I    between atoms: O4G_60  and  C50_77 
REMARK       I    between atoms: O3M_62  and  C40_70 
REMARK       I    between atoms: O1C_67  and  C1B_86 
REMARK       I    between atoms: C15_68  and  C13_83 
REMARK       I    between atoms: N3G_69  and  S3H_80 
REMARK       I    between atoms: S1G_71  and  O1H_75 
REMARK       I    between atoms: S1G_71  and  O1I_82 
REMARK       I    between atoms: O34_74  and  S35_81 
ROOT
ATOM      1  O42 NTO d 869     -11.829  20.117 -21.280  0.00  0.00    -0.340 OA
ATOM      2  O4A NTO d 869     -10.512  22.880 -19.244  0.00  0.00    -0.244 OA
ATOM      3  O32 NTO d 869     -16.373  22.017 -20.097  0.00  0.00    -0.349 OA
ATOM      4  C3F NTO d 869     -16.389  20.057 -18.698  0.00  0.00     0.083 C 
ATOM      5  S17 NTO d 869     -24.036  11.876 -23.018  0.00  0.00     0.251 S 
ATOM      6  C5L NTO d 869      -6.776  18.479 -22.950  0.00  0.00     0.149 C 
ATOM      7  C4F NTO d 869     -10.827  20.911 -20.627  0.00  0.00     0.161 C 
ATOM      8  O14 NTO d 869     -23.914  15.735 -24.302  0.00  0.00    -0.349 OA
ATOM      9  N1F NTO d 869     -24.396  19.302 -25.098  0.00  0.00    -0.210 NA
ATOM     10  O37 NTO d 869     -19.258  24.157 -23.240  0.00  0.00    -0.572 OA
ATOM     11  O5J NTO d 869      -7.599  16.036 -24.700  0.00  0.00    -0.296 OA
ATOM     12  C3L NTO d 869     -15.535  21.182 -19.282  0.00  0.00     0.150 C 
ATOM     13  C29 NTO d 869     -19.715  18.999 -23.728  0.00  0.00     0.110 C 
ATOM     14  S3B NTO d 869     -17.093  16.879 -19.548  0.00  0.00     0.252 S 
ATOM     15  S4B NTO d 869     -10.155  24.206 -19.646  0.00  0.00     0.252 S 
ATOM     16  O24 NTO d 869     -21.480  16.425 -20.153  0.00  0.00    -0.646 OA
ATOM     17  O45 NTO d 869     -14.506  19.200 -22.085  0.00  0.00    -0.646 OA
ATOM     18  C20 NTO d 869     -21.790  17.820 -23.027  0.00  0.00     0.103 C 
ATOM     19  C1E NTO d 869     -24.781  17.895 -24.935  0.00  0.00     0.081 C 
ATOM     20  O3J NTO d 869     -15.199  19.386 -15.245  0.00  0.00    -0.296 OA
ATOM     21  O38 NTO d 869     -20.370  24.513 -21.082  0.00  0.00    -0.572 OA
ATOM     22  O18 NTO d 869     -23.832  11.460 -24.444  0.00  0.00    -0.572 OA
ATOM     23  C31 NTO d 869     -16.855  21.298 -21.243  0.00  0.00     0.091 C 
ATOM     24  O52 NTO d 869      -6.958  18.607 -21.530  0.00  0.00    -0.349 OA
ATOM     25  C46 NTO d 869     -12.785  22.125 -19.637  0.00  0.00     0.094 C 
ATOM     26  O5M NTO d 869      -5.830  19.423 -23.469  0.00  0.00    -0.364 OA
ATOM     27  O3D NTO d 869     -17.991  15.797 -19.028  0.00  0.00    -0.572 OA
ATOM     28  C51 NTO d 869      -7.639  19.816 -21.157  0.00  0.00     0.091 C 
ATOM     29  C5F NTO d 869      -8.110  18.561 -23.696  0.00  0.00     0.081 C 
ATOM     30  C59 NTO d 869      -8.870  19.829 -23.306  0.00  0.00     0.083 C 
ATOM     31  C21 NTO d 869     -21.506  18.309 -21.615  0.00  0.00     0.152 C 
ATOM     32  C26 NTO d 869     -21.214  18.852 -23.995  0.00  0.00     0.092 C 
ATOM     33  O47 NTO d 869     -13.272  23.407 -19.228  0.00  0.00    -0.390 OA
ATOM     34  O1J NTO d 869     -24.805  21.368 -26.536  0.00  0.00    -0.296 OA
ATOM     35  C5N NTO d 869      -4.509  18.907 -23.277  0.00  0.00     0.007 C 
ATOM     36  O3K NTO d 869     -15.633  21.452 -16.462  0.00  0.00    -0.296 OA
ATOM     37  O5I NTO d 869      -9.484  16.801 -26.064  0.00  0.00    -0.296 OA
ATOM     38  S5H NTO d 869      -8.041  17.034 -25.728  0.00  0.00     0.156 S 
ATOM     39  C39 NTO d 869     -16.901  19.210 -19.864  0.00  0.00     0.108 C 
ATOM     40  C1K NTO d 869     -23.557  17.118 -24.449  0.00  0.00     0.150 C 
ATOM     41  C2C NTO d 869     -19.461  19.351 -22.259  0.00  0.00     0.160 C 
ATOM     42  O19 NTO d 869     -25.356  11.362 -22.525  0.00  0.00    -0.572 OA
ATOM     43  N5G NTO d 869      -7.868  18.548 -25.146  0.00  0.00    -0.210 NA
ATOM     44  C33 NTO d 869     -17.714  22.229 -22.104  0.00  0.00     0.067 C 
ATOM     45  O2D NTO d 869     -18.042  19.362 -22.027  0.00  0.00    -0.348 OA
ATOM     46  C12 NTO d 869     -26.175  16.316 -23.582  0.00  0.00     0.089 C 
ATOM     47  C49 NTO d 869     -11.376  22.279 -20.212  0.00  0.00     0.134 C 
ATOM     48  C53 NTO d 869      -7.791  19.798 -19.634  0.00  0.00     0.067 C 
ATOM     49  O4D NTO d 869     -11.311  25.132 -19.410  0.00  0.00    -0.572 OA
ATOM     50  O3I NTO d 869     -13.488  20.297 -16.744  0.00  0.00    -0.296 OA
ATOM     51  O10 NTO d 869     -27.048  16.243 -22.452  0.00  0.00    -0.390 OA
ATOM     52  O1A NTO d 869     -22.929  11.319 -22.176  0.00  0.00    -0.572 OA
ATOM     53  O5K NTO d 869      -7.201  16.865 -26.960  0.00  0.00    -0.296 OA
ATOM     54  O16 NTO d 869     -24.015  13.306 -22.933  0.00  0.00    -0.254 OA
ATOM     55  O56 NTO d 869     -10.111  18.579 -17.461  0.00  0.00    -0.572 OA
ATOM     56  C43 NTO d 869     -13.810  20.060 -22.672  0.00  0.00     0.206 C 
ATOM     57  O54 NTO d 869      -8.471  18.613 -19.216  0.00  0.00    -0.254 OA
ATOM     58  S55 NTO d 869      -8.676  18.338 -17.825  0.00  0.00     0.251 S 
ATOM     59  O5A NTO d 869     -10.177  19.803 -23.889  0.00  0.00    -0.391 OA
ATOM     60  O4G NTO d 869      -9.671  21.119 -21.451  0.00  0.00    -0.348 OA
ATOM     61  O3C NTO d 869     -15.803  16.852 -18.783  0.00  0.00    -0.572 OA
ATOM     62  O3M NTO d 869     -14.534  20.561 -20.098  0.00  0.00    -0.348 OA
ATOM     63  O44 NTO d 869     -13.839  20.254 -23.915  0.00  0.00    -0.646 OA
ATOM     64  C23 NTO d 869     -22.173  17.349 -20.641  0.00  0.00     0.206 C 
ATOM     65  C41 NTO d 869     -12.884  20.925 -21.831  0.00  0.00     0.152 C 
ATOM     66  O22 NTO d 869     -20.089  18.400 -21.384  0.00  0.00    -0.340 OA
ATOM     67  O1C NTO d 869     -27.071  18.423 -24.363  0.00  0.00    -0.391 OA
ATOM     68  C15 NTO d 869     -25.202  14.066 -23.162  0.00  0.00     0.067 C 
ATOM     69  N3G NTO d 869     -15.578  19.242 -17.775  0.00  0.00    -0.210 NA
ATOM     70  C40 NTO d 869     -13.705  21.554 -20.714  0.00  0.00     0.103 C 
ATOM     71  S1G NTO d 869     -25.167  19.919 -26.395  0.00  0.00     0.156 S 
ATOM     72  O1L NTO d 869     -23.210  17.679 -23.175  0.00  0.00    -0.348 OA
ATOM     73  O57 NTO d 869      -7.799  19.238 -17.007  0.00  0.00    -0.572 OA
ATOM     74  O34 NTO d 869     -18.875  22.675 -21.397  0.00  0.00    -0.254 OA
ATOM     75  O1H NTO d 869     -26.648  19.777 -26.207  0.00  0.00    -0.296 OA
ATOM     76  O27 NTO d 869     -21.410  18.417 -25.344  0.00  0.00    -0.390 OA
ATOM     77  C50 NTO d 869      -9.022  19.884 -21.787  0.00  0.00     0.095 C 
ATOM     78  O3E NTO d 869     -16.808  16.638 -21.001  0.00  0.00    -0.572 OA
ATOM     79  O25 NTO d 869     -23.389  17.522 -20.392  0.00  0.00    -0.646 OA
ATOM     80  S3H NTO d 869     -14.963  20.112 -16.536  0.00  0.00     0.156 S 
ATOM     81  S35 NTO d 869     -19.866  23.482 -22.047  0.00  0.00     0.251 S 
ATOM     82  O1I NTO d 869     -24.738  19.174 -27.625  0.00  0.00    -0.296 OA
ATOM     83  C13 NTO d 869     -24.884  15.561 -23.257  0.00  0.00     0.090 C 
ATOM     84  O58 NTO d 869      -8.322  16.907 -17.553  0.00  0.00    -0.572 OA
ATOM     85  O3A NTO d 869     -17.731  18.149 -19.376  0.00  0.00    -0.247 OA
ATOM     86  C1B NTO d 869     -25.883  17.789 -23.881  0.00  0.00     0.083 C 
ATOM     87  O4C NTO d 869      -9.791  24.210 -21.101  0.00  0.00    -0.572 OA
ATOM     88  O4E NTO d 869      -8.972  24.650 -18.840  0.00  0.00    -0.572 OA
ATOM     89  O36 NTO d 869     -21.011  22.623 -22.493  0.00  0.00    -0.572 OA
ATOM     90  O2A NTO d 869     -19.184  20.028 -24.565  0.00  0.00    -0.388 OA
ATOM     91  C30 NTO d 869     -17.689  20.089 -20.840  0.00  0.00     0.096 C 
ATOM     92  H   NTO d 869     -17.215  20.453 -18.144  0.00  0.00     0.076 H 
ATOM     93  H   NTO d 869      -6.366  17.506 -23.119  0.00  0.00     0.131 H 
ATOM     94  H   NTO d 869     -10.539  20.355 -19.759  0.00  0.00     0.133 H 
ATOM     95  H   NTO d 869     -23.388  19.366 -25.238  0.00  0.00     0.140 HD
ATOM     96  H   NTO d 869      -7.705  15.138 -25.053  0.00  0.00     0.231 HD
ATOM     97  H   NTO d 869     -15.086  21.779 -18.516  0.00  0.00     0.131 H 
ATOM     98  H   NTO d 869     -19.232  18.069 -23.945  0.00  0.00     0.094 H 
ATOM     99  H   NTO d 869     -21.340  16.871 -23.228  0.00  0.00     0.092 H 
ATOM    100  H   NTO d 869     -25.134  17.499 -25.865  0.00  0.00     0.076 H 
ATOM    101  H   NTO d 869     -14.834  19.903 -14.511  0.00  0.00     0.231 HD
ATOM    102  H   NTO d 869     -16.005  20.953 -21.794  0.00  0.00     0.090 H 
ATOM    103  H   NTO d 869     -12.762  21.466 -18.795  0.00  0.00     0.091 H 
ATOM    104  H   NTO d 869      -7.078  20.663 -21.493  0.00  0.00     0.090 H 
ATOM    105  H   NTO d 869      -8.704  17.713 -23.426  0.00  0.00     0.076 H 
ATOM    106  H   NTO d 869      -8.329  20.683 -23.656  0.00  0.00     0.089 H 
ATOM    107  H   NTO d 869     -21.904  19.293 -21.474  0.00  0.00     0.104 H 
ATOM    108  H   NTO d 869     -21.709  19.790 -23.853  0.00  0.00     0.091 H 
ATOM    109  H   NTO d 869     -13.293  24.004 -19.992  0.00  0.00     0.210 HD
ATOM    110  H   NTO d 869     -25.082  21.849 -25.741  0.00  0.00     0.231 HD
ATOM    111  H   NTO d 869      -3.795  19.605 -23.661  0.00  0.00     0.066 H 
ATOM    112  H   NTO d 869      -4.411  17.975 -23.793  0.00  0.00     0.066 H 
ATOM    113  H   NTO d 869      -4.333  18.756 -22.232  0.00  0.00     0.066 H 
ATOM    114  H   NTO d 869     -15.260  21.959 -15.724  0.00  0.00     0.231 HD
ATOM    115  H   NTO d 869      -9.593  15.901 -26.411  0.00  0.00     0.231 HD
ATOM    116  H   NTO d 869     -16.064  18.782 -20.376  0.00  0.00     0.092 H 
ATOM    117  H   NTO d 869     -22.736  17.183 -25.132  0.00  0.00     0.131 H 
ATOM    118  H   NTO d 869     -19.879  20.313 -22.055  0.00  0.00     0.133 H 
ATOM    119  H   NTO d 869      -6.920  18.875 -25.333  0.00  0.00     0.140 HD
ATOM    120  H   NTO d 869     -18.023  21.703 -22.983  0.00  0.00     0.080 H 
ATOM    121  H   NTO d 869     -17.127  23.087 -22.359  0.00  0.00     0.080 H 
ATOM    122  H   NTO d 869     -26.626  15.871 -24.443  0.00  0.00     0.091 H 
ATOM    123  H   NTO d 869     -11.421  22.911 -21.074  0.00  0.00     0.097 H 
ATOM    124  H   NTO d 869      -8.353  20.654 -19.326  0.00  0.00     0.080 H 
ATOM    125  H   NTO d 869      -6.818  19.816 -19.187  0.00  0.00     0.080 H 
ATOM    126  H   NTO d 869     -13.121  20.813 -16.009  0.00  0.00     0.231 HD
ATOM    127  H   NTO d 869     -26.619  16.651 -21.685  0.00  0.00     0.210 HD
ATOM    128  H   NTO d 869      -7.307  15.964 -27.302  0.00  0.00     0.231 HD
ATOM    129  H   NTO d 869     -10.659  19.026 -23.567  0.00  0.00     0.210 HD
ATOM    130  H   NTO d 869     -12.442  21.691 -22.433  0.00  0.00     0.104 H 
ATOM    131  H   NTO d 869     -26.885  19.356 -24.552  0.00  0.00     0.210 HD
ATOM    132  H   NTO d 869     -25.884  13.904 -22.354  0.00  0.00     0.080 H 
ATOM    133  H   NTO d 869     -25.638  13.749 -24.088  0.00  0.00     0.080 H 
ATOM    134  H   NTO d 869     -14.806  18.828 -18.298  0.00  0.00     0.140 HD
ATOM    135  H   NTO d 869     -14.303  22.332 -21.139  0.00  0.00     0.092 H 
ATOM    136  H   NTO d 869     -26.921  20.260 -25.412  0.00  0.00     0.231 HD
ATOM    137  H   NTO d 869     -20.963  17.566 -25.478  0.00  0.00     0.210 HD
ATOM    138  H   NTO d 869      -9.605  19.064 -21.423  0.00  0.00     0.091 H 
ATOM    139  H   NTO d 869     -23.780  19.268 -27.742  0.00  0.00     0.231 HD
ATOM    140  H   NTO d 869     -24.490  15.940 -22.337  0.00  0.00     0.090 H 
ATOM    141  H   NTO d 869     -25.559  18.275 -22.984  0.00  0.00     0.089 H 
ATOM    142  H   NTO d 869     -19.625  20.868 -24.365  0.00  0.00     0.210 HD
ATOM    143  H   NTO d 869     -18.583  20.403 -20.343  0.00  0.00     0.091 H 
ENDROOT
TORSDOF 46
ENDMDL
MODEL 50
REMARK VINA RESULT:      -5.6      3.310     14.094
REMARK  0 active torsions:
REMARK  status: ('A' for Active; 'I' for Inactive)
REMARK       I    between atoms: O4A_2  and  C49_47 
REMARK       I    between atoms: O4A_2  and  S4B_15 
REMARK       I    between atoms: C3F_4  and  N3G_69 
REMARK       I    between atoms: S17_5  and  O16_54 
REMARK       I    between atoms: C5L_6  and  O5M_26 
REMARK       I    between atoms: C4F_7  and  O4G_60 
REMARK       I    between atoms: N1F_9  and  C1E_19 
REMARK       I    between atoms: N1F_9  and  S1G_71 
REMARK       I    between atoms: O5J_11  and  S5H_38 
REMARK       I    between atoms: C3L_12  and  O3M_62 
REMARK       I    between atoms: C29_13  and  O2A_90 
REMARK       I    between atoms: S3B_14  and  O3A_85 
REMARK       I    between atoms: C20_18  and  O1L_72 
REMARK       I    between atoms: O3J_20  and  S3H_80 
REMARK       I    between atoms: C31_23  and  C33_44 
REMARK       I    between atoms: C46_25  and  O47_33 
REMARK       I    between atoms: O5M_26  and  C5N_35 
REMARK       I    between atoms: C51_28  and  C53_48 
REMARK       I    between atoms: C5F_29  and  N5G_43 
REMARK       I    between atoms: C59_30  and  O5A_59 
REMARK       I    between atoms: C21_31  and  C23_64 
REMARK       I    between atoms: C26_32  and  O27_76 
REMARK       I    between atoms: O1J_34  and  S1G_71 
REMARK       I    between atoms: O3K_36  and  S3H_80 
REMARK       I    between atoms: O5I_37  and  S5H_38 
REMARK       I    between atoms: S5H_38  and  O5K_53 
REMARK       I    between atoms: S5H_38  and  N5G_43 
REMARK       I    between atoms: C39_39  and  O3A_85 
REMARK       I    between atoms: C1K_40  and  O1L_72 
REMARK       I    between atoms: C2C_41  and  O2D_45 
REMARK       I    between atoms: C33_44  and  O34_74 
REMARK       I    between atoms: O2D_45  and  C30_91 
REMARK       I    between atoms: C12_46  and  O10_51 
REMARK       I    between atoms: C53_48  and  O54_57 
REMARK       I    between atoms: O3I_50  and  S3H_80 
REMARK       I    between atoms: O16_54  and  C15_68 
REMARK       I    between atoms: C43_56  and  C41_65 
REMARK       I    between atoms: O54_57  and  S55_58 
REMARK       I    between atoms: O4G_60  and  C50_77 
REMARK       I    between atoms: O3M_62  and  C40_70 
REMARK       I    between atoms: O1C_67  and  C1B_86 
REMARK       I    between atoms: C15_68  and  C13_83 
REMARK       I    between atoms: N3G_69  and  S3H_80 
REMARK       I    between atoms: S1G_71  and  O1H_75 
REMARK       I    between atoms: S1G_71  and  O1I_82 
REMARK       I    between atoms: O34_74  and  S35_81 
ROOT
ATOM      1  O42 NTO d 869     -12.214  20.360 -19.220  0.00  0.00    -0.340 OA
ATOM      2  O4A NTO d 869     -10.163  21.394 -22.090  0.00  0.00    -0.244 OA
ATOM      3  O32 NTO d 869     -15.916  19.838 -22.637  0.00  0.00    -0.349 OA
ATOM      4  C3F NTO d 869     -16.667  21.849 -21.547  0.00  0.00     0.083 C 
ATOM      5  S17 NTO d 869     -26.360  19.618 -14.829  0.00  0.00     0.251 S 
ATOM      6  C5L NTO d 869      -7.918  20.438 -15.679  0.00  0.00     0.149 C 
ATOM      7  C4F NTO d 869     -11.042  20.837 -19.897  0.00  0.00     0.161 C 
ATOM      8  O14 NTO d 869     -24.879  17.004 -17.572  0.00  0.00    -0.349 OA
ATOM      9  N1F NTO d 869     -24.092  14.828 -20.442  0.00  0.00    -0.210 NA
ATOM     10  O37 NTO d 869     -17.735  15.628 -23.961  0.00  0.00    -0.572 OA
ATOM     11  O5J NTO d 869      -9.413  19.634 -13.066  0.00  0.00    -0.296 OA
ATOM     12  C3L NTO d 869     -15.454  21.053 -22.027  0.00  0.00     0.150 C 
ATOM     13  C29 NTO d 869     -19.867  17.073 -19.443  0.00  0.00     0.110 C 
ATOM     14  S3B NTO d 869     -18.347  22.163 -18.650  0.00  0.00     0.252 S 
ATOM     15  S4B NTO d 869      -9.360  20.591 -22.960  0.00  0.00     0.252 S 
ATOM     16  O24 NTO d 869     -22.590  20.955 -19.239  0.00  0.00    -0.646 OA
ATOM     17  O45 NTO d 869     -14.993  19.473 -18.844  0.00  0.00    -0.646 OA
ATOM     18  C20 NTO d 869     -22.254  17.763 -19.310  0.00  0.00     0.103 C 
ATOM     19  C1E NTO d 869     -24.934  15.440 -19.408  0.00  0.00     0.081 C 
ATOM     20  O3J NTO d 869     -15.967  25.454 -22.096  0.00  0.00    -0.296 OA
ATOM     21  O38 NTO d 869     -18.783  17.232 -25.495  0.00  0.00    -0.572 OA
ATOM     22  O18 NTO d 869     -26.228  18.527 -13.809  0.00  0.00    -0.572 OA
ATOM     23  C31 NTO d 869     -16.546  18.985 -21.668  0.00  0.00     0.091 C 
ATOM     24  O52 NTO d 869      -8.125  21.638 -16.441  0.00  0.00    -0.349 OA
ATOM     25  C46 NTO d 869     -12.531  20.895 -21.914  0.00  0.00     0.094 C 
ATOM     26  O5M NTO d 869      -6.683  19.788 -16.004  0.00  0.00    -0.364 OA
ATOM     27  O3D NTO d 869     -19.584  22.876 -18.191  0.00  0.00    -0.572 OA
ATOM     28  C51 NTO d 869      -8.381  21.384 -17.832  0.00  0.00     0.091 C 
ATOM     29  C5F NTO d 869      -9.103  19.478 -15.808  0.00  0.00     0.081 C 
ATOM     30  C59 NTO d 869      -9.414  19.201 -17.280  0.00  0.00     0.083 C 
ATOM     31  C21 NTO d 869     -21.902  18.907 -20.249  0.00  0.00     0.152 C 
ATOM     32  C26 NTO d 869     -21.312  16.603 -19.625  0.00  0.00     0.092 C 
ATOM     33  O47 NTO d 869     -12.582  20.682 -23.328  0.00  0.00    -0.390 OA
ATOM     34  O1J NTO d 869     -23.702  12.660 -21.727  0.00  0.00    -0.296 OA
ATOM     35  C5N NTO d 869      -5.624  20.410 -15.270  0.00  0.00     0.007 C 
ATOM     36  O3K NTO d 869     -15.613  23.481 -23.482  0.00  0.00    -0.296 OA
ATOM     37  O5I NTO d 869     -10.852  17.749 -13.677  0.00  0.00    -0.296 OA
ATOM     38  S5H NTO d 869      -9.436  18.238 -13.614  0.00  0.00     0.156 S 
ATOM     39  C39 NTO d 869     -17.367  21.022 -20.468  0.00  0.00     0.108 C 
ATOM     40  C1K NTO d 869     -24.071  16.410 -18.601  0.00  0.00     0.150 C 
ATOM     41  C2C NTO d 869     -19.593  18.315 -20.296  0.00  0.00     0.160 C 
ATOM     42  O19 NTO d 869     -27.802  20.009 -14.967  0.00  0.00    -0.572 OA
ATOM     43  N5G NTO d 869      -8.798  18.218 -15.115  0.00  0.00    -0.210 NA
ATOM     44  C33 NTO d 869     -16.994  17.687 -22.347  0.00  0.00     0.067 C 
ATOM     45  O2D NTO d 869     -18.268  18.791 -20.004  0.00  0.00    -0.348 OA
ATOM     46  C12 NTO d 869     -26.850  17.003 -19.015  0.00  0.00     0.089 C 
ATOM     47  C49 NTO d 869     -11.123  20.585 -21.406  0.00  0.00     0.134 C 
ATOM     48  C53 NTO d 869      -8.615  22.738 -18.504  0.00  0.00     0.067 C 
ATOM     49  O4D NTO d 869     -10.150  20.231 -24.183  0.00  0.00    -0.572 OA
ATOM     50  O3I NTO d 869     -13.967  24.077 -21.764  0.00  0.00    -0.296 OA
ATOM     51  O10 NTO d 869     -27.759  17.886 -19.676  0.00  0.00    -0.390 OA
ATOM     52  O1A NTO d 869     -25.553  20.803 -14.395  0.00  0.00    -0.572 OA
ATOM     53  O5K NTO d 869      -8.634  17.349 -12.710  0.00  0.00    -0.296 OA
ATOM     54  O16 NTO d 869     -25.865  19.152 -16.090  0.00  0.00    -0.254 OA
ATOM     55  O56 NTO d 869     -11.328  24.728 -19.029  0.00  0.00    -0.572 OA
ATOM     56  C43 NTO d 869     -14.018  18.746 -19.140  0.00  0.00     0.206 C 
ATOM     57  O54 NTO d 869      -9.675  23.440 -17.853  0.00  0.00    -0.254 OA
ATOM     58  S55 NTO d 869     -10.039  24.764 -18.263  0.00  0.00     0.251 S 
ATOM     59  O5A NTO d 869     -10.619  18.435 -17.378  0.00  0.00    -0.391 OA
ATOM     60  O4G NTO d 869      -9.839  20.232 -19.402  0.00  0.00    -0.348 OA
ATOM     61  O3C NTO d 869     -17.186  23.110 -18.587  0.00  0.00    -0.572 OA
ATOM     62  O3M NTO d 869     -14.675  20.743 -20.864  0.00  0.00    -0.348 OA
ATOM     63  O44 NTO d 869     -13.910  17.542 -18.788  0.00  0.00    -0.646 OA
ATOM     64  C23 NTO d 869     -22.906  20.028 -20.022  0.00  0.00     0.206 C 
ATOM     65  C41 NTO d 869     -12.904  19.351 -19.980  0.00  0.00     0.152 C 
ATOM     66  O22 NTO d 869     -20.552  19.351 -20.025  0.00  0.00    -0.340 OA
ATOM     67  O1C NTO d 869     -26.943  15.320 -20.751  0.00  0.00    -0.391 OA
ATOM     68  C15 NTO d 869     -26.714  18.428 -16.982  0.00  0.00     0.067 C 
ATOM     69  N3G NTO d 869     -16.229  23.150 -21.008  0.00  0.00    -0.210 NA
ATOM     70  C40 NTO d 869     -13.528  19.965 -21.226  0.00  0.00     0.103 C 
ATOM     71  S1G NTO d 869     -24.537  13.273 -20.641  0.00  0.00     0.156 S 
ATOM     72  O1L NTO d 869     -23.628  17.413 -19.526  0.00  0.00    -0.348 OA
ATOM     73  O57 NTO d 869      -8.958  25.325 -19.138  0.00  0.00    -0.572 OA
ATOM     74  O34 NTO d 869     -17.976  17.934 -23.358  0.00  0.00    -0.254 OA
ATOM     75  O1H NTO d 869     -25.988  13.215 -21.015  0.00  0.00    -0.296 OA
ATOM     76  O27 NTO d 869     -21.566  15.512 -18.734  0.00  0.00    -0.390 OA
ATOM     77  C50 NTO d 869      -9.624  20.525 -18.013  0.00  0.00     0.095 C 
ATOM     78  O3E NTO d 869     -18.079  20.995 -17.746  0.00  0.00    -0.572 OA
ATOM     79  O25 NTO d 869     -24.006  19.955 -20.619  0.00  0.00    -0.646 OA
ATOM     80  S3H NTO d 869     -15.428  24.054 -22.108  0.00  0.00     0.156 S 
ATOM     81  S35 NTO d 869     -18.601  16.850 -24.057  0.00  0.00     0.251 S 
ATOM     82  O1I NTO d 869     -24.315  12.528 -19.358  0.00  0.00    -0.296 OA
ATOM     83  C13 NTO d 869     -25.908  17.831 -18.139  0.00  0.00     0.090 C 
ATOM     84  O58 NTO d 869     -10.201  25.625 -17.047  0.00  0.00    -0.572 OA
ATOM     85  O3A NTO d 869     -18.531  21.710 -19.995  0.00  0.00    -0.247 OA
ATOM     86  C1B NTO d 869     -26.065  16.224 -20.075  0.00  0.00     0.083 C 
ATOM     87  O4C NTO d 869      -8.935  19.343 -22.245  0.00  0.00    -0.572 OA
ATOM     88  O4E NTO d 869      -8.144  21.375 -23.351  0.00  0.00    -0.572 OA
ATOM     89  O36 NTO d 869     -19.940  16.556 -23.451  0.00  0.00    -0.572 OA
ATOM     90  O2A NTO d 869     -18.976  16.024 -19.824  0.00  0.00    -0.388 OA
ATOM     91  C30 NTO d 869     -17.758  19.653 -21.033  0.00  0.00     0.096 C 
ATOM     92  H   NTO d 869     -17.342  22.041 -22.355  0.00  0.00     0.076 H 
ATOM     93  H   NTO d 869      -7.849  20.736 -14.654  0.00  0.00     0.131 H 
ATOM     94  H   NTO d 869     -11.006  21.889 -19.705  0.00  0.00     0.133 H 
ATOM     95  H   NTO d 869     -23.114  14.869 -20.154  0.00  0.00     0.140 HD
ATOM     96  H   NTO d 869      -9.794  19.638 -12.173  0.00  0.00     0.231 HD
ATOM     97  H   NTO d 869     -14.874  21.603 -22.739  0.00  0.00     0.131 H 
ATOM     98  H   NTO d 869     -19.713  17.325 -18.415  0.00  0.00     0.094 H 
ATOM     99  H   NTO d 869     -22.138  18.030 -18.280  0.00  0.00     0.092 H 
ATOM    100  H   NTO d 869     -25.348  14.684 -18.773  0.00  0.00     0.076 H 
ATOM    101  H   NTO d 869     -15.490  25.989 -22.749  0.00  0.00     0.231 HD
ATOM    102  H   NTO d 869     -15.832  18.781 -20.899  0.00  0.00     0.090 H 
ATOM    103  H   NTO d 869     -12.777  21.913 -21.696  0.00  0.00     0.091 H 
ATOM    104  H   NTO d 869      -7.551  20.862 -18.261  0.00  0.00     0.090 H 
ATOM    105  H   NTO d 869      -9.961  19.933 -15.361  0.00  0.00     0.076 H 
ATOM    106  H   NTO d 869      -8.599  18.661 -17.714  0.00  0.00     0.089 H 
ATOM    107  H   NTO d 869     -21.954  18.583 -21.267  0.00  0.00     0.104 H 
ATOM    108  H   NTO d 869     -21.471  16.279 -20.632  0.00  0.00     0.091 H 
ATOM    109  H   NTO d 869     -12.359  19.758 -23.524  0.00  0.00     0.210 HD
ATOM    110  H   NTO d 869     -23.846  13.141 -22.556  0.00  0.00     0.231 HD
ATOM    111  H   NTO d 869      -4.696  19.931 -15.506  0.00  0.00     0.066 H 
ATOM    112  H   NTO d 869      -5.815  20.319 -14.221  0.00  0.00     0.066 H 
ATOM    113  H   NTO d 869      -5.568  21.446 -15.533  0.00  0.00     0.066 H 
ATOM    114  H   NTO d 869     -15.134  24.025 -24.126  0.00  0.00     0.231 HD
ATOM    115  H   NTO d 869     -11.238  17.759 -12.787  0.00  0.00     0.231 HD
ATOM    116  H   NTO d 869     -16.695  20.881 -19.647  0.00  0.00     0.092 H 
ATOM    117  H   NTO d 869     -23.239  15.924 -18.136  0.00  0.00     0.131 H 
ATOM    118  H   NTO d 869     -19.675  18.052 -21.329  0.00  0.00     0.133 H 
ATOM    119  H   NTO d 869      -7.787  18.104 -15.050  0.00  0.00     0.140 HD
ATOM    120  H   NTO d 869     -17.411  17.035 -21.609  0.00  0.00     0.080 H 
ATOM    121  H   NTO d 869     -16.139  17.240 -22.812  0.00  0.00     0.080 H 
ATOM    122  H   NTO d 869     -27.376  16.308 -18.395  0.00  0.00     0.091 H 
ATOM    123  H   NTO d 869     -10.905  19.555 -21.597  0.00  0.00     0.097 H 
ATOM    124  H   NTO d 869      -8.874  22.583 -19.530  0.00  0.00     0.080 H 
ATOM    125  H   NTO d 869      -7.720  23.320 -18.435  0.00  0.00     0.080 H 
ATOM    126  H   NTO d 869     -13.490  24.613 -22.416  0.00  0.00     0.231 HD
ATOM    127  H   NTO d 869     -27.262  18.505 -20.233  0.00  0.00     0.210 HD
ATOM    128  H   NTO d 869      -9.017  17.364 -11.819  0.00  0.00     0.231 HD
ATOM    129  H   NTO d 869     -11.351  18.932 -16.982  0.00  0.00     0.210 HD
ATOM    130  H   NTO d 869     -12.197  18.598 -20.260  0.00  0.00     0.104 H 
ATOM    131  H   NTO d 869     -26.445  14.827 -21.422  0.00  0.00     0.210 HD
ATOM    132  H   NTO d 869     -27.455  19.091 -17.377  0.00  0.00     0.080 H 
ATOM    133  H   NTO d 869     -27.178  17.629 -16.440  0.00  0.00     0.080 H 
ATOM    134  H   NTO d 869     -15.613  22.983 -20.212  0.00  0.00     0.140 HD
ATOM    135  H   NTO d 869     -13.806  19.169 -21.884  0.00  0.00     0.092 H 
ATOM    136  H   NTO d 869     -26.127  13.697 -21.845  0.00  0.00     0.231 HD
ATOM    137  H   NTO d 869     -21.424  15.801 -17.819  0.00  0.00     0.210 HD
ATOM    138  H   NTO d 869     -10.468  21.056 -17.627  0.00  0.00     0.091 H 
ATOM    139  H   NTO d 869     -23.375  12.567 -19.120  0.00  0.00     0.231 HD
ATOM    140  H   NTO d 869     -25.462  18.592 -18.744  0.00  0.00     0.090 H 
ATOM    141  H   NTO d 869     -25.648  16.910 -20.781  0.00  0.00     0.089 H 
ATOM    142  H   NTO d 869     -19.121  15.799 -20.757  0.00  0.00     0.210 HD
ATOM    143  H   NTO d 869     -18.521  19.812 -21.766  0.00  0.00     0.091 H 
ENDROOT
TORSDOF 46
ENDMDL
MODEL 51
REMARK VINA RESULT:      -5.5      4.041      8.221
REMARK  0 active torsions:
REMARK  status: ('A' for Active; 'I' for Inactive)
REMARK       I    between atoms: O4A_2  and  C49_47 
REMARK       I    between atoms: O4A_2  and  S4B_15 
REMARK       I    between atoms: C3F_4  and  N3G_69 
REMARK       I    between atoms: S17_5  and  O16_54 
REMARK       I    between atoms: C5L_6  and  O5M_26 
REMARK       I    between atoms: C4F_7  and  O4G_60 
REMARK       I    between atoms: N1F_9  and  C1E_19 
REMARK       I    between atoms: N1F_9  and  S1G_71 
REMARK       I    between atoms: O5J_11  and  S5H_38 
REMARK       I    between atoms: C3L_12  and  O3M_62 
REMARK       I    between atoms: C29_13  and  O2A_90 
REMARK       I    between atoms: S3B_14  and  O3A_85 
REMARK       I    between atoms: C20_18  and  O1L_72 
REMARK       I    between atoms: O3J_20  and  S3H_80 
REMARK       I    between atoms: C31_23  and  C33_44 
REMARK       I    between atoms: C46_25  and  O47_33 
REMARK       I    between atoms: O5M_26  and  C5N_35 
REMARK       I    between atoms: C51_28  and  C53_48 
REMARK       I    between atoms: C5F_29  and  N5G_43 
REMARK       I    between atoms: C59_30  and  O5A_59 
REMARK       I    between atoms: C21_31  and  C23_64 
REMARK       I    between atoms: C26_32  and  O27_76 
REMARK       I    between atoms: O1J_34  and  S1G_71 
REMARK       I    between atoms: O3K_36  and  S3H_80 
REMARK       I    between atoms: O5I_37  and  S5H_38 
REMARK       I    between atoms: S5H_38  and  O5K_53 
REMARK       I    between atoms: S5H_38  and  N5G_43 
REMARK       I    between atoms: C39_39  and  O3A_85 
REMARK       I    between atoms: C1K_40  and  O1L_72 
REMARK       I    between atoms: C2C_41  and  O2D_45 
REMARK       I    between atoms: C33_44  and  O34_74 
REMARK       I    between atoms: O2D_45  and  C30_91 
REMARK       I    between atoms: C12_46  and  O10_51 
REMARK       I    between atoms: C53_48  and  O54_57 
REMARK       I    between atoms: O3I_50  and  S3H_80 
REMARK       I    between atoms: O16_54  and  C15_68 
REMARK       I    between atoms: C43_56  and  C41_65 
REMARK       I    between atoms: O54_57  and  S55_58 
REMARK       I    between atoms: O4G_60  and  C50_77 
REMARK       I    between atoms: O3M_62  and  C40_70 
REMARK       I    between atoms: O1C_67  and  C1B_86 
REMARK       I    between atoms: C15_68  and  C13_83 
REMARK       I    between atoms: N3G_69  and  S3H_80 
REMARK       I    between atoms: S1G_71  and  O1H_75 
REMARK       I    between atoms: S1G_71  and  O1I_82 
REMARK       I    between atoms: O34_74  and  S35_81 
ROOT
ATOM      1  O42 NTO d 869     -20.657  20.330 -19.813  0.00  0.00    -0.340 OA
ATOM      2  O4A NTO d 869     -22.513  17.983 -17.680  0.00  0.00    -0.244 OA
ATOM      3  O32 NTO d 869     -16.781  17.132 -19.176  0.00  0.00    -0.349 OA
ATOM      4  C3F NTO d 869     -16.041  18.935 -17.761  0.00  0.00     0.083 C 
ATOM      5  S17 NTO d 869      -6.807  24.713 -22.805  0.00  0.00     0.251 S 
ATOM      6  C5L NTO d 869     -25.144  23.449 -20.881  0.00  0.00     0.149 C 
ATOM      7  C4F NTO d 869     -21.776  19.835 -19.062  0.00  0.00     0.161 C 
ATOM      8  O14 NTO d 869      -8.198  21.122 -24.119  0.00  0.00    -0.349 OA
ATOM      9  N1F NTO d 869      -8.877  17.610 -25.012  0.00  0.00    -0.210 NA
ATOM     10  O37 NTO d 869     -15.000  14.390 -22.653  0.00  0.00    -0.572 OA
ATOM     11  O5J NTO d 869     -23.821  25.624 -22.679  0.00  0.00    -0.296 OA
ATOM     12  C3L NTO d 869     -17.245  18.137 -18.261  0.00  0.00     0.150 C 
ATOM     13  C29 NTO d 869     -13.092  19.205 -23.119  0.00  0.00     0.110 C 
ATOM     14  S3B NTO d 869     -14.521  21.804 -18.642  0.00  0.00     0.252 S 
ATOM     15  S4B NTO d 869     -23.286  16.839 -18.057  0.00  0.00     0.252 S 
ATOM     16  O24 NTO d 869     -10.284  20.983 -19.731  0.00  0.00    -0.646 OA
ATOM     17  O45 NTO d 869     -17.927  20.461 -20.903  0.00  0.00    -0.646 OA
ATOM     18  C20 NTO d 869     -10.699  19.692 -22.641  0.00  0.00     0.103 C 
ATOM     19  C1E NTO d 869      -8.079  18.835 -24.875  0.00  0.00     0.081 C 
ATOM     20  O3J NTO d 869     -16.614  19.765 -14.188  0.00  0.00    -0.296 OA
ATOM     21  O38 NTO d 869     -13.825  13.625 -20.639  0.00  0.00    -0.572 OA
ATOM     22  O18 NTO d 869      -7.026  25.236 -24.192  0.00  0.00    -0.572 OA
ATOM     23  C31 NTO d 869     -16.230  17.731 -20.360  0.00  0.00     0.091 C 
ATOM     24  O52 NTO d 869     -24.862  23.209 -19.493  0.00  0.00    -0.349 OA
ATOM     25  C46 NTO d 869     -20.173  18.057 -18.316  0.00  0.00     0.094 C 
ATOM     26  O5M NTO d 869     -26.375  22.849 -21.303  0.00  0.00    -0.364 OA
ATOM     27  O3D NTO d 869     -13.294  22.551 -18.212  0.00  0.00    -0.572 OA
ATOM     28  C51 NTO d 869     -24.534  21.838 -19.215  0.00  0.00     0.091 C 
ATOM     29  C5F NTO d 869     -23.979  23.016 -21.774  0.00  0.00     0.081 C 
ATOM     30  C59 NTO d 869     -23.591  21.565 -21.490  0.00  0.00     0.083 C 
ATOM     31  C21 NTO d 869     -10.967  19.243 -21.212  0.00  0.00     0.152 C 
ATOM     32  C26 NTO d 869     -11.652  18.920 -23.552  0.00  0.00     0.092 C 
ATOM     33  O47 NTO d 869     -20.047  16.672 -17.982  0.00  0.00    -0.390 OA
ATOM     34  O1J NTO d 869      -9.250  15.584 -26.515  0.00  0.00    -0.296 OA
ATOM     35  C5N NTO d 869     -27.457  23.719 -20.956  0.00  0.00     0.007 C 
ATOM     36  O3K NTO d 869     -16.940  17.721 -15.473  0.00  0.00    -0.296 OA
ATOM     37  O5I NTO d 869     -22.399  24.405 -24.258  0.00  0.00    -0.296 OA
ATOM     38  S5H NTO d 869     -23.803  24.589 -23.764  0.00  0.00     0.156 S 
ATOM     39  C39 NTO d 869     -15.425  19.649 -18.966  0.00  0.00     0.108 C 
ATOM     40  C1K NTO d 869      -8.961  19.912 -24.243  0.00  0.00     0.150 C 
ATOM     41  C2C NTO d 869     -13.284  18.876 -21.637  0.00  0.00     0.160 C 
ATOM     42  O19 NTO d 869      -5.351  24.795 -22.457  0.00  0.00    -0.572 OA
ATOM     43  N5G NTO d 869     -24.355  23.166 -23.187  0.00  0.00    -0.210 NA
ATOM     44  C33 NTO d 869     -15.778  16.631 -21.324  0.00  0.00     0.067 C 
ATOM     45  O2D NTO d 869     -14.610  19.270 -21.246  0.00  0.00    -0.348 OA
ATOM     46  C12 NTO d 869      -6.148  19.872 -23.666  0.00  0.00     0.089 C 
ATOM     47  C49 NTO d 869     -21.616  18.349 -18.730  0.00  0.00     0.134 C 
ATOM     48  C53 NTO d 869     -24.227  21.740 -17.719  0.00  0.00     0.067 C 
ATOM     49  O4D NTO d 869     -22.438  15.606 -17.965  0.00  0.00    -0.572 OA
ATOM     50  O3I NTO d 869     -18.664  19.464 -15.496  0.00  0.00    -0.296 OA
ATOM     51  O10 NTO d 869      -5.180  19.635 -22.641  0.00  0.00    -0.390 OA
ATOM     52  O1A NTO d 869      -7.607  25.529 -21.836  0.00  0.00    -0.572 OA
ATOM     53  O5K NTO d 869     -24.679  25.052 -24.891  0.00  0.00    -0.296 OA
ATOM     54  O16 NTO d 869      -7.242  23.350 -22.737  0.00  0.00    -0.254 OA
ATOM     55  O56 NTO d 869     -21.438  22.126 -15.804  0.00  0.00    -0.572 OA
ATOM     56  C43 NTO d 869     -18.903  19.870 -21.419  0.00  0.00     0.206 C 
ATOM     57  O54 NTO d 869     -23.187  22.654 -17.364  0.00  0.00    -0.254 OA
ATOM     58  S55 NTO d 869     -22.766  22.793 -16.002  0.00  0.00     0.251 S 
ATOM     59  O5A NTO d 869     -22.403  21.234 -22.216  0.00  0.00    -0.391 OA
ATOM     60  O4G NTO d 869     -23.020  20.012 -19.754  0.00  0.00    -0.348 OA
ATOM     61  O3C NTO d 869     -15.658  22.172 -17.736  0.00  0.00    -0.572 OA
ATOM     62  O3M NTO d 869     -18.097  19.062 -18.951  0.00  0.00    -0.348 OA
ATOM     63  O44 NTO d 869     -19.062  19.733 -22.660  0.00  0.00    -0.646 OA
ATOM     64  C23 NTO d 869      -9.949  19.920 -20.307  0.00  0.00     0.206 C 
ATOM     65  C41 NTO d 869     -19.951  19.275 -20.491  0.00  0.00     0.152 C 
ATOM     66  O22 NTO d 869     -12.316  19.560 -20.824  0.00  0.00    -0.340 OA
ATOM     67  O1C NTO d 869      -6.002  17.634 -24.571  0.00  0.00    -0.391 OA
ATOM     68  C15 NTO d 869      -6.363  22.287 -23.109  0.00  0.00     0.067 C 
ATOM     69  N3G NTO d 869     -16.474  19.908 -16.742  0.00  0.00    -0.210 NA
ATOM     70  C40 NTO d 869     -19.242  18.383 -19.482  0.00  0.00     0.103 C 
ATOM     71  S1G NTO d 869      -8.463  16.856 -26.396  0.00  0.00     0.156 S 
ATOM     72  O1L NTO d 869      -9.325  19.419 -22.946  0.00  0.00    -0.348 OA
ATOM     73  O57 NTO d 869     -23.780  22.151 -15.103  0.00  0.00    -0.572 OA
ATOM     74  O34 NTO d 869     -14.734  15.832 -20.759  0.00  0.00    -0.254 OA
ATOM     75  O1H NTO d 869      -6.995  16.550 -26.375  0.00  0.00    -0.296 OA
ATOM     76  O27 NTO d 869     -11.477  19.341 -24.908  0.00  0.00    -0.390 OA
ATOM     77  C50 NTO d 869     -23.306  21.397 -19.998  0.00  0.00     0.095 C 
ATOM     78  O3E NTO d 869     -14.871  22.185 -20.051  0.00  0.00    -0.572 OA
ATOM     79  O25 NTO d 869      -8.819  19.388 -20.199  0.00  0.00    -0.646 OA
ATOM     80  S3H NTO d 869     -17.187  19.200 -15.454  0.00  0.00     0.156 S 
ATOM     81  S35 NTO d 869     -14.099  14.801 -21.527  0.00  0.00     0.251 S 
ATOM     82  O1I NTO d 869      -8.777  17.750 -27.559  0.00  0.00    -0.296 OA
ATOM     83  C13 NTO d 869      -7.117  20.956 -23.187  0.00  0.00     0.090 C 
ATOM     84  O58 NTO d 869     -22.652  24.250 -15.672  0.00  0.00    -0.572 OA
ATOM     85  O3A NTO d 869     -14.273  20.396 -18.561  0.00  0.00    -0.247 OA
ATOM     86  C1B NTO d 869      -6.892  18.564 -23.950  0.00  0.00     0.083 C 
ATOM     87  O4C NTO d 869     -23.784  17.009 -19.462  0.00  0.00    -0.572 OA
ATOM     88  O4E NTO d 869     -24.457  16.723 -17.129  0.00  0.00    -0.572 OA
ATOM     89  O36 NTO d 869     -12.804  15.308 -22.088  0.00  0.00    -0.572 OA
ATOM     90  O2A NTO d 869     -13.987  18.417 -23.905  0.00  0.00    -0.388 OA
ATOM     91  C30 NTO d 869     -15.038  18.624 -20.037  0.00  0.00     0.096 C 
ATOM     92  H   NTO d 869     -15.316  18.290 -17.310  0.00  0.00     0.076 H 
ATOM     93  H   NTO d 869     -25.263  24.507 -20.989  0.00  0.00     0.131 H 
ATOM     94  H   NTO d 869     -21.795  20.411 -18.160  0.00  0.00     0.133 H 
ATOM     95  H   NTO d 869      -9.868  17.850 -25.038  0.00  0.00     0.140 HD
ATOM     96  H   NTO d 869     -23.492  26.466 -23.030  0.00  0.00     0.231 HD
ATOM     97  H   NTO d 869     -17.769  17.663 -17.457  0.00  0.00     0.131 H 
ATOM     98  H   NTO d 869     -13.297  20.245 -23.268  0.00  0.00     0.094 H 
ATOM     99  H   NTO d 869     -10.866  20.740 -22.777  0.00  0.00     0.092 H 
ATOM    100  H   NTO d 869      -7.723  19.153 -25.833  0.00  0.00     0.076 H 
ATOM    101  H   NTO d 869     -17.038  19.344 -13.424  0.00  0.00     0.231 HD
ATOM    102  H   NTO d 869     -16.992  18.335 -20.806  0.00  0.00     0.090 H 
ATOM    103  H   NTO d 869     -19.913  18.655 -17.468  0.00  0.00     0.091 H 
ATOM    104  H   NTO d 869     -25.352  21.208 -19.497  0.00  0.00     0.090 H 
ATOM    105  H   NTO d 869     -23.136  23.640 -21.561  0.00  0.00     0.076 H 
ATOM    106  H   NTO d 869     -24.395  20.923 -21.787  0.00  0.00     0.089 H 
ATOM    107  H   NTO d 869     -10.866  18.181 -21.130  0.00  0.00     0.104 H 
ATOM    108  H   NTO d 869     -11.444  17.873 -23.479  0.00  0.00     0.091 H 
ATOM    109  H   NTO d 869     -20.283  16.131 -18.752  0.00  0.00     0.210 HD
ATOM    110  H   NTO d 869      -9.046  15.006 -25.763  0.00  0.00     0.231 HD
ATOM    111  H   NTO d 869     -28.382  23.279 -21.267  0.00  0.00     0.066 H 
ATOM    112  H   NTO d 869     -27.329  24.662 -21.445  0.00  0.00     0.066 H 
ATOM    113  H   NTO d 869     -27.471  23.866 -19.896  0.00  0.00     0.066 H 
ATOM    114  H   NTO d 869     -17.367  17.311 -14.705  0.00  0.00     0.231 HD
ATOM    115  H   NTO d 869     -22.065  25.248 -24.602  0.00  0.00     0.231 HD
ATOM    116  H   NTO d 869     -16.147  20.326 -19.375  0.00  0.00     0.092 H 
ATOM    117  H   NTO d 869      -9.831  20.122 -24.830  0.00  0.00     0.131 H 
ATOM    118  H   NTO d 869     -13.150  17.825 -21.493  0.00  0.00     0.133 H 
ATOM    119  H   NTO d 869     -25.371  23.140 -23.271  0.00  0.00     0.140 HD
ATOM    120  H   NTO d 869     -15.420  17.083 -22.225  0.00  0.00     0.080 H 
ATOM    121  H   NTO d 869     -16.616  15.995 -21.523  0.00  0.00     0.080 H 
ATOM    122  H   NTO d 869      -5.677  20.205 -24.567  0.00  0.00     0.091 H 
ATOM    123  H   NTO d 869     -21.849  17.772 -19.601  0.00  0.00     0.097 H 
ATOM    124  H   NTO d 869     -23.914  20.744 -17.487  0.00  0.00     0.080 H 
ATOM    125  H   NTO d 869     -25.109  21.987 -17.166  0.00  0.00     0.080 H 
ATOM    126  H   NTO d 869     -19.089  19.044 -14.732  0.00  0.00     0.231 HD
ATOM    127  H   NTO d 869      -5.629  19.335 -21.836  0.00  0.00     0.210 HD
ATOM    128  H   NTO d 869     -24.347  25.898 -25.231  0.00  0.00     0.231 HD
ATOM    129  H   NTO d 869     -21.682  21.820 -21.939  0.00  0.00     0.210 HD
ATOM    130  H   NTO d 869     -20.660  18.701 -21.049  0.00  0.00     0.104 H 
ATOM    131  H   NTO d 869      -6.473  16.806 -24.751  0.00  0.00     0.210 HD
ATOM    132  H   NTO d 869      -5.583  22.205 -22.380  0.00  0.00     0.080 H 
ATOM    133  H   NTO d 869      -5.952  22.505 -24.073  0.00  0.00     0.080 H 
ATOM    134  H   NTO d 869     -17.139  20.554 -17.169  0.00  0.00     0.140 HD
ATOM    135  H   NTO d 869     -18.948  17.485 -19.982  0.00  0.00     0.092 H 
ATOM    136  H   NTO d 869      -6.796  15.972 -25.622  0.00  0.00     0.231 HD
ATOM    137  H   NTO d 869     -11.664  20.290 -24.980  0.00  0.00     0.210 HD
ATOM    138  H   NTO d 869     -22.472  21.993 -19.691  0.00  0.00     0.091 H 
ATOM    139  H   NTO d 869      -9.727  17.945 -27.569  0.00  0.00     0.231 HD
ATOM    140  H   NTO d 869      -7.508  20.667 -22.234  0.00  0.00     0.090 H 
ATOM    141  H   NTO d 869      -7.250  18.154 -23.029  0.00  0.00     0.089 H 
ATOM    142  H   NTO d 869     -13.795  17.476 -23.767  0.00  0.00     0.210 HD
ATOM    143  H   NTO d 869     -14.231  18.039 -19.648  0.00  0.00     0.091 H 
ENDROOT
TORSDOF 46
ENDMDL
MODEL 52
REMARK VINA RESULT:      -5.5      3.710      5.644
REMARK  0 active torsions:
REMARK  status: ('A' for Active; 'I' for Inactive)
REMARK       I    between atoms: O4A_2  and  C49_47 
REMARK       I    between atoms: O4A_2  and  S4B_15 
REMARK       I    between atoms: C3F_4  and  N3G_69 
REMARK       I    between atoms: S17_5  and  O16_54 
REMARK       I    between atoms: C5L_6  and  O5M_26 
REMARK       I    between atoms: C4F_7  and  O4G_60 
REMARK       I    between atoms: N1F_9  and  C1E_19 
REMARK       I    between atoms: N1F_9  and  S1G_71 
REMARK       I    between atoms: O5J_11  and  S5H_38 
REMARK       I    between atoms: C3L_12  and  O3M_62 
REMARK       I    between atoms: C29_13  and  O2A_90 
REMARK       I    between atoms: S3B_14  and  O3A_85 
REMARK       I    between atoms: C20_18  and  O1L_72 
REMARK       I    between atoms: O3J_20  and  S3H_80 
REMARK       I    between atoms: C31_23  and  C33_44 
REMARK       I    between atoms: C46_25  and  O47_33 
REMARK       I    between atoms: O5M_26  and  C5N_35 
REMARK       I    between atoms: C51_28  and  C53_48 
REMARK       I    between atoms: C5F_29  and  N5G_43 
REMARK       I    between atoms: C59_30  and  O5A_59 
REMARK       I    between atoms: C21_31  and  C23_64 
REMARK       I    between atoms: C26_32  and  O27_76 
REMARK       I    between atoms: O1J_34  and  S1G_71 
REMARK       I    between atoms: O3K_36  and  S3H_80 
REMARK       I    between atoms: O5I_37  and  S5H_38 
REMARK       I    between atoms: S5H_38  and  O5K_53 
REMARK       I    between atoms: S5H_38  and  N5G_43 
REMARK       I    between atoms: C39_39  and  O3A_85 
REMARK       I    between atoms: C1K_40  and  O1L_72 
REMARK       I    between atoms: C2C_41  and  O2D_45 
REMARK       I    between atoms: C33_44  and  O34_74 
REMARK       I    between atoms: O2D_45  and  C30_91 
REMARK       I    between atoms: C12_46  and  O10_51 
REMARK       I    between atoms: C53_48  and  O54_57 
REMARK       I    between atoms: O3I_50  and  S3H_80 
REMARK       I    between atoms: O16_54  and  C15_68 
REMARK       I    between atoms: C43_56  and  C41_65 
REMARK       I    between atoms: O54_57  and  S55_58 
REMARK       I    between atoms: O4G_60  and  C50_77 
REMARK       I    between atoms: O3M_62  and  C40_70 
REMARK       I    between atoms: O1C_67  and  C1B_86 
REMARK       I    between atoms: C15_68  and  C13_83 
REMARK       I    between atoms: N3G_69  and  S3H_80 
REMARK       I    between atoms: S1G_71  and  O1H_75 
REMARK       I    between atoms: S1G_71  and  O1I_82 
REMARK       I    between atoms: O34_74  and  S35_81 
ROOT
ATOM      1  O42 NTO d 869     -20.658  18.547 -22.703  0.00  0.00    -0.340 OA
ATOM      2  O4A NTO d 869     -23.236  20.458 -20.910  0.00  0.00    -0.244 OA
ATOM      3  O32 NTO d 869     -17.385  21.195 -19.888  0.00  0.00    -0.349 OA
ATOM      4  C3F NTO d 869     -17.050  22.283 -22.010  0.00  0.00     0.083 C 
ATOM      5  S17 NTO d 869      -6.373  19.307 -26.616  0.00  0.00     0.251 S 
ATOM      6  C5L NTO d 869     -24.372  15.324 -25.315  0.00  0.00     0.149 C 
ATOM      7  C4F NTO d 869     -21.986  18.984 -22.379  0.00  0.00     0.161 C 
ATOM      8  O14 NTO d 869      -7.453  18.538 -22.770  0.00  0.00    -0.349 OA
ATOM      9  N1F NTO d 869      -7.995  18.366 -19.127  0.00  0.00    -0.210 NA
ATOM     10  O37 NTO d 869     -14.719  19.292 -16.416  0.00  0.00    -0.572 OA
ATOM     11  O5J NTO d 869     -22.417  13.584 -27.008  0.00  0.00    -0.296 OA
ATOM     12  C3L NTO d 869     -18.066  21.628 -21.076  0.00  0.00     0.150 C 
ATOM     13  C29 NTO d 869     -12.502  18.307 -21.016  0.00  0.00     0.110 C 
ATOM     14  S3B NTO d 869     -15.171  21.274 -24.611  0.00  0.00     0.252 S 
ATOM     15  S4B NTO d 869     -23.905  20.142 -19.686  0.00  0.00     0.252 S 
ATOM     16  O24 NTO d 869     -10.862  21.882 -23.672  0.00  0.00    -0.646 OA
ATOM     17  O45 NTO d 869     -17.719  18.422 -22.639  0.00  0.00    -0.646 OA
ATOM     18  C20 NTO d 869     -10.374  19.412 -21.681  0.00  0.00     0.103 C 
ATOM     19  C1E NTO d 869      -7.219  18.453 -20.371  0.00  0.00     0.081 C 
ATOM     20  O3J NTO d 869     -18.713  25.145 -23.692  0.00  0.00    -0.296 OA
ATOM     21  O38 NTO d 869     -14.311  21.703 -16.218  0.00  0.00    -0.572 OA
ATOM     22  O18 NTO d 869      -6.097  17.841 -26.767  0.00  0.00    -0.572 OA
ATOM     23  C31 NTO d 869     -16.445  20.151 -20.187  0.00  0.00     0.091 C 
ATOM     24  O52 NTO d 869     -24.573  16.741 -25.440  0.00  0.00    -0.349 OA
ATOM     25  C46 NTO d 869     -20.815  20.632 -20.894  0.00  0.00     0.094 C 
ATOM     26  O5M NTO d 869     -25.429  14.682 -24.591  0.00  0.00    -0.364 OA
ATOM     27  O3D NTO d 869     -14.112  21.886 -25.479  0.00  0.00    -0.572 OA
ATOM     28  C51 NTO d 869     -24.429  17.441 -24.193  0.00  0.00     0.091 C 
ATOM     29  C5F NTO d 869     -23.005  15.001 -24.708  0.00  0.00     0.081 C 
ATOM     30  C59 NTO d 869     -22.812  15.747 -23.386  0.00  0.00     0.083 C 
ATOM     31  C21 NTO d 869     -11.118  20.736 -21.597  0.00  0.00     0.152 C 
ATOM     32  C26 NTO d 869     -11.018  18.458 -20.676  0.00  0.00     0.092 C 
ATOM     33  O47 NTO d 869     -20.882  21.320 -19.642  0.00  0.00    -0.390 OA
ATOM     34  O1J NTO d 869      -7.966  17.374 -16.778  0.00  0.00    -0.296 OA
ATOM     35  C5N NTO d 869     -26.516  14.426 -25.486  0.00  0.00     0.007 C 
ATOM     36  O3K NTO d 869     -18.712  24.371 -21.382  0.00  0.00    -0.296 OA
ATOM     37  O5I NTO d 869     -20.627  12.916 -25.476  0.00  0.00    -0.296 OA
ATOM     38  S5H NTO d 869     -22.103  12.857 -25.735  0.00  0.00     0.156 S 
ATOM     39  C39 NTO d 869     -16.036  21.212 -22.417  0.00  0.00     0.108 C 
ATOM     40  C1K NTO d 869      -8.199  18.471 -21.545  0.00  0.00     0.150 C 
ATOM     41  C2C NTO d 869     -13.186  19.676 -21.064  0.00  0.00     0.160 C 
ATOM     42  O19 NTO d 869      -5.108  20.084 -26.828  0.00  0.00    -0.572 OA
ATOM     43  N5G NTO d 869     -22.890  13.552 -24.487  0.00  0.00    -0.210 NA
ATOM     44  C33 NTO d 869     -15.765  19.693 -18.894  0.00  0.00     0.067 C 
ATOM     45  O2D NTO d 869     -14.543  19.498 -21.503  0.00  0.00    -0.348 OA
ATOM     46  C12 NTO d 869      -5.736  19.935 -21.737  0.00  0.00     0.089 C 
ATOM     47  C49 NTO d 869     -22.025  19.706 -21.029  0.00  0.00     0.134 C 
ATOM     48  C53 NTO d 869     -24.633  18.930 -24.484  0.00  0.00     0.067 C 
ATOM     49  O4D NTO d 869     -23.202  20.810 -18.541  0.00  0.00    -0.572 OA
ATOM     50  O3I NTO d 869     -20.236  23.352 -23.010  0.00  0.00    -0.296 OA
ATOM     51  O10 NTO d 869      -5.170  21.247 -21.795  0.00  0.00    -0.390 OA
ATOM     52  O1A NTO d 869      -7.399  19.725 -27.625  0.00  0.00    -0.572 OA
ATOM     53  O5K NTO d 869     -22.535  11.428 -25.874  0.00  0.00    -0.296 OA
ATOM     54  O16 NTO d 869      -6.880  19.562 -25.301  0.00  0.00    -0.254 OA
ATOM     55  O56 NTO d 869     -22.606  21.499 -25.423  0.00  0.00    -0.572 OA
ATOM     56  C43 NTO d 869     -18.504  17.776 -21.908  0.00  0.00     0.206 C 
ATOM     57  O54 NTO d 869     -23.718  19.370 -25.488  0.00  0.00    -0.254 OA
ATOM     58  S55 NTO d 869     -23.759  20.716 -25.978  0.00  0.00     0.251 S 
ATOM     59  O5A NTO d 869     -21.472  15.558 -22.921  0.00  0.00    -0.391 OA
ATOM     60  O4G NTO d 869     -22.925  17.900 -22.338  0.00  0.00    -0.348 OA
ATOM     61  O3C NTO d 869     -16.520  21.634 -25.159  0.00  0.00    -0.572 OA
ATOM     62  O3M NTO d 869     -18.595  20.490 -21.771  0.00  0.00    -0.348 OA
ATOM     63  O44 NTO d 869     -18.256  16.626 -21.460  0.00  0.00    -0.646 OA
ATOM     64  C23 NTO d 869     -10.416  21.730 -22.510  0.00  0.00     0.206 C 
ATOM     65  C41 NTO d 869     -19.829  18.423 -21.534  0.00  0.00     0.152 C 
ATOM     66  O22 NTO d 869     -12.500  20.567 -21.959  0.00  0.00    -0.340 OA
ATOM     67  O1C NTO d 869      -5.424  19.711 -19.349  0.00  0.00    -0.391 OA
ATOM     68  C15 NTO d 869      -5.987  19.775 -24.206  0.00  0.00     0.067 C 
ATOM     69  N3G NTO d 869     -17.738  22.829 -23.194  0.00  0.00    -0.210 NA
ATOM     70  C40 NTO d 869     -19.538  19.796 -20.946  0.00  0.00     0.103 C 
ATOM     71  S1G NTO d 869      -7.193  17.429 -18.062  0.00  0.00     0.156 S 
ATOM     72  O1L NTO d 869      -8.993  19.655 -21.382  0.00  0.00    -0.348 OA
ATOM     73  O57 NTO d 869     -25.044  21.359 -25.552  0.00  0.00    -0.572 OA
ATOM     74  O34 NTO d 869     -15.008  20.749 -18.295  0.00  0.00    -0.254 OA
ATOM     75  O1H NTO d 869      -5.832  18.008 -17.817  0.00  0.00    -0.296 OA
ATOM     76  O27 NTO d 869     -10.387  17.176 -20.748  0.00  0.00    -0.390 OA
ATOM     77  C50 NTO d 869     -23.039  17.241 -23.608  0.00  0.00     0.095 C 
ATOM     78  O3E NTO d 869     -15.019  19.781 -24.615  0.00  0.00    -0.572 OA
ATOM     79  O25 NTO d 869      -9.414  22.332 -22.057  0.00  0.00    -0.646 OA
ATOM     80  S3H NTO d 869     -18.871  23.942 -22.810  0.00  0.00     0.156 S 
ATOM     81  S35 NTO d 869     -14.214  20.514 -17.125  0.00  0.00     0.251 S 
ATOM     82  O1I NTO d 869      -7.060  16.044 -18.626  0.00  0.00    -0.296 OA
ATOM     83  C13 NTO d 869      -6.746  19.784 -22.876  0.00  0.00     0.090 C 
ATOM     84  O58 NTO d 869     -23.678  20.695 -27.474  0.00  0.00    -0.572 OA
ATOM     85  O3A NTO d 869     -15.040  21.777 -23.277  0.00  0.00    -0.247 OA
ATOM     86  C1B NTO d 869      -6.416  19.753 -20.377  0.00  0.00     0.083 C 
ATOM     87  O4C NTO d 869     -23.906  18.656 -19.482  0.00  0.00    -0.572 OA
ATOM     88  O4E NTO d 869     -25.319  20.630 -19.771  0.00  0.00    -0.572 OA
ATOM     89  O36 NTO d 869     -12.782  20.304 -17.513  0.00  0.00    -0.572 OA
ATOM     90  O2A NTO d 869     -13.133  17.491 -20.029  0.00  0.00    -0.388 OA
ATOM     91  C30 NTO d 869     -15.378  20.618 -21.168  0.00  0.00     0.096 C 
ATOM     92  H   NTO d 869     -16.549  23.093 -21.521  0.00  0.00     0.076 H 
ATOM     93  H   NTO d 869     -24.391  14.925 -26.308  0.00  0.00     0.131 H 
ATOM     94  H   NTO d 869     -22.267  19.658 -23.161  0.00  0.00     0.133 H 
ATOM     95  H   NTO d 869      -8.908  17.957 -19.322  0.00  0.00     0.140 HD
ATOM     96  H   NTO d 869     -21.945  13.165 -27.745  0.00  0.00     0.231 HD
ATOM     97  H   NTO d 869     -18.850  22.305 -20.803  0.00  0.00     0.131 H 
ATOM     98  H   NTO d 869     -12.590  17.848 -21.978  0.00  0.00     0.094 H 
ATOM     99  H   NTO d 869     -10.430  18.974 -22.655  0.00  0.00     0.092 H 
ATOM    100  H   NTO d 869      -6.553  17.619 -20.449  0.00  0.00     0.076 H 
ATOM    101  H   NTO d 869     -19.385  25.805 -23.463  0.00  0.00     0.231 HD
ATOM    102  H   NTO d 869     -16.985  19.344 -20.636  0.00  0.00     0.090 H 
ATOM    103  H   NTO d 869     -20.814  21.343 -21.693  0.00  0.00     0.091 H 
ATOM    104  H   NTO d 869     -25.143  17.070 -23.488  0.00  0.00     0.090 H 
ATOM    105  H   NTO d 869     -22.244  15.319 -25.390  0.00  0.00     0.076 H 
ATOM    106  H   NTO d 869     -23.508  15.369 -22.667  0.00  0.00     0.089 H 
ATOM    107  H   NTO d 869     -11.108  21.107 -20.593  0.00  0.00     0.104 H 
ATOM    108  H   NTO d 869     -10.903  18.852 -19.688  0.00  0.00     0.091 H 
ATOM    109  H   NTO d 869     -20.882  20.674 -18.918  0.00  0.00     0.210 HD
ATOM    110  H   NTO d 869      -8.052  18.269 -16.414  0.00  0.00     0.231 HD
ATOM    111  H   NTO d 869     -27.310  13.946 -24.954  0.00  0.00     0.066 H 
ATOM    112  H   NTO d 869     -26.182  13.790 -26.279  0.00  0.00     0.066 H 
ATOM    113  H   NTO d 869     -26.867  15.351 -25.895  0.00  0.00     0.066 H 
ATOM    114  H   NTO d 869     -19.389  25.032 -21.165  0.00  0.00     0.231 HD
ATOM    115  H   NTO d 869     -20.153  12.504 -26.216  0.00  0.00     0.231 HD
ATOM    116  H   NTO d 869     -16.546  20.435 -22.947  0.00  0.00     0.092 H 
ATOM    117  H   NTO d 869      -8.816  17.598 -21.573  0.00  0.00     0.131 H 
ATOM    118  H   NTO d 869     -13.164  20.110 -20.087  0.00  0.00     0.133 H 
ATOM    119  H   NTO d 869     -23.823  13.148 -24.409  0.00  0.00     0.140 HD
ATOM    120  H   NTO d 869     -15.108  18.878 -19.116  0.00  0.00     0.080 H 
ATOM    121  H   NTO d 869     -16.525  19.392 -18.203  0.00  0.00     0.080 H 
ATOM    122  H   NTO d 869      -4.979  19.187 -21.847  0.00  0.00     0.091 H 
ATOM    123  H   NTO d 869     -21.993  18.979 -20.245  0.00  0.00     0.097 H 
ATOM    124  H   NTO d 869     -24.469  19.489 -23.587  0.00  0.00     0.080 H 
ATOM    125  H   NTO d 869     -25.633  19.082 -24.834  0.00  0.00     0.080 H 
ATOM    126  H   NTO d 869     -20.910  24.011 -22.782  0.00  0.00     0.231 HD
ATOM    127  H   NTO d 869      -5.873  21.906 -21.692  0.00  0.00     0.210 HD
ATOM    128  H   NTO d 869     -22.064  11.019 -26.617  0.00  0.00     0.231 HD
ATOM    129  H   NTO d 869     -20.849  15.904 -23.579  0.00  0.00     0.210 HD
ATOM    130  H   NTO d 869     -20.347  17.822 -20.816  0.00  0.00     0.104 H 
ATOM    131  H   NTO d 869      -5.856  19.596 -18.488  0.00  0.00     0.210 HD
ATOM    132  H   NTO d 869      -5.494  20.717 -24.334  0.00  0.00     0.080 H 
ATOM    133  H   NTO d 869      -5.272  18.979 -24.187  0.00  0.00     0.080 H 
ATOM    134  H   NTO d 869     -18.191  22.061 -23.691  0.00  0.00     0.140 HD
ATOM    135  H   NTO d 869     -19.147  19.659 -19.960  0.00  0.00     0.092 H 
ATOM    136  H   NTO d 869      -5.922  18.902 -17.453  0.00  0.00     0.231 HD
ATOM    137  H   NTO d 869     -10.488  16.815 -21.643  0.00  0.00     0.210 HD
ATOM    138  H   NTO d 869     -22.320  17.649 -24.287  0.00  0.00     0.091 H 
ATOM    139  H   NTO d 869      -7.943  15.673 -18.783  0.00  0.00     0.231 HD
ATOM    140  H   NTO d 869      -7.442  20.595 -22.824  0.00  0.00     0.090 H 
ATOM    141  H   NTO d 869      -7.077  20.576 -20.200  0.00  0.00     0.089 H 
ATOM    142  H   NTO d 869     -13.049  17.912 -19.159  0.00  0.00     0.210 HD
ATOM    143  H   NTO d 869     -14.775  21.383 -20.725  0.00  0.00     0.091 H 
ENDROOT
TORSDOF 46
ENDMDL
MODEL 53
REMARK VINA RESULT:      -5.5      4.312     14.185
REMARK  0 active torsions:
REMARK  status: ('A' for Active; 'I' for Inactive)
REMARK       I    between atoms: O4A_2  and  C49_47 
REMARK       I    between atoms: O4A_2  and  S4B_15 
REMARK       I    between atoms: C3F_4  and  N3G_69 
REMARK       I    between atoms: S17_5  and  O16_54 
REMARK       I    between atoms: C5L_6  and  O5M_26 
REMARK       I    between atoms: C4F_7  and  O4G_60 
REMARK       I    between atoms: N1F_9  and  C1E_19 
REMARK       I    between atoms: N1F_9  and  S1G_71 
REMARK       I    between atoms: O5J_11  and  S5H_38 
REMARK       I    between atoms: C3L_12  and  O3M_62 
REMARK       I    between atoms: C29_13  and  O2A_90 
REMARK       I    between atoms: S3B_14  and  O3A_85 
REMARK       I    between atoms: C20_18  and  O1L_72 
REMARK       I    between atoms: O3J_20  and  S3H_80 
REMARK       I    between atoms: C31_23  and  C33_44 
REMARK       I    between atoms: C46_25  and  O47_33 
REMARK       I    between atoms: O5M_26  and  C5N_35 
REMARK       I    between atoms: C51_28  and  C53_48 
REMARK       I    between atoms: C5F_29  and  N5G_43 
REMARK       I    between atoms: C59_30  and  O5A_59 
REMARK       I    between atoms: C21_31  and  C23_64 
REMARK       I    between atoms: C26_32  and  O27_76 
REMARK       I    between atoms: O1J_34  and  S1G_71 
REMARK       I    between atoms: O3K_36  and  S3H_80 
REMARK       I    between atoms: O5I_37  and  S5H_38 
REMARK       I    between atoms: S5H_38  and  O5K_53 
REMARK       I    between atoms: S5H_38  and  N5G_43 
REMARK       I    between atoms: C39_39  and  O3A_85 
REMARK       I    between atoms: C1K_40  and  O1L_72 
REMARK       I    between atoms: C2C_41  and  O2D_45 
REMARK       I    between atoms: C33_44  and  O34_74 
REMARK       I    between atoms: O2D_45  and  C30_91 
REMARK       I    between atoms: C12_46  and  O10_51 
REMARK       I    between atoms: C53_48  and  O54_57 
REMARK       I    between atoms: O3I_50  and  S3H_80 
REMARK       I    between atoms: O16_54  and  C15_68 
REMARK       I    between atoms: C43_56  and  C41_65 
REMARK       I    between atoms: O54_57  and  S55_58 
REMARK       I    between atoms: O4G_60  and  C50_77 
REMARK       I    between atoms: O3M_62  and  C40_70 
REMARK       I    between atoms: O1C_67  and  C1B_86 
REMARK       I    between atoms: C15_68  and  C13_83 
REMARK       I    between atoms: N3G_69  and  S3H_80 
REMARK       I    between atoms: S1G_71  and  O1H_75 
REMARK       I    between atoms: S1G_71  and  O1I_82 
REMARK       I    between atoms: O34_74  and  S35_81 
ROOT
ATOM      1  O42 NTO d 869     -14.014  20.846 -23.847  0.00  0.00    -0.340 OA
ATOM      2  O4A NTO d 869     -13.755  24.126 -25.485  0.00  0.00    -0.244 OA
ATOM      3  O32 NTO d 869     -19.014  21.546 -24.256  0.00  0.00    -0.349 OA
ATOM      4  C3F NTO d 869     -18.756  21.918 -21.891  0.00  0.00     0.083 C 
ATOM      5  S17 NTO d 869     -23.369  12.746 -15.672  0.00  0.00     0.251 S 
ATOM      6  C5L NTO d 869      -8.517  19.963 -23.971  0.00  0.00     0.149 C 
ATOM      7  C4F NTO d 869     -13.353  22.004 -24.379  0.00  0.00     0.161 C 
ATOM      8  O14 NTO d 869     -24.014  13.314 -19.648  0.00  0.00    -0.349 OA
ATOM      9  N1F NTO d 869     -25.241  14.028 -23.051  0.00  0.00    -0.210 NA
ATOM     10  O37 NTO d 869     -21.822  19.009 -27.165  0.00  0.00    -0.572 OA
ATOM     11  O5J NTO d 869      -8.427  17.191 -22.550  0.00  0.00    -0.296 OA
ATOM     12  C3L NTO d 869     -18.130  22.106 -23.272  0.00  0.00     0.150 C 
ATOM     13  C29 NTO d 869     -20.900  16.263 -22.845  0.00  0.00     0.110 C 
ATOM     14  S3B NTO d 869     -18.507  19.643 -19.425  0.00  0.00     0.252 S 
ATOM     15  S4B NTO d 869     -13.681  24.435 -26.880  0.00  0.00     0.252 S 
ATOM     16  O24 NTO d 869     -22.496  17.823 -18.657  0.00  0.00    -0.646 OA
ATOM     17  O45 NTO d 869     -16.221  19.082 -23.028  0.00  0.00    -0.646 OA
ATOM     18  C20 NTO d 869     -22.699  15.846 -21.178  0.00  0.00     0.103 C 
ATOM     19  C1E NTO d 869     -25.284  13.471 -21.693  0.00  0.00     0.081 C 
ATOM     20  O3J NTO d 869     -17.982  24.926 -19.858  0.00  0.00    -0.296 OA
ATOM     21  O38 NTO d 869     -23.305  20.756 -26.289  0.00  0.00    -0.572 OA
ATOM     22  O18 NTO d 869     -22.850  11.382 -16.013  0.00  0.00    -0.572 OA
ATOM     23  C31 NTO d 869     -19.119  20.122 -24.100  0.00  0.00     0.091 C 
ATOM     24  O52 NTO d 869      -8.941  21.205 -23.385  0.00  0.00    -0.349 OA
ATOM     25  C46 NTO d 869     -15.680  22.892 -24.673  0.00  0.00     0.094 C 
ATOM     26  O5M NTO d 869      -7.768  20.154 -25.177  0.00  0.00    -0.364 OA
ATOM     27  O3D NTO d 869     -19.177  19.406 -18.105  0.00  0.00    -0.572 OA
ATOM     28  C51 NTO d 869      -9.951  21.875 -24.157  0.00  0.00     0.091 C 
ATOM     29  C5F NTO d 869      -9.698  19.015 -24.193  0.00  0.00     0.081 C 
ATOM     30  C59 NTO d 869     -10.801  19.706 -24.997  0.00  0.00     0.083 C 
ATOM     31  C21 NTO d 869     -22.766  17.353 -20.979  0.00  0.00     0.152 C 
ATOM     32  C26 NTO d 869     -22.256  15.591 -22.617  0.00  0.00     0.092 C 
ATOM     33  O47 NTO d 869     -16.527  23.673 -25.520  0.00  0.00    -0.390 OA
ATOM     34  O1J NTO d 869     -25.925  13.561 -25.462  0.00  0.00    -0.296 OA
ATOM     35  C5N NTO d 869      -6.405  20.431 -24.838  0.00  0.00     0.007 C 
ATOM     36  O3K NTO d 869     -18.724  24.646 -22.162  0.00  0.00    -0.296 OA
ATOM     37  O5I NTO d 869     -10.210  15.861 -23.574  0.00  0.00    -0.296 OA
ATOM     38  S5H NTO d 869      -8.940  16.615 -23.835  0.00  0.00     0.156 S 
ATOM     39  C39 NTO d 869     -18.855  20.414 -21.628  0.00  0.00     0.108 C 
ATOM     40  C1K NTO d 869     -23.995  13.868 -20.973  0.00  0.00     0.150 C 
ATOM     41  C2C NTO d 869     -20.970  17.752 -22.496  0.00  0.00     0.160 C 
ATOM     42  O19 NTO d 869     -24.579  12.623 -14.794  0.00  0.00    -0.572 OA
ATOM     43  N5G NTO d 869      -9.240  17.811 -24.902  0.00  0.00    -0.210 NA
ATOM     44  C33 NTO d 869     -20.040  19.557 -25.186  0.00  0.00     0.067 C 
ATOM     45  O2D NTO d 869     -19.652  18.315 -22.609  0.00  0.00    -0.348 OA
ATOM     46  C12 NTO d 869     -26.432  13.621 -19.474  0.00  0.00     0.089 C 
ATOM     47  C49 NTO d 869     -14.282  22.812 -25.289  0.00  0.00     0.134 C 
ATOM     48  C53 NTO d 869     -10.325  23.152 -23.400  0.00  0.00     0.067 C 
ATOM     49  O4D NTO d 869     -15.054  24.746 -27.399  0.00  0.00    -0.572 OA
ATOM     50  O3I NTO d 869     -16.341  24.445 -21.613  0.00  0.00    -0.296 OA
ATOM     51  O10 NTO d 869     -27.422  14.351 -18.746  0.00  0.00    -0.390 OA
ATOM     52  O1A NTO d 869     -22.301  13.517 -14.957  0.00  0.00    -0.572 OA
ATOM     53  O5K NTO d 869      -7.905  15.684 -24.396  0.00  0.00    -0.296 OA
ATOM     54  O16 NTO d 869     -23.717  13.438 -16.877  0.00  0.00    -0.254 OA
ATOM     55  O56 NTO d 869     -12.575  23.935 -20.967  0.00  0.00    -0.572 OA
ATOM     56  C43 NTO d 869     -15.680  19.116 -24.156  0.00  0.00     0.206 C 
ATOM     57  O54 NTO d 869     -10.745  22.837 -22.071  0.00  0.00    -0.254 OA
ATOM     58  S55 NTO d 869     -11.087  23.875 -21.145  0.00  0.00     0.251 S 
ATOM     59  O5A NTO d 869     -11.954  18.860 -25.053  0.00  0.00    -0.391 OA
ATOM     60  O4G NTO d 869     -12.173  21.667 -25.123  0.00  0.00    -0.348 OA
ATOM     61  O3C NTO d 869     -17.385  20.620 -19.235  0.00  0.00    -0.572 OA
ATOM     62  O3M NTO d 869     -16.892  21.383 -23.268  0.00  0.00    -0.348 OA
ATOM     63  O44 NTO d 869     -15.565  18.112 -24.907  0.00  0.00    -0.646 OA
ATOM     64  C23 NTO d 869     -23.314  17.620 -19.586  0.00  0.00     0.206 C 
ATOM     65  C41 NTO d 869     -15.139  20.448 -24.650  0.00  0.00     0.152 C 
ATOM     66  O22 NTO d 869     -21.469  17.948 -21.162  0.00  0.00    -0.340 OA
ATOM     67  O1C NTO d 869     -27.693  13.620 -21.538  0.00  0.00    -0.391 OA
ATOM     68  C15 NTO d 869     -25.007  13.265 -17.467  0.00  0.00     0.067 C 
ATOM     69  N3G NTO d 869     -17.919  22.574 -20.869  0.00  0.00    -0.210 NA
ATOM     70  C40 NTO d 869     -16.252  21.482 -24.546  0.00  0.00     0.103 C 
ATOM     71  S1G NTO d 869     -25.932  12.973 -24.083  0.00  0.00     0.156 S 
ATOM     72  O1L NTO d 869     -23.999  15.301 -20.912  0.00  0.00    -0.348 OA
ATOM     73  O57 NTO d 869     -10.598  25.190 -21.673  0.00  0.00    -0.572 OA
ATOM     74  O34 NTO d 869     -21.370  20.071 -25.065  0.00  0.00    -0.254 OA
ATOM     75  O1H NTO d 869     -27.342  12.703 -23.648  0.00  0.00    -0.296 OA
ATOM     76  O27 NTO d 869     -22.127  14.185 -22.847  0.00  0.00    -0.390 OA
ATOM     77  C50 NTO d 869     -11.193  21.010 -24.305  0.00  0.00     0.095 C 
ATOM     78  O3E NTO d 869     -17.952  18.349 -19.944  0.00  0.00    -0.572 OA
ATOM     79  O25 NTO d 869     -24.559  17.605 -19.435  0.00  0.00    -0.646 OA
ATOM     80  S3H NTO d 869     -17.738  24.176 -21.134  0.00  0.00     0.156 S 
ATOM     81  S35 NTO d 869     -22.419  19.603 -25.924  0.00  0.00     0.251 S 
ATOM     82  O1I NTO d 869     -25.148  11.694 -24.080  0.00  0.00    -0.296 OA
ATOM     83  C13 NTO d 869     -25.060  13.903 -18.858  0.00  0.00     0.090 C 
ATOM     84  O58 NTO d 869     -10.433  23.588 -19.827  0.00  0.00    -0.572 OA
ATOM     85  O3A NTO d 869     -19.460  20.175 -20.352  0.00  0.00    -0.247 OA
ATOM     86  C1B NTO d 869     -26.474  14.064 -20.939  0.00  0.00     0.083 C 
ATOM     87  O4C NTO d 869     -13.111  23.264 -27.625  0.00  0.00    -0.572 OA
ATOM     88  O4E NTO d 869     -12.785  25.621 -27.064  0.00  0.00    -0.572 OA
ATOM     89  O36 NTO d 869     -23.231  18.561 -25.216  0.00  0.00    -0.572 OA
ATOM     90  O2A NTO d 869     -20.520  16.109 -24.213  0.00  0.00    -0.388 OA
ATOM     91  C30 NTO d 869     -19.677  19.745 -22.734  0.00  0.00     0.096 C 
ATOM     92  H   NTO d 869     -19.729  22.360 -21.850  0.00  0.00     0.076 H 
ATOM     93  H   NTO d 869      -7.857  19.503 -23.267  0.00  0.00     0.131 H 
ATOM     94  H   NTO d 869     -13.073  22.592 -23.530  0.00  0.00     0.133 H 
ATOM     95  H   NTO d 869     -24.272  14.188 -23.324  0.00  0.00     0.140 HD
ATOM     96  H   NTO d 869      -8.251  16.473 -21.920  0.00  0.00     0.231 HD
ATOM     97  H   NTO d 869     -17.966  23.140 -23.497  0.00  0.00     0.131 H 
ATOM     98  H   NTO d 869     -20.174  15.798 -22.212  0.00  0.00     0.094 H 
ATOM     99  H   NTO d 869     -22.001  15.378 -20.516  0.00  0.00     0.092 H 
ATOM    100  H   NTO d 869     -25.380  12.406 -21.734  0.00  0.00     0.076 H 
ATOM    101  H   NTO d 869     -17.874  25.877 -20.016  0.00  0.00     0.231 HD
ATOM    102  H   NTO d 869     -18.136  19.709 -24.187  0.00  0.00     0.090 H 
ATOM    103  H   NTO d 869     -15.623  23.346 -23.706  0.00  0.00     0.091 H 
ATOM    104  H   NTO d 869      -9.574  22.087 -25.135  0.00  0.00     0.090 H 
ATOM    105  H   NTO d 869     -10.097  18.737 -23.240  0.00  0.00     0.076 H 
ATOM    106  H   NTO d 869     -10.442  19.904 -25.985  0.00  0.00     0.089 H 
ATOM    107  H   NTO d 869     -23.413  17.797 -21.708  0.00  0.00     0.104 H 
ATOM    108  H   NTO d 869     -22.984  15.993 -23.291  0.00  0.00     0.091 H 
ATOM    109  H   NTO d 869     -16.578  23.260 -26.396  0.00  0.00     0.210 HD
ATOM    110  H   NTO d 869     -26.432  14.388 -25.464  0.00  0.00     0.231 HD
ATOM    111  H   NTO d 869      -5.837  20.575 -25.733  0.00  0.00     0.066 H 
ATOM    112  H   NTO d 869      -6.000  19.609 -24.286  0.00  0.00     0.066 H 
ATOM    113  H   NTO d 869      -6.361  21.318 -24.240  0.00  0.00     0.066 H 
ATOM    114  H   NTO d 869     -18.607  25.597 -22.310  0.00  0.00     0.231 HD
ATOM    115  H   NTO d 869     -10.037  15.147 -22.940  0.00  0.00     0.231 HD
ATOM    116  H   NTO d 869     -17.870  19.996 -21.624  0.00  0.00     0.092 H 
ATOM    117  H   NTO d 869     -23.121  13.508 -21.475  0.00  0.00     0.131 H 
ATOM    118  H   NTO d 869     -21.641  18.237 -23.173  0.00  0.00     0.133 H 
ATOM    119  H   NTO d 869      -8.387  18.027 -25.417  0.00  0.00     0.140 HD
ATOM    120  H   NTO d 869     -20.069  18.492 -25.097  0.00  0.00     0.080 H 
ATOM    121  H   NTO d 869     -19.653  19.850 -26.140  0.00  0.00     0.080 H 
ATOM    122  H   NTO d 869     -26.620  12.569 -19.426  0.00  0.00     0.091 H 
ATOM    123  H   NTO d 869     -14.350  22.323 -26.238  0.00  0.00     0.097 H 
ATOM    124  H   NTO d 869     -11.123  23.645 -23.914  0.00  0.00     0.080 H 
ATOM    125  H   NTO d 869      -9.469  23.791 -23.351  0.00  0.00     0.080 H 
ATOM    126  H   NTO d 869     -16.232  25.396 -21.771  0.00  0.00     0.231 HD
ATOM    127  H   NTO d 869     -27.231  15.300 -18.804  0.00  0.00     0.210 HD
ATOM    128  H   NTO d 869      -7.730  14.974 -23.758  0.00  0.00     0.231 HD
ATOM    129  H   NTO d 869     -12.272  18.687 -24.153  0.00  0.00     0.210 HD
ATOM    130  H   NTO d 869     -14.814  20.365 -25.666  0.00  0.00     0.104 H 
ATOM    131  H   NTO d 869     -27.719  13.901 -22.466  0.00  0.00     0.210 HD
ATOM    132  H   NTO d 869     -25.742  13.727 -16.842  0.00  0.00     0.080 H 
ATOM    133  H   NTO d 869     -25.202  12.217 -17.563  0.00  0.00     0.080 H 
ATOM    134  H   NTO d 869     -16.998  22.136 -20.872  0.00  0.00     0.140 HD
ATOM    135  H   NTO d 869     -16.952  21.295 -25.333  0.00  0.00     0.092 H 
ATOM    136  H   NTO d 869     -27.845  13.532 -23.652  0.00  0.00     0.231 HD
ATOM    137  H   NTO d 869     -21.467  13.817 -22.238  0.00  0.00     0.210 HD
ATOM    138  H   NTO d 869     -11.603  20.829 -23.334  0.00  0.00     0.091 H 
ATOM    139  H   NTO d 869     -24.237  11.873 -24.362  0.00  0.00     0.231 HD
ATOM    140  H   NTO d 869     -24.919  14.963 -18.813  0.00  0.00     0.090 H 
ATOM    141  H   NTO d 869     -26.423  15.132 -20.987  0.00  0.00     0.089 H 
ATOM    142  H   NTO d 869     -21.181  16.532 -24.783  0.00  0.00     0.210 HD
ATOM    143  H   NTO d 869     -20.687  20.087 -22.638  0.00  0.00     0.091 H 
ENDROOT
TORSDOF 46
ENDMDL
MODEL 54
REMARK VINA RESULT:      -5.5      4.555      7.835
REMARK  0 active torsions:
REMARK  status: ('A' for Active; 'I' for Inactive)
REMARK       I    between atoms: O4A_2  and  C49_47 
REMARK       I    between atoms: O4A_2  and  S4B_15 
REMARK       I    between atoms: C3F_4  and  N3G_69 
REMARK       I    between atoms: S17_5  and  O16_54 
REMARK       I    between atoms: C5L_6  and  O5M_26 
REMARK       I    between atoms: C4F_7  and  O4G_60 
REMARK       I    between atoms: N1F_9  and  C1E_19 
REMARK       I    between atoms: N1F_9  and  S1G_71 
REMARK       I    between atoms: O5J_11  and  S5H_38 
REMARK       I    between atoms: C3L_12  and  O3M_62 
REMARK       I    between atoms: C29_13  and  O2A_90 
REMARK       I    between atoms: S3B_14  and  O3A_85 
REMARK       I    between atoms: C20_18  and  O1L_72 
REMARK       I    between atoms: O3J_20  and  S3H_80 
REMARK       I    between atoms: C31_23  and  C33_44 
REMARK       I    between atoms: C46_25  and  O47_33 
REMARK       I    between atoms: O5M_26  and  C5N_35 
REMARK       I    between atoms: C51_28  and  C53_48 
REMARK       I    between atoms: C5F_29  and  N5G_43 
REMARK       I    between atoms: C59_30  and  O5A_59 
REMARK       I    between atoms: C21_31  and  C23_64 
REMARK       I    between atoms: C26_32  and  O27_76 
REMARK       I    between atoms: O1J_34  and  S1G_71 
REMARK       I    between atoms: O3K_36  and  S3H_80 
REMARK       I    between atoms: O5I_37  and  S5H_38 
REMARK       I    between atoms: S5H_38  and  O5K_53 
REMARK       I    between atoms: S5H_38  and  N5G_43 
REMARK       I    between atoms: C39_39  and  O3A_85 
REMARK       I    between atoms: C1K_40  and  O1L_72 
REMARK       I    between atoms: C2C_41  and  O2D_45 
REMARK       I    between atoms: C33_44  and  O34_74 
REMARK       I    between atoms: O2D_45  and  C30_91 
REMARK       I    between atoms: C12_46  and  O10_51 
REMARK       I    between atoms: C53_48  and  O54_57 
REMARK       I    between atoms: O3I_50  and  S3H_80 
REMARK       I    between atoms: O16_54  and  C15_68 
REMARK       I    between atoms: C43_56  and  C41_65 
REMARK       I    between atoms: O54_57  and  S55_58 
REMARK       I    between atoms: O4G_60  and  C50_77 
REMARK       I    between atoms: O3M_62  and  C40_70 
REMARK       I    between atoms: O1C_67  and  C1B_86 
REMARK       I    between atoms: C15_68  and  C13_83 
REMARK       I    between atoms: N3G_69  and  S3H_80 
REMARK       I    between atoms: S1G_71  and  O1H_75 
REMARK       I    between atoms: S1G_71  and  O1I_82 
REMARK       I    between atoms: O34_74  and  S35_81 
ROOT
ATOM      1  O42 NTO d 869     -19.922  19.522 -19.365  0.00  0.00    -0.340 OA
ATOM      2  O4A NTO d 869     -23.319  19.454 -17.963  0.00  0.00    -0.244 OA
ATOM      3  O32 NTO d 869     -18.451  20.241 -14.572  0.00  0.00    -0.349 OA
ATOM      4  C3F NTO d 869     -18.089  22.461 -15.433  0.00  0.00     0.083 C 
ATOM      5  S17 NTO d 869      -6.341  24.711 -16.437  0.00  0.00     0.251 S 
ATOM      6  C5L NTO d 869     -21.636  18.171 -24.488  0.00  0.00     0.149 C 
ATOM      7  C4F NTO d 869     -21.356  19.450 -19.389  0.00  0.00     0.161 C 
ATOM      8  O14 NTO d 869      -7.853  21.530 -14.399  0.00  0.00    -0.349 OA
ATOM      9  N1F NTO d 869      -9.041  19.014 -11.981  0.00  0.00    -0.210 NA
ATOM     10  O37 NTO d 869     -16.067  16.996 -12.010  0.00  0.00    -0.572 OA
ATOM     11  O5J NTO d 869     -18.889  18.214 -25.958  0.00  0.00    -0.296 OA
ATOM     12  C3L NTO d 869     -18.979  21.220 -15.481  0.00  0.00     0.150 C 
ATOM     13  C29 NTO d 869     -12.743  19.491 -15.136  0.00  0.00     0.110 C 
ATOM     14  S3B NTO d 869     -15.479  23.621 -17.211  0.00  0.00     0.252 S 
ATOM     15  S4B NTO d 869     -24.072  18.339 -17.477  0.00  0.00     0.252 S 
ATOM     16  O24 NTO d 869     -11.955  24.133 -14.540  0.00  0.00    -0.646 OA
ATOM     17  O45 NTO d 869     -17.210  19.825 -18.268  0.00  0.00    -0.646 OA
ATOM     18  C20 NTO d 869     -11.053  21.069 -14.219  0.00  0.00     0.103 C 
ATOM     19  C1E NTO d 869      -8.106  19.982 -12.567  0.00  0.00     0.081 C 
ATOM     20  O3J NTO d 869     -20.265  25.451 -15.756  0.00  0.00    -0.296 OA
ATOM     21  O38 NTO d 869     -16.584  18.763 -10.388  0.00  0.00    -0.572 OA
ATOM     22  O18 NTO d 869      -5.542  23.734 -17.246  0.00  0.00    -0.572 OA
ATOM     23  C31 NTO d 869     -17.163  19.777 -15.009  0.00  0.00     0.091 C 
ATOM     24  O52 NTO d 869     -22.293  19.297 -23.883  0.00  0.00    -0.349 OA
ATOM     25  C46 NTO d 869     -21.175  19.937 -16.936  0.00  0.00     0.094 C 
ATOM     26  O5M NTO d 869     -22.525  17.067 -24.701  0.00  0.00    -0.364 OA
ATOM     27  O3D NTO d 869     -14.549  24.794 -17.121  0.00  0.00    -0.572 OA
ATOM     28  C51 NTO d 869     -22.666  19.061 -22.515  0.00  0.00     0.091 C 
ATOM     29  C5F NTO d 869     -20.401  17.746 -23.691  0.00  0.00     0.081 C 
ATOM     30  C59 NTO d 869     -20.761  17.505 -22.225  0.00  0.00     0.083 C 
ATOM     31  C21 NTO d 869     -12.215  21.910 -13.715  0.00  0.00     0.152 C 
ATOM     32  C26 NTO d 869     -11.512  19.612 -14.236  0.00  0.00     0.092 C 
ATOM     33  O47 NTO d 869     -21.737  19.657 -15.650  0.00  0.00    -0.390 OA
ATOM     34  O1J NTO d 869      -9.153  16.778 -10.760  0.00  0.00    -0.296 OA
ATOM     35  C5N NTO d 869     -23.241  17.277 -25.922  0.00  0.00     0.007 C 
ATOM     36  O3K NTO d 869     -20.471  23.401 -14.455  0.00  0.00    -0.296 OA
ATOM     37  O5I NTO d 869     -17.337  17.004 -24.500  0.00  0.00    -0.296 OA
ATOM     38  S5H NTO d 869     -18.609  16.902 -25.286  0.00  0.00     0.156 S 
ATOM     39  C39 NTO d 869     -16.702  22.056 -15.937  0.00  0.00     0.108 C 
ATOM     40  C1K NTO d 869      -8.764  20.593 -13.805  0.00  0.00     0.150 C 
ATOM     41  C2C NTO d 869     -13.840  20.459 -14.684  0.00  0.00     0.160 C 
ATOM     42  O19 NTO d 869      -5.416  25.624 -15.689  0.00  0.00    -0.572 OA
ATOM     43  N5G NTO d 869     -19.832  16.523 -24.275  0.00  0.00    -0.210 NA
ATOM     44  C33 NTO d 869     -16.649  18.712 -14.036  0.00  0.00     0.067 C 
ATOM     45  O2D NTO d 869     -14.925  20.398 -15.625  0.00  0.00    -0.348 OA
ATOM     46  C12 NTO d 869      -6.991  22.195 -12.212  0.00  0.00     0.089 C 
ATOM     47  C49 NTO d 869     -21.926  19.139 -18.002  0.00  0.00     0.134 C 
ATOM     48  C53 NTO d 869     -23.317  20.345 -21.996  0.00  0.00     0.067 C 
ATOM     49  O4D NTO d 869     -23.903  18.227 -15.990  0.00  0.00    -0.572 OA
ATOM     50  O3I NTO d 869     -21.166  23.429 -16.807  0.00  0.00    -0.296 OA
ATOM     51  O10 NTO d 869      -6.925  23.312 -11.322  0.00  0.00    -0.390 OA
ATOM     52  O1A NTO d 869      -7.216  25.513 -17.351  0.00  0.00    -0.572 OA
ATOM     53  O5K NTO d 869     -18.472  15.840 -26.336  0.00  0.00    -0.296 OA
ATOM     54  O16 NTO d 869      -7.166  23.996 -15.509  0.00  0.00    -0.254 OA
ATOM     55  O56 NTO d 869     -22.176  23.194 -20.521  0.00  0.00    -0.572 OA
ATOM     56  C43 NTO d 869     -17.850  18.755 -18.375  0.00  0.00     0.206 C 
ATOM     57  O54 NTO d 869     -22.429  21.453 -22.157  0.00  0.00    -0.254 OA
ATOM     58  S55 NTO d 869     -22.838  22.779 -21.801  0.00  0.00     0.251 S 
ATOM     59  O5A NTO d 869     -19.567  17.268 -21.471  0.00  0.00    -0.391 OA
ATOM     60  O4G NTO d 869     -21.839  18.460 -20.308  0.00  0.00    -0.348 OA
ATOM     61  O3C NTO d 869     -16.723  24.039 -17.936  0.00  0.00    -0.572 OA
ATOM     62  O3M NTO d 869     -18.917  20.716 -16.822  0.00  0.00    -0.348 OA
ATOM     63  O44 NTO d 869     -17.311  17.635 -18.574  0.00  0.00    -0.646 OA
ATOM     64  C23 NTO d 869     -11.735  23.348 -13.587  0.00  0.00     0.206 C 
ATOM     65  C41 NTO d 869     -19.364  18.811 -18.245  0.00  0.00     0.152 C 
ATOM     66  O22 NTO d 869     -13.342  21.805 -14.604  0.00  0.00    -0.340 OA
ATOM     67  O1C NTO d 869      -7.123  20.560 -10.434  0.00  0.00    -0.391 OA
ATOM     68  C15 NTO d 869      -6.653  23.599 -14.236  0.00  0.00     0.067 C 
ATOM     69  N3G NTO d 869     -18.664  23.522 -16.280  0.00  0.00    -0.210 NA
ATOM     70  C40 NTO d 869     -19.704  19.526 -16.945  0.00  0.00     0.103 C 
ATOM     71  S1G NTO d 869      -8.200  17.748 -11.394  0.00  0.00     0.156 S 
ATOM     72  O1L NTO d 869      -9.939  21.271 -13.338  0.00  0.00    -0.348 OA
ATOM     73  O57 NTO d 869     -24.326  22.805 -21.620  0.00  0.00    -0.572 OA
ATOM     74  O34 NTO d 869     -16.454  19.250 -12.724  0.00  0.00    -0.254 OA
ATOM     75  O1H NTO d 869      -7.212  18.235 -10.377  0.00  0.00    -0.296 OA
ATOM     76  O27 NTO d 869     -10.470  18.778 -14.750  0.00  0.00    -0.390 OA
ATOM     77  C50 NTO d 869     -21.449  18.747 -21.659  0.00  0.00     0.095 C 
ATOM     78  O3E NTO d 869     -14.814  22.512 -17.973  0.00  0.00    -0.572 OA
ATOM     79  O25 NTO d 869     -11.127  23.669 -12.539  0.00  0.00    -0.646 OA
ATOM     80  S3H NTO d 869     -20.169  23.955 -15.816  0.00  0.00     0.156 S 
ATOM     81  S35 NTO d 869     -15.889  18.448 -11.678  0.00  0.00     0.251 S 
ATOM     82  O1I NTO d 869      -7.475  17.072 -12.521  0.00  0.00    -0.296 OA
ATOM     83  C13 NTO d 869      -7.624  22.650 -13.528  0.00  0.00     0.090 C 
ATOM     84  O58 NTO d 869     -22.447  23.722 -22.898  0.00  0.00    -0.572 OA
ATOM     85  O3A NTO d 869     -15.813  23.179 -15.891  0.00  0.00    -0.247 OA
ATOM     86  C1B NTO d 869      -7.830  21.095 -11.555  0.00  0.00     0.083 C 
ATOM     87  O4C NTO d 869     -23.592  17.080 -18.138  0.00  0.00    -0.572 OA
ATOM     88  O4E NTO d 869     -25.517  18.552 -17.811  0.00  0.00    -0.572 OA
ATOM     89  O36 NTO d 869     -14.427  18.749 -11.538  0.00  0.00    -0.572 OA
ATOM     90  O2A NTO d 869     -13.236  18.151 -15.086  0.00  0.00    -0.388 OA
ATOM     91  C30 NTO d 869     -16.150  20.912 -15.080  0.00  0.00     0.096 C 
ATOM     92  H   NTO d 869     -18.018  22.841 -14.435  0.00  0.00     0.076 H 
ATOM     93  H   NTO d 869     -21.307  18.493 -25.454  0.00  0.00     0.131 H 
ATOM     94  H   NTO d 869     -21.688  20.415 -19.711  0.00  0.00     0.133 H 
ATOM     95  H   NTO d 869      -9.690  18.690 -12.698  0.00  0.00     0.140 HD
ATOM     96  H   NTO d 869     -18.158  18.432 -26.558  0.00  0.00     0.231 HD
ATOM     97  H   NTO d 869     -19.989  21.444 -15.205  0.00  0.00     0.131 H 
ATOM     98  H   NTO d 869     -12.463  19.738 -16.139  0.00  0.00     0.094 H 
ATOM     99  H   NTO d 869     -10.747  21.344 -15.207  0.00  0.00     0.092 H 
ATOM    100  H   NTO d 869      -7.188  19.498 -12.827  0.00  0.00     0.076 H 
ATOM    101  H   NTO d 869     -21.159  25.707 -15.480  0.00  0.00     0.231 HD
ATOM    102  H   NTO d 869     -17.279  19.367 -15.990  0.00  0.00     0.090 H 
ATOM    103  H   NTO d 869     -21.258  20.983 -17.143  0.00  0.00     0.091 H 
ATOM    104  H   NTO d 869     -23.333  18.226 -22.464  0.00  0.00     0.090 H 
ATOM    105  H   NTO d 869     -19.677  18.533 -23.737  0.00  0.00     0.076 H 
ATOM    106  H   NTO d 869     -21.412  16.659 -22.159  0.00  0.00     0.089 H 
ATOM    107  H   NTO d 869     -12.544  21.558 -12.760  0.00  0.00     0.104 H 
ATOM    108  H   NTO d 869     -11.751  19.303 -13.240  0.00  0.00     0.091 H 
ATOM    109  H   NTO d 869     -21.660  18.708 -15.464  0.00  0.00     0.210 HD
ATOM    110  H   NTO d 869      -9.621  17.214 -10.032  0.00  0.00     0.231 HD
ATOM    111  H   NTO d 869     -23.908  16.457 -26.090  0.00  0.00     0.066 H 
ATOM    112  H   NTO d 869     -22.549  17.346 -26.734  0.00  0.00     0.066 H 
ATOM    113  H   NTO d 869     -23.803  18.186 -25.854  0.00  0.00     0.066 H 
ATOM    114  H   NTO d 869     -21.366  23.664 -14.190  0.00  0.00     0.231 HD
ATOM    115  H   NTO d 869     -16.606  17.230 -25.097  0.00  0.00     0.231 HD
ATOM    116  H   NTO d 869     -16.784  21.725 -16.951  0.00  0.00     0.092 H 
ATOM    117  H   NTO d 869      -9.014  19.855 -14.538  0.00  0.00     0.131 H 
ATOM    118  H   NTO d 869     -14.175  20.174 -13.709  0.00  0.00     0.133 H 
ATOM    119  H   NTO d 869     -20.557  16.027 -24.793  0.00  0.00     0.140 HD
ATOM    120  H   NTO d 869     -15.716  18.333 -14.398  0.00  0.00     0.080 H 
ATOM    121  H   NTO d 869     -17.380  17.933 -13.974  0.00  0.00     0.080 H 
ATOM    122  H   NTO d 869      -6.014  21.810 -12.415  0.00  0.00     0.091 H 
ATOM    123  H   NTO d 869     -21.802  18.094 -17.802  0.00  0.00     0.097 H 
ATOM    124  H   NTO d 869     -23.549  20.228 -20.958  0.00  0.00     0.080 H 
ATOM    125  H   NTO d 869     -24.210  20.533 -22.554  0.00  0.00     0.080 H 
ATOM    126  H   NTO d 869     -22.060  23.685 -16.533  0.00  0.00     0.231 HD
ATOM    127  H   NTO d 869      -7.820  23.644 -11.153  0.00  0.00     0.210 HD
ATOM    128  H   NTO d 869     -17.744  16.069 -26.935  0.00  0.00     0.231 HD
ATOM    129  H   NTO d 869     -18.985  18.040 -21.537  0.00  0.00     0.210 HD
ATOM    130  H   NTO d 869     -19.774  17.823 -18.236  0.00  0.00     0.104 H 
ATOM    131  H   NTO d 869      -7.655  19.863 -10.018  0.00  0.00     0.210 HD
ATOM    132  H   NTO d 869      -6.508  24.468 -13.630  0.00  0.00     0.080 H 
ATOM    133  H   NTO d 869      -5.724  23.088 -14.386  0.00  0.00     0.080 H 
ATOM    134  H   NTO d 869     -18.704  23.186 -17.243  0.00  0.00     0.140 HD
ATOM    135  H   NTO d 869     -19.503  18.856 -16.136  0.00  0.00     0.092 H 
ATOM    136  H   NTO d 869      -7.685  18.671  -9.651  0.00  0.00     0.231 HD
ATOM    137  H   NTO d 869     -10.249  19.055 -15.653  0.00  0.00     0.210 HD
ATOM    138  H   NTO d 869     -20.795  19.594 -21.669  0.00  0.00     0.091 H 
ATOM    139  H   NTO d 869      -8.117  16.758 -13.177  0.00  0.00     0.231 HD
ATOM    140  H   NTO d 869      -8.556  23.129 -13.310  0.00  0.00     0.090 H 
ATOM    141  H   NTO d 869      -8.760  21.508 -11.225  0.00  0.00     0.089 H 
ATOM    142  H   NTO d 869     -13.488  17.933 -14.175  0.00  0.00     0.210 HD
ATOM    143  H   NTO d 869     -15.961  21.303 -14.102  0.00  0.00     0.091 H 
ENDROOT
TORSDOF 46
ENDMDL
MODEL 55
REMARK VINA RESULT:      -5.4      3.361      6.329
REMARK  0 active torsions:
REMARK  status: ('A' for Active; 'I' for Inactive)
REMARK       I    between atoms: O4A_2  and  C49_47 
REMARK       I    between atoms: O4A_2  and  S4B_15 
REMARK       I    between atoms: C3F_4  and  N3G_69 
REMARK       I    between atoms: S17_5  and  O16_54 
REMARK       I    between atoms: C5L_6  and  O5M_26 
REMARK       I    between atoms: C4F_7  and  O4G_60 
REMARK       I    between atoms: N1F_9  and  C1E_19 
REMARK       I    between atoms: N1F_9  and  S1G_71 
REMARK       I    between atoms: O5J_11  and  S5H_38 
REMARK       I    between atoms: C3L_12  and  O3M_62 
REMARK       I    between atoms: C29_13  and  O2A_90 
REMARK       I    between atoms: S3B_14  and  O3A_85 
REMARK       I    between atoms: C20_18  and  O1L_72 
REMARK       I    between atoms: O3J_20  and  S3H_80 
REMARK       I    between atoms: C31_23  and  C33_44 
REMARK       I    between atoms: C46_25  and  O47_33 
REMARK       I    between atoms: O5M_26  and  C5N_35 
REMARK       I    between atoms: C51_28  and  C53_48 
REMARK       I    between atoms: C5F_29  and  N5G_43 
REMARK       I    between atoms: C59_30  and  O5A_59 
REMARK       I    between atoms: C21_31  and  C23_64 
REMARK       I    between atoms: C26_32  and  O27_76 
REMARK       I    between atoms: O1J_34  and  S1G_71 
REMARK       I    between atoms: O3K_36  and  S3H_80 
REMARK       I    between atoms: O5I_37  and  S5H_38 
REMARK       I    between atoms: S5H_38  and  O5K_53 
REMARK       I    between atoms: S5H_38  and  N5G_43 
REMARK       I    between atoms: C39_39  and  O3A_85 
REMARK       I    between atoms: C1K_40  and  O1L_72 
REMARK       I    between atoms: C2C_41  and  O2D_45 
REMARK       I    between atoms: C33_44  and  O34_74 
REMARK       I    between atoms: O2D_45  and  C30_91 
REMARK       I    between atoms: C12_46  and  O10_51 
REMARK       I    between atoms: C53_48  and  O54_57 
REMARK       I    between atoms: O3I_50  and  S3H_80 
REMARK       I    between atoms: O16_54  and  C15_68 
REMARK       I    between atoms: C43_56  and  C41_65 
REMARK       I    between atoms: O54_57  and  S55_58 
REMARK       I    between atoms: O4G_60  and  C50_77 
REMARK       I    between atoms: O3M_62  and  C40_70 
REMARK       I    between atoms: O1C_67  and  C1B_86 
REMARK       I    between atoms: C15_68  and  C13_83 
REMARK       I    between atoms: N3G_69  and  S3H_80 
REMARK       I    between atoms: S1G_71  and  O1H_75 
REMARK       I    between atoms: S1G_71  and  O1I_82 
REMARK       I    between atoms: O34_74  and  S35_81 
ROOT
ATOM      1  O42 NTO d 869     -21.021  17.828 -18.429  0.00  0.00    -0.340 OA
ATOM      2  O4A NTO d 869     -22.559  18.494 -15.158  0.00  0.00    -0.244 OA
ATOM      3  O32 NTO d 869     -16.752  19.453 -16.241  0.00  0.00    -0.349 OA
ATOM      4  C3F NTO d 869     -17.225  21.354 -17.641  0.00  0.00     0.083 C 
ATOM      5  S17 NTO d 869      -9.448  21.887 -26.768  0.00  0.00     0.251 S 
ATOM      6  C5L NTO d 869     -25.646  15.547 -20.529  0.00  0.00     0.149 C 
ATOM      7  C4F NTO d 869     -22.084  17.926 -17.469  0.00  0.00     0.161 C 
ATOM      8  O14 NTO d 869      -8.954  19.468 -23.535  0.00  0.00    -0.349 OA
ATOM      9  N1F NTO d 869      -8.013  17.739 -20.418  0.00  0.00    -0.210 NA
ATOM     10  O37 NTO d 869     -13.041  16.625 -15.231  0.00  0.00    -0.572 OA
ATOM     11  O5J NTO d 869     -24.629  14.920 -23.407  0.00  0.00    -0.296 OA
ATOM     12  C3L NTO d 869     -17.823  20.252 -16.768  0.00  0.00     0.150 C 
ATOM     13  C29 NTO d 869     -12.895  17.915 -20.268  0.00  0.00     0.110 C 
ATOM     14  S3B NTO d 869     -16.596  21.751 -20.922  0.00  0.00     0.252 S 
ATOM     15  S4B NTO d 869     -22.704  17.619 -14.035  0.00  0.00     0.252 S 
ATOM     16  O24 NTO d 869     -12.241  22.440 -21.540  0.00  0.00    -0.646 OA
ATOM     17  O45 NTO d 869     -18.311  18.050 -19.554  0.00  0.00    -0.646 OA
ATOM     18  C20 NTO d 869     -11.146  19.448 -21.152  0.00  0.00     0.103 C 
ATOM     19  C1E NTO d 869      -7.792  18.427 -21.696  0.00  0.00     0.081 C 
ATOM     20  O3J NTO d 869     -19.251  24.428 -17.159  0.00  0.00    -0.296 OA
ATOM     21  O38 NTO d 869     -12.449  18.769 -14.193  0.00  0.00    -0.572 OA
ATOM     22  O18 NTO d 869      -9.340  20.662 -27.625  0.00  0.00    -0.572 OA
ATOM     23  C31 NTO d 869     -16.070  18.750 -17.292  0.00  0.00     0.091 C 
ATOM     24  O52 NTO d 869     -25.798  16.853 -19.947  0.00  0.00    -0.349 OA
ATOM     25  C46 NTO d 869     -20.326  18.940 -15.996  0.00  0.00     0.094 C 
ATOM     26  O5M NTO d 869     -26.364  14.539 -19.807  0.00  0.00    -0.364 OA
ATOM     27  O3D NTO d 869     -15.936  22.793 -21.775  0.00  0.00    -0.572 OA
ATOM     28  C51 NTO d 869     -25.131  16.985 -18.682  0.00  0.00     0.091 C 
ATOM     29  C5F NTO d 869     -24.172  15.173 -20.692  0.00  0.00     0.081 C 
ATOM     30  C59 NTO d 869     -23.427  15.322 -19.364  0.00  0.00     0.083 C 
ATOM     31  C21 NTO d 869     -11.718  20.516 -20.232  0.00  0.00     0.152 C 
ATOM     32  C26 NTO d 869     -11.391  18.092 -20.492  0.00  0.00     0.092 C 
ATOM     33  O47 NTO d 869     -19.850  19.034 -14.650  0.00  0.00    -0.390 OA
ATOM     34  O1J NTO d 869      -7.111  15.875 -18.930  0.00  0.00    -0.296 OA
ATOM     35  C5N NTO d 869     -27.730  14.545 -20.234  0.00  0.00     0.007 C 
ATOM     36  O3K NTO d 869     -18.377  22.774 -15.598  0.00  0.00    -0.296 OA
ATOM     37  O5I NTO d 869     -22.419  13.902 -23.122  0.00  0.00    -0.296 OA
ATOM     38  S5H NTO d 869     -23.877  13.775 -22.795  0.00  0.00     0.156 S 
ATOM     39  C39 NTO d 869     -16.521  20.681 -18.820  0.00  0.00     0.108 C 
ATOM     40  C1K NTO d 869      -9.154  18.810 -22.275  0.00  0.00     0.150 C 
ATOM     41  C2C NTO d 869     -13.461  19.085 -19.460  0.00  0.00     0.160 C 
ATOM     42  O19 NTO d 869      -8.328  22.831 -27.092  0.00  0.00    -0.572 OA
ATOM     43  N5G NTO d 869     -24.063  13.788 -21.175  0.00  0.00    -0.210 NA
ATOM     44  C33 NTO d 869     -14.960  17.885 -16.689  0.00  0.00     0.067 C 
ATOM     45  O2D NTO d 869     -14.889  18.939 -19.376  0.00  0.00    -0.348 OA
ATOM     46  C12 NTO d 869      -6.890  20.512 -22.747  0.00  0.00     0.089 C 
ATOM     47  C49 NTO d 869     -21.541  18.013 -16.039  0.00  0.00     0.134 C 
ATOM     48  C53 NTO d 869     -25.347  18.423 -18.205  0.00  0.00     0.067 C 
ATOM     49  O4D NTO d 869     -21.567  17.834 -13.080  0.00  0.00    -0.572 OA
ATOM     50  O3I NTO d 869     -20.479  22.341 -16.786  0.00  0.00    -0.296 OA
ATOM     51  O10 NTO d 869      -6.319  21.788 -22.449  0.00  0.00    -0.390 OA
ATOM     52  O1A NTO d 869     -10.764  22.556 -27.024  0.00  0.00    -0.572 OA
ATOM     53  O5K NTO d 869     -24.411  12.490 -23.356  0.00  0.00    -0.296 OA
ATOM     54  O16 NTO d 869      -9.375  21.511 -25.388  0.00  0.00    -0.254 OA
ATOM     55  O56 NTO d 869     -23.715  21.378 -18.649  0.00  0.00    -0.572 OA
ATOM     56  C43 NTO d 869     -18.777  17.068 -18.932  0.00  0.00     0.206 C 
ATOM     57  O54 NTO d 869     -24.883  19.349 -19.189  0.00  0.00    -0.254 OA
ATOM     58  S55 NTO d 869     -25.036  20.760 -18.998  0.00  0.00     0.251 S 
ATOM     59  O5A NTO d 869     -22.025  15.123 -19.576  0.00  0.00    -0.391 OA
ATOM     60  O4G NTO d 869     -22.989  16.815 -17.541  0.00  0.00    -0.348 OA
ATOM     61  O3C NTO d 869     -18.028  22.137 -20.701  0.00  0.00    -0.572 OA
ATOM     62  O3M NTO d 869     -18.648  19.448 -17.622  0.00  0.00    -0.348 OA
ATOM     63  O44 NTO d 869     -18.438  15.876 -19.151  0.00  0.00    -0.646 OA
ATOM     64  C23 NTO d 869     -11.380  21.876 -20.824  0.00  0.00     0.206 C 
ATOM     65  C41 NTO d 869     -19.804  17.334 -17.842  0.00  0.00     0.152 C 
ATOM     66  O22 NTO d 869     -13.137  20.343 -20.074  0.00  0.00    -0.340 OA
ATOM     67  O1C NTO d 869      -5.669  19.359 -21.006  0.00  0.00    -0.391 OA
ATOM     68  C15 NTO d 869      -8.110  21.359 -24.742  0.00  0.00     0.067 C 
ATOM     69  N3G NTO d 869     -18.295  22.252 -18.114  0.00  0.00    -0.210 NA
ATOM     70  C40 NTO d 869     -19.225  18.365 -16.884  0.00  0.00     0.103 C 
ATOM     71  S1G NTO d 869      -6.910  16.551 -20.254  0.00  0.00     0.156 S 
ATOM     72  O1L NTO d 869      -9.748  19.713 -21.331  0.00  0.00    -0.348 OA
ATOM     73  O57 NTO d 869     -26.008  21.006 -17.882  0.00  0.00    -0.572 OA
ATOM     74  O34 NTO d 869     -13.968  18.683 -16.036  0.00  0.00    -0.254 OA
ATOM     75  O1H NTO d 869      -5.532  17.138 -20.325  0.00  0.00    -0.296 OA
ATOM     76  O27 NTO d 869     -10.916  17.043 -21.340  0.00  0.00    -0.390 OA
ATOM     77  C50 NTO d 869     -23.637  16.733 -18.819  0.00  0.00     0.095 C 
ATOM     78  O3E NTO d 869     -16.545  20.425 -21.622  0.00  0.00    -0.572 OA
ATOM     79  O25 NTO d 869     -10.248  22.355 -20.578  0.00  0.00    -0.646 OA
ATOM     80  S3H NTO d 869     -19.115  22.958 -16.891  0.00  0.00     0.156 S 
ATOM     81  S35 NTO d 869     -12.790  18.083 -15.482  0.00  0.00     0.251 S 
ATOM     82  O1I NTO d 869      -7.092  15.551 -21.358  0.00  0.00    -0.296 OA
ATOM     83  C13 NTO d 869      -8.277  20.723 -23.359  0.00  0.00     0.090 C 
ATOM     84  O58 NTO d 869     -25.558  21.371 -20.263  0.00  0.00    -0.572 OA
ATOM     85  O3A NTO d 869     -15.917  21.669 -19.664  0.00  0.00    -0.247 OA
ATOM     86  C1B NTO d 869      -6.983  19.701 -21.452  0.00  0.00     0.083 C 
ATOM     87  O4C NTO d 869     -22.710  16.194 -14.504  0.00  0.00    -0.572 OA
ATOM     88  O4E NTO d 869     -24.005  17.921 -13.355  0.00  0.00    -0.572 OA
ATOM     89  O36 NTO d 869     -11.644  18.231 -16.437  0.00  0.00    -0.572 OA
ATOM     90  O2A NTO d 869     -13.127  16.692 -19.567  0.00  0.00    -0.388 OA
ATOM     91  C30 NTO d 869     -15.455  19.708 -18.304  0.00  0.00     0.096 C 
ATOM     92  H   NTO d 869     -16.525  21.944 -17.086  0.00  0.00     0.076 H 
ATOM     93  H   NTO d 869     -26.081  15.596 -21.505  0.00  0.00     0.131 H 
ATOM     94  H   NTO d 869     -22.613  18.823 -17.714  0.00  0.00     0.133 H 
ATOM     95  H   NTO d 869      -8.951  17.338 -20.404  0.00  0.00     0.140 HD
ATOM     96  H   NTO d 869     -24.514  14.905 -24.370  0.00  0.00     0.231 HD
ATOM     97  H   NTO d 869     -18.393  20.653 -15.956  0.00  0.00     0.131 H 
ATOM     98  H   NTO d 869     -13.384  17.888 -21.219  0.00  0.00     0.094 H 
ATOM     99  H   NTO d 869     -11.609  19.449 -22.117  0.00  0.00     0.092 H 
ATOM    100  H   NTO d 869      -7.260  17.789 -22.371  0.00  0.00     0.076 H 
ATOM    101  H   NTO d 869     -19.738  24.846 -16.432  0.00  0.00     0.231 HD
ATOM    102  H   NTO d 869     -16.790  18.142 -17.799  0.00  0.00     0.090 H 
ATOM    103  H   NTO d 869     -20.601  19.913 -16.346  0.00  0.00     0.091 H 
ATOM    104  H   NTO d 869     -25.526  16.271 -17.990  0.00  0.00     0.090 H 
ATOM    105  H   NTO d 869     -23.728  15.835 -21.405  0.00  0.00     0.076 H 
ATOM    106  H   NTO d 869     -23.800  14.598 -18.671  0.00  0.00     0.089 H 
ATOM    107  H   NTO d 869     -11.288  20.435 -19.255  0.00  0.00     0.104 H 
ATOM    108  H   NTO d 869     -10.871  18.052 -19.557  0.00  0.00     0.091 H 
ATOM    109  H   NTO d 869     -19.600  18.152 -14.333  0.00  0.00     0.210 HD
ATOM    110  H   NTO d 869      -6.993  16.521 -18.216  0.00  0.00     0.231 HD
ATOM    111  H   NTO d 869     -28.274  13.795 -19.700  0.00  0.00     0.066 H 
ATOM    112  H   NTO d 869     -27.776  14.341 -21.283  0.00  0.00     0.066 H 
ATOM    113  H   NTO d 869     -28.160  15.505 -20.038  0.00  0.00     0.066 H 
ATOM    114  H   NTO d 869     -18.873  23.196 -14.880  0.00  0.00     0.231 HD
ATOM    115  H   NTO d 869     -22.303  13.895 -24.086  0.00  0.00     0.231 HD
ATOM    116  H   NTO d 869     -17.243  20.137 -19.392  0.00  0.00     0.092 H 
ATOM    117  H   NTO d 869      -9.781  17.958 -22.436  0.00  0.00     0.131 H 
ATOM    118  H   NTO d 869     -13.028  19.075 -18.482  0.00  0.00     0.133 H 
ATOM    119  H   NTO d 869     -24.909  13.277 -20.928  0.00  0.00     0.140 HD
ATOM    120  H   NTO d 869     -14.494  17.323 -17.471  0.00  0.00     0.080 H 
ATOM    121  H   NTO d 869     -15.399  17.234 -15.962  0.00  0.00     0.080 H 
ATOM    122  H   NTO d 869      -6.283  19.976 -23.447  0.00  0.00     0.091 H 
ATOM    123  H   NTO d 869     -21.242  17.036 -15.721  0.00  0.00     0.097 H 
ATOM    124  H   NTO d 869     -24.808  18.577 -17.294  0.00  0.00     0.080 H 
ATOM    125  H   NTO d 869     -26.393  18.583 -18.044  0.00  0.00     0.080 H 
ATOM    126  H   NTO d 869     -20.968  22.759 -16.059  0.00  0.00     0.231 HD
ATOM    127  H   NTO d 869      -6.884  22.254 -21.814  0.00  0.00     0.210 HD
ATOM    128  H   NTO d 869     -24.299  12.487 -24.319  0.00  0.00     0.231 HD
ATOM    129  H   NTO d 869     -21.697  15.784 -20.205  0.00  0.00     0.210 HD
ATOM    130  H   NTO d 869     -20.028  16.431 -17.313  0.00  0.00     0.104 H 
ATOM    131  H   NTO d 869      -5.729  18.846 -20.185  0.00  0.00     0.210 HD
ATOM    132  H   NTO d 869      -7.655  22.321 -24.632  0.00  0.00     0.080 H 
ATOM    133  H   NTO d 869      -7.494  20.721 -25.341  0.00  0.00     0.080 H 
ATOM    134  H   NTO d 869     -18.951  21.710 -18.677  0.00  0.00     0.140 HD
ATOM    135  H   NTO d 869     -18.483  17.881 -16.284  0.00  0.00     0.092 H 
ATOM    136  H   NTO d 869      -5.418  17.783 -19.609  0.00  0.00     0.231 HD
ATOM    137  H   NTO d 869     -11.385  17.075 -22.189  0.00  0.00     0.210 HD
ATOM    138  H   NTO d 869     -23.224  17.471 -19.475  0.00  0.00     0.091 H 
ATOM    139  H   NTO d 869      -7.984  15.174 -21.308  0.00  0.00     0.231 HD
ATOM    140  H   NTO d 869      -8.846  21.347 -22.703  0.00  0.00     0.090 H 
ATOM    141  H   NTO d 869      -7.471  20.288 -20.702  0.00  0.00     0.089 H 
ATOM    142  H   NTO d 869     -12.681  16.722 -18.707  0.00  0.00     0.210 HD
ATOM    143  H   NTO d 869     -14.683  20.289 -17.844  0.00  0.00     0.091 H 
ENDROOT
TORSDOF 46
ENDMDL
MODEL 56
REMARK VINA RESULT:      -5.4      3.886      5.195
REMARK  0 active torsions:
REMARK  status: ('A' for Active; 'I' for Inactive)
REMARK       I    between atoms: O4A_2  and  C49_47 
REMARK       I    between atoms: O4A_2  and  S4B_15 
REMARK       I    between atoms: C3F_4  and  N3G_69 
REMARK       I    between atoms: S17_5  and  O16_54 
REMARK       I    between atoms: C5L_6  and  O5M_26 
REMARK       I    between atoms: C4F_7  and  O4G_60 
REMARK       I    between atoms: N1F_9  and  C1E_19 
REMARK       I    between atoms: N1F_9  and  S1G_71 
REMARK       I    between atoms: O5J_11  and  S5H_38 
REMARK       I    between atoms: C3L_12  and  O3M_62 
REMARK       I    between atoms: C29_13  and  O2A_90 
REMARK       I    between atoms: S3B_14  and  O3A_85 
REMARK       I    between atoms: C20_18  and  O1L_72 
REMARK       I    between atoms: O3J_20  and  S3H_80 
REMARK       I    between atoms: C31_23  and  C33_44 
REMARK       I    between atoms: C46_25  and  O47_33 
REMARK       I    between atoms: O5M_26  and  C5N_35 
REMARK       I    between atoms: C51_28  and  C53_48 
REMARK       I    between atoms: C5F_29  and  N5G_43 
REMARK       I    between atoms: C59_30  and  O5A_59 
REMARK       I    between atoms: C21_31  and  C23_64 
REMARK       I    between atoms: C26_32  and  O27_76 
REMARK       I    between atoms: O1J_34  and  S1G_71 
REMARK       I    between atoms: O3K_36  and  S3H_80 
REMARK       I    between atoms: O5I_37  and  S5H_38 
REMARK       I    between atoms: S5H_38  and  O5K_53 
REMARK       I    between atoms: S5H_38  and  N5G_43 
REMARK       I    between atoms: C39_39  and  O3A_85 
REMARK       I    between atoms: C1K_40  and  O1L_72 
REMARK       I    between atoms: C2C_41  and  O2D_45 
REMARK       I    between atoms: C33_44  and  O34_74 
REMARK       I    between atoms: O2D_45  and  C30_91 
REMARK       I    between atoms: C12_46  and  O10_51 
REMARK       I    between atoms: C53_48  and  O54_57 
REMARK       I    between atoms: O3I_50  and  S3H_80 
REMARK       I    between atoms: O16_54  and  C15_68 
REMARK       I    between atoms: C43_56  and  C41_65 
REMARK       I    between atoms: O54_57  and  S55_58 
REMARK       I    between atoms: O4G_60  and  C50_77 
REMARK       I    between atoms: O3M_62  and  C40_70 
REMARK       I    between atoms: O1C_67  and  C1B_86 
REMARK       I    between atoms: C15_68  and  C13_83 
REMARK       I    between atoms: N3G_69  and  S3H_80 
REMARK       I    between atoms: S1G_71  and  O1H_75 
REMARK       I    between atoms: S1G_71  and  O1I_82 
REMARK       I    between atoms: O34_74  and  S35_81 
ROOT
ATOM      1  O42 NTO d 869     -20.445  18.149 -14.184  0.00  0.00    -0.340 OA
ATOM      2  O4A NTO d 869     -23.125  20.664 -14.123  0.00  0.00    -0.244 OA
ATOM      3  O32 NTO d 869     -17.380  22.101 -14.991  0.00  0.00    -0.349 OA
ATOM      4  C3F NTO d 869     -17.370  21.137 -17.197  0.00  0.00     0.083 C 
ATOM      5  S17 NTO d 869      -6.762  16.009 -19.490  0.00  0.00     0.251 S 
ATOM      6  C5L NTO d 869     -23.846  13.983 -12.740  0.00  0.00     0.149 C 
ATOM      7  C4F NTO d 869     -21.793  18.635 -14.105  0.00  0.00     0.161 C 
ATOM      8  O14 NTO d 869      -7.421  18.494 -16.336  0.00  0.00    -0.349 OA
ATOM      9  N1F NTO d 869      -7.650  21.210 -13.854  0.00  0.00    -0.210 NA
ATOM     10  O37 NTO d 869     -14.209  23.698 -11.801  0.00  0.00    -0.572 OA
ATOM     11  O5J NTO d 869     -21.797  11.635 -12.772  0.00  0.00    -0.296 OA
ATOM     12  C3L NTO d 869     -18.206  21.424 -15.952  0.00  0.00     0.150 C 
ATOM     13  C29 NTO d 869     -12.234  19.563 -14.260  0.00  0.00     0.110 C 
ATOM     14  S3B NTO d 869     -15.570  18.535 -18.341  0.00  0.00     0.252 S 
ATOM     15  S4B NTO d 869     -23.645  21.400 -13.012  0.00  0.00     0.252 S 
ATOM     16  O24 NTO d 869     -11.335  19.778 -18.915  0.00  0.00    -0.646 OA
ATOM     17  O45 NTO d 869     -17.523  18.210 -14.520  0.00  0.00    -0.646 OA
ATOM     18  C20 NTO d 869     -10.345  19.801 -15.862  0.00  0.00     0.103 C 
ATOM     19  C1E NTO d 869      -6.993  20.319 -14.817  0.00  0.00     0.081 C 
ATOM     20  O3J NTO d 869     -19.551  21.564 -20.171  0.00  0.00    -0.296 OA
ATOM     21  O38 NTO d 869     -14.138  25.373 -13.592  0.00  0.00    -0.572 OA
ATOM     22  O18 NTO d 869      -6.290  14.983 -18.504  0.00  0.00    -0.572 OA
ATOM     23  C31 NTO d 869     -16.326  21.243 -14.526  0.00  0.00     0.091 C 
ATOM     24  O52 NTO d 869     -24.257  14.767 -13.872  0.00  0.00    -0.349 OA
ATOM     25  C46 NTO d 869     -20.761  20.858 -14.634  0.00  0.00     0.094 C 
ATOM     26  O5M NTO d 869     -24.740  14.114 -11.628  0.00  0.00    -0.364 OA
ATOM     27  O3D NTO d 869     -14.681  18.273 -19.520  0.00  0.00    -0.572 OA
ATOM     28  C51 NTO d 869     -24.121  16.181 -13.658  0.00  0.00     0.091 C 
ATOM     29  C5F NTO d 869     -22.404  14.297 -12.335  0.00  0.00     0.081 C 
ATOM     30  C59 NTO d 869     -22.219  15.799 -12.116  0.00  0.00     0.083 C 
ATOM     31  C21 NTO d 869     -11.263  20.672 -16.705  0.00  0.00     0.152 C 
ATOM     32  C26 NTO d 869     -10.765  19.968 -14.402  0.00  0.00     0.092 C 
ATOM     33  O47 NTO d 869     -20.829  22.264 -14.373  0.00  0.00    -0.390 OA
ATOM     34  O1J NTO d 869      -7.299  22.422 -11.638  0.00  0.00    -0.296 OA
ATOM     35  C5N NTO d 869     -25.844  13.223 -11.814  0.00  0.00     0.007 C 
ATOM     36  O3K NTO d 869     -19.262  22.882 -18.142  0.00  0.00    -0.296 OA
ATOM     37  O5I NTO d 869     -19.817  12.466 -11.595  0.00  0.00    -0.296 OA
ATOM     38  S5H NTO d 869     -21.284  12.183 -11.474  0.00  0.00     0.156 S 
ATOM     39  C39 NTO d 869     -16.247  20.180 -16.792  0.00  0.00     0.108 C 
ATOM     40  C1K NTO d 869      -8.053  19.385 -15.404  0.00  0.00     0.150 C 
ATOM     41  C2C NTO d 869     -13.110  20.361 -15.230  0.00  0.00     0.160 C 
ATOM     42  O19 NTO d 869      -5.642  16.369 -20.420  0.00  0.00    -0.572 OA
ATOM     43  N5G NTO d 869     -22.065  13.567 -11.105  0.00  0.00    -0.210 NA
ATOM     44  C33 NTO d 869     -15.489  21.985 -13.480  0.00  0.00     0.067 C 
ATOM     45  O2D NTO d 869     -14.457  19.866 -15.148  0.00  0.00    -0.348 OA
ATOM     46  C12 NTO d 869      -5.848  20.225 -17.041  0.00  0.00     0.089 C 
ATOM     47  C49 NTO d 869     -21.832  20.138 -13.814  0.00  0.00     0.134 C 
ATOM     48  C53 NTO d 869     -24.559  16.879 -14.947  0.00  0.00     0.067 C 
ATOM     49  O4D NTO d 869     -22.960  22.732 -12.926  0.00  0.00    -0.572 OA
ATOM     50  O3I NTO d 869     -20.744  20.928 -18.127  0.00  0.00    -0.296 OA
ATOM     51  O10 NTO d 869      -5.483  21.018 -18.173  0.00  0.00    -0.390 OA
ATOM     52  O1A NTO d 869      -7.911  15.453 -20.272  0.00  0.00    -0.572 OA
ATOM     53  O5K NTO d 869     -21.516  11.167 -10.394  0.00  0.00    -0.296 OA
ATOM     54  O16 NTO d 869      -7.197  17.179 -18.787  0.00  0.00    -0.254 OA
ATOM     55  O56 NTO d 869     -23.001  17.816 -17.826  0.00  0.00    -0.572 OA
ATOM     56  C43 NTO d 869     -18.147  18.352 -13.444  0.00  0.00     0.206 C 
ATOM     57  O54 NTO d 869     -23.797  16.399 -16.056  0.00  0.00    -0.254 OA
ATOM     58  S55 NTO d 869     -24.068  16.858 -17.386  0.00  0.00     0.251 S 
ATOM     59  O5A NTO d 869     -20.834  16.085 -11.897  0.00  0.00    -0.391 OA
ATOM     60  O4G NTO d 869     -22.560  17.960 -13.097  0.00  0.00    -0.348 OA
ATOM     61  O3C NTO d 869     -16.995  18.291 -18.741  0.00  0.00    -0.572 OA
ATOM     62  O3M NTO d 869     -18.617  20.155 -15.426  0.00  0.00    -0.348 OA
ATOM     63  O44 NTO d 869     -17.703  17.991 -12.324  0.00  0.00    -0.646 OA
ATOM     64  C23 NTO d 869     -10.783  20.603 -18.147  0.00  0.00     0.206 C 
ATOM     65  C41 NTO d 869     -19.519  19.008 -13.495  0.00  0.00     0.152 C 
ATOM     66  O22 NTO d 869     -12.630  20.241 -16.579  0.00  0.00    -0.340 OA
ATOM     67  O1C NTO d 869      -5.325  21.957 -15.435  0.00  0.00    -0.391 OA
ATOM     68  C15 NTO d 869      -6.263  18.193 -18.413  0.00  0.00     0.067 C 
ATOM     69  N3G NTO d 869     -18.218  20.534 -18.242  0.00  0.00    -0.210 NA
ATOM     70  C40 NTO d 869     -19.384  20.335 -14.230  0.00  0.00     0.103 C 
ATOM     71  S1G NTO d 869      -6.642  21.479 -12.602  0.00  0.00     0.156 S 
ATOM     72  O1L NTO d 869      -8.994  20.228 -16.084  0.00  0.00    -0.348 OA
ATOM     73  O57 NTO d 869     -25.396  17.554 -17.408  0.00  0.00    -0.572 OA
ATOM     74  O34 NTO d 869     -14.848  23.136 -14.040  0.00  0.00    -0.254 OA
ATOM     75  O1H NTO d 869      -5.364  22.074 -13.112  0.00  0.00    -0.296 OA
ATOM     76  O27 NTO d 869      -9.963  19.130 -13.565  0.00  0.00    -0.390 OA
ATOM     77  C50 NTO d 869     -22.676  16.554 -13.364  0.00  0.00     0.095 C 
ATOM     78  O3E NTO d 869     -15.206  17.602 -17.223  0.00  0.00    -0.572 OA
ATOM     79  O25 NTO d 869      -9.847  21.363 -18.489  0.00  0.00    -0.646 OA
ATOM     80  S3H NTO d 869     -19.467  21.495 -18.675  0.00  0.00     0.156 S 
ATOM     81  S35 NTO d 869     -13.942  23.925 -13.259  0.00  0.00     0.251 S 
ATOM     82  O1I NTO d 869      -6.355  20.178 -11.911  0.00  0.00    -0.296 OA
ATOM     83  C13 NTO d 869      -6.911  19.212 -17.471  0.00  0.00     0.090 C 
ATOM     84  O58 NTO d 869     -24.101  15.681 -18.312  0.00  0.00    -0.572 OA
ATOM     85  O3A NTO d 869     -15.411  19.894 -17.919  0.00  0.00    -0.247 OA
ATOM     86  C1B NTO d 869      -6.388  21.151 -15.948  0.00  0.00     0.083 C 
ATOM     87  O4C NTO d 869     -23.417  20.630 -11.745  0.00  0.00    -0.572 OA
ATOM     88  O4E NTO d 869     -25.117  21.596 -13.212  0.00  0.00    -0.572 OA
ATOM     89  O36 NTO d 869     -12.528  23.535 -13.570  0.00  0.00    -0.572 OA
ATOM     90  O2A NTO d 869     -12.663  19.803 -12.919  0.00  0.00    -0.388 OA
ATOM     91  C30 NTO d 869     -15.415  20.802 -15.665  0.00  0.00     0.096 C 
ATOM     92  H   NTO d 869     -16.954  22.039 -17.595  0.00  0.00     0.076 H 
ATOM     93  H   NTO d 869     -23.883  12.960 -13.048  0.00  0.00     0.131 H 
ATOM     94  H   NTO d 869     -22.228  18.438 -15.063  0.00  0.00     0.133 H 
ATOM     95  H   NTO d 869      -8.507  20.774 -13.515  0.00  0.00     0.140 HD
ATOM     96  H   NTO d 869     -21.327  10.813 -12.984  0.00  0.00     0.231 HD
ATOM     97  H   NTO d 869     -19.055  22.036 -16.175  0.00  0.00     0.131 H 
ATOM     98  H   NTO d 869     -12.329  18.523 -14.491  0.00  0.00     0.094 H 
ATOM     99  H   NTO d 869     -10.411  18.765 -16.122  0.00  0.00     0.092 H 
ATOM    100  H   NTO d 869      -6.222  19.757 -14.333  0.00  0.00     0.076 H 
ATOM    101  H   NTO d 869     -20.292  22.135 -20.427  0.00  0.00     0.231 HD
ATOM    102  H   NTO d 869     -16.777  20.372 -14.099  0.00  0.00     0.090 H 
ATOM    103  H   NTO d 869     -20.923  20.680 -15.676  0.00  0.00     0.091 H 
ATOM    104  H   NTO d 869     -24.717  16.477 -12.820  0.00  0.00     0.090 H 
ATOM    105  H   NTO d 869     -21.752  13.987 -13.124  0.00  0.00     0.076 H 
ATOM    106  H   NTO d 869     -22.796  16.103 -11.268  0.00  0.00     0.089 H 
ATOM    107  H   NTO d 869     -11.229  21.687 -16.367  0.00  0.00     0.104 H 
ATOM    108  H   NTO d 869     -10.633  20.989 -14.108  0.00  0.00     0.091 H 
ATOM    109  H   NTO d 869     -20.681  22.424 -13.427  0.00  0.00     0.210 HD
ATOM    110  H   NTO d 869      -7.484  23.263 -12.085  0.00  0.00     0.231 HD
ATOM    111  H   NTO d 869     -26.519  13.313 -10.988  0.00  0.00     0.066 H 
ATOM    112  H   NTO d 869     -25.485  12.217 -11.873  0.00  0.00     0.066 H 
ATOM    113  H   NTO d 869     -26.355  13.473 -12.721  0.00  0.00     0.066 H 
ATOM    114  H   NTO d 869     -20.008  23.443 -18.405  0.00  0.00     0.231 HD
ATOM    115  H   NTO d 869     -19.346  11.647 -11.814  0.00  0.00     0.231 HD
ATOM    116  H   NTO d 869     -16.678  19.265 -16.443  0.00  0.00     0.092 H 
ATOM    117  H   NTO d 869      -8.538  18.797 -14.653  0.00  0.00     0.131 H 
ATOM    118  H   NTO d 869     -13.075  21.395 -14.959  0.00  0.00     0.133 H 
ATOM    119  H   NTO d 869     -22.921  13.346 -10.596  0.00  0.00     0.140 HD
ATOM    120  H   NTO d 869     -14.741  21.322 -13.099  0.00  0.00     0.080 H 
ATOM    121  H   NTO d 869     -16.143  22.312 -12.698  0.00  0.00     0.080 H 
ATOM    122  H   NTO d 869      -5.002  19.695 -16.658  0.00  0.00     0.091 H 
ATOM    123  H   NTO d 869     -21.635  20.296 -12.774  0.00  0.00     0.097 H 
ATOM    124  H   NTO d 869     -24.408  17.933 -14.846  0.00  0.00     0.080 H 
ATOM    125  H   NTO d 869     -25.594  16.671 -15.121  0.00  0.00     0.080 H 
ATOM    126  H   NTO d 869     -21.486  21.497 -18.384  0.00  0.00     0.231 HD
ATOM    127  H   NTO d 869      -6.264  21.489 -18.503  0.00  0.00     0.210 HD
ATOM    128  H   NTO d 869     -21.049  10.346 -10.618  0.00  0.00     0.231 HD
ATOM    129  H   NTO d 869     -20.320  15.807 -12.671  0.00  0.00     0.210 HD
ATOM    130  H   NTO d 869     -19.888  19.176 -12.505  0.00  0.00     0.104 H 
ATOM    131  H   NTO d 869      -5.668  22.543 -14.743  0.00  0.00     0.210 HD
ATOM    132  H   NTO d 869      -5.922  18.697 -19.293  0.00  0.00     0.080 H 
ATOM    133  H   NTO d 869      -5.442  17.731 -17.905  0.00  0.00     0.080 H 
ATOM    134  H   NTO d 869     -18.593  19.652 -17.889  0.00  0.00     0.140 HD
ATOM    135  H   NTO d 869     -18.903  21.030 -13.575  0.00  0.00     0.092 H 
ATOM    136  H   NTO d 869      -5.553  22.914 -13.557  0.00  0.00     0.231 HD
ATOM    137  H   NTO d 869     -10.080  18.203 -13.828  0.00  0.00     0.210 HD
ATOM    138  H   NTO d 869     -22.077  16.302 -14.214  0.00  0.00     0.091 H 
ATOM    139  H   NTO d 869      -7.185  19.796 -11.583  0.00  0.00     0.231 HD
ATOM    140  H   NTO d 869      -7.710  19.739 -17.949  0.00  0.00     0.090 H 
ATOM    141  H   NTO d 869      -7.146  21.783 -16.362  0.00  0.00     0.089 H 
ATOM    142  H   NTO d 869     -12.574  20.747 -12.715  0.00  0.00     0.210 HD
ATOM    143  H   NTO d 869     -14.897  21.644 -16.073  0.00  0.00     0.091 H 
ENDROOT
TORSDOF 46
ENDMDL
MODEL 57
REMARK VINA RESULT:      -5.4      5.035      8.399
REMARK  0 active torsions:
REMARK  status: ('A' for Active; 'I' for Inactive)
REMARK       I    between atoms: O4A_2  and  C49_47 
REMARK       I    between atoms: O4A_2  and  S4B_15 
REMARK       I    between atoms: C3F_4  and  N3G_69 
REMARK       I    between atoms: S17_5  and  O16_54 
REMARK       I    between atoms: C5L_6  and  O5M_26 
REMARK       I    between atoms: C4F_7  and  O4G_60 
REMARK       I    between atoms: N1F_9  and  C1E_19 
REMARK       I    between atoms: N1F_9  and  S1G_71 
REMARK       I    between atoms: O5J_11  and  S5H_38 
REMARK       I    between atoms: C3L_12  and  O3M_62 
REMARK       I    between atoms: C29_13  and  O2A_90 
REMARK       I    between atoms: S3B_14  and  O3A_85 
REMARK       I    between atoms: C20_18  and  O1L_72 
REMARK       I    between atoms: O3J_20  and  S3H_80 
REMARK       I    between atoms: C31_23  and  C33_44 
REMARK       I    between atoms: C46_25  and  O47_33 
REMARK       I    between atoms: O5M_26  and  C5N_35 
REMARK       I    between atoms: C51_28  and  C53_48 
REMARK       I    between atoms: C5F_29  and  N5G_43 
REMARK       I    between atoms: C59_30  and  O5A_59 
REMARK       I    between atoms: C21_31  and  C23_64 
REMARK       I    between atoms: C26_32  and  O27_76 
REMARK       I    between atoms: O1J_34  and  S1G_71 
REMARK       I    between atoms: O3K_36  and  S3H_80 
REMARK       I    between atoms: O5I_37  and  S5H_38 
REMARK       I    between atoms: S5H_38  and  O5K_53 
REMARK       I    between atoms: S5H_38  and  N5G_43 
REMARK       I    between atoms: C39_39  and  O3A_85 
REMARK       I    between atoms: C1K_40  and  O1L_72 
REMARK       I    between atoms: C2C_41  and  O2D_45 
REMARK       I    between atoms: C33_44  and  O34_74 
REMARK       I    between atoms: O2D_45  and  C30_91 
REMARK       I    between atoms: C12_46  and  O10_51 
REMARK       I    between atoms: C53_48  and  O54_57 
REMARK       I    between atoms: O3I_50  and  S3H_80 
REMARK       I    between atoms: O16_54  and  C15_68 
REMARK       I    between atoms: C43_56  and  C41_65 
REMARK       I    between atoms: O54_57  and  S55_58 
REMARK       I    between atoms: O4G_60  and  C50_77 
REMARK       I    between atoms: O3M_62  and  C40_70 
REMARK       I    between atoms: O1C_67  and  C1B_86 
REMARK       I    between atoms: C15_68  and  C13_83 
REMARK       I    between atoms: N3G_69  and  S3H_80 
REMARK       I    between atoms: S1G_71  and  O1H_75 
REMARK       I    between atoms: S1G_71  and  O1I_82 
REMARK       I    between atoms: O34_74  and  S35_81 
ROOT
ATOM      1  O42 NTO d 869     -22.748  17.364 -19.454  0.00  0.00    -0.340 OA
ATOM      2  O4A NTO d 869     -26.084  16.642 -18.091  0.00  0.00    -0.244 OA
ATOM      3  O32 NTO d 869     -21.353  17.767 -14.601  0.00  0.00    -0.349 OA
ATOM      4  C3F NTO d 869     -21.332  20.096 -15.212  0.00  0.00     0.083 C 
ATOM      5  S17 NTO d 869     -10.055  24.154 -15.884  0.00  0.00     0.251 S 
ATOM      6  C5L NTO d 869     -24.292  16.342 -24.705  0.00  0.00     0.149 C 
ATOM      7  C4F NTO d 869     -24.155  17.085 -19.495  0.00  0.00     0.161 C 
ATOM      8  O14 NTO d 869     -11.061  20.583 -14.216  0.00  0.00    -0.349 OA
ATOM      9  N1F NTO d 869     -11.842  17.669 -12.096  0.00  0.00    -0.210 NA
ATOM     10  O37 NTO d 869     -18.492  14.650 -12.392  0.00  0.00    -0.572 OA
ATOM     11  O5J NTO d 869     -21.595  16.950 -26.144  0.00  0.00    -0.296 OA
ATOM     12  C3L NTO d 869     -22.029  18.750 -15.401  0.00  0.00     0.150 C 
ATOM     13  C29 NTO d 869     -15.603  17.935 -15.205  0.00  0.00     0.110 C 
ATOM     14  S3B NTO d 869     -18.939  21.816 -16.835  0.00  0.00     0.252 S 
ATOM     15  S4B NTO d 869     -26.660  15.382 -17.735  0.00  0.00     0.252 S 
ATOM     16  O24 NTO d 869     -15.504  22.549 -14.100  0.00  0.00    -0.646 OA
ATOM     17  O45 NTO d 869     -20.100  17.945 -18.312  0.00  0.00    -0.646 OA
ATOM     18  C20 NTO d 869     -14.156  19.636 -14.109  0.00  0.00     0.103 C 
ATOM     19  C1E NTO d 869     -11.066  18.824 -12.566  0.00  0.00     0.081 C 
ATOM     20  O3J NTO d 869     -23.929  22.749 -15.221  0.00  0.00    -0.296 OA
ATOM     21  O38 NTO d 869     -19.250  16.134 -10.591  0.00  0.00    -0.572 OA
ATOM     22  O18 NTO d 869      -9.128  23.401 -16.790  0.00  0.00    -0.572 OA
ATOM     23  C31 NTO d 869     -20.016  17.549 -15.078  0.00  0.00     0.091 C 
ATOM     24  O52 NTO d 869     -25.102  17.285 -23.985  0.00  0.00    -0.349 OA
ATOM     25  C46 NTO d 869     -24.025  17.323 -17.003  0.00  0.00     0.094 C 
ATOM     26  O5M NTO d 869     -25.009  15.149 -25.043  0.00  0.00    -0.364 OA
ATOM     27  O3D NTO d 869     -18.191  23.097 -16.611  0.00  0.00    -0.572 OA
ATOM     28  C51 NTO d 869     -25.424  16.849 -22.654  0.00  0.00     0.091 C 
ATOM     29  C5F NTO d 869     -23.000  16.020 -23.952  0.00  0.00     0.081 C 
ATOM     30  C59 NTO d 869     -23.306  15.570 -22.522  0.00  0.00     0.083 C 
ATOM     31  C21 NTO d 869     -15.425  20.236 -13.525  0.00  0.00     0.152 C 
ATOM     32  C26 NTO d 869     -14.395  18.138 -14.288  0.00  0.00     0.092 C 
ATOM     33  O47 NTO d 869     -24.528  16.824 -15.759  0.00  0.00    -0.390 OA
ATOM     34  O1J NTO d 869     -11.610  15.322 -11.127  0.00  0.00    -0.296 OA
ATOM     35  C5N NTO d 869     -25.760  15.382 -26.239  0.00  0.00     0.007 C 
ATOM     36  O3K NTO d 869     -23.817  20.561 -14.154  0.00  0.00    -0.296 OA
ATOM     37  O5I NTO d 869     -19.867  15.832 -24.816  0.00  0.00    -0.296 OA
ATOM     38  S5H NTO d 869     -21.118  15.629 -25.617  0.00  0.00     0.156 S 
ATOM     39  C39 NTO d 869     -19.905  19.958 -15.748  0.00  0.00     0.108 C 
ATOM     40  C1K NTO d 869     -11.819  19.462 -13.734  0.00  0.00     0.150 C 
ATOM     41  C2C NTO d 869     -16.827  18.675 -14.657  0.00  0.00     0.160 C 
ATOM     42  O19 NTO d 869      -9.269  25.107 -15.034  0.00  0.00    -0.572 OA
ATOM     43  N5G NTO d 869     -22.261  14.965 -24.661  0.00  0.00    -0.210 NA
ATOM     44  C33 NTO d 869     -19.340  16.472 -14.223  0.00  0.00     0.067 C 
ATOM     45  O2D NTO d 869     -17.900  18.557 -15.606  0.00  0.00    -0.348 OA
ATOM     46  C12 NTO d 869     -10.287  21.125 -11.963  0.00  0.00     0.089 C 
ATOM     47  C49 NTO d 869     -24.660  16.543 -18.155  0.00  0.00     0.134 C 
ATOM     48  C53 NTO d 869     -26.251  17.959 -22.002  0.00  0.00     0.067 C 
ATOM     49  O4D NTO d 869     -26.462  15.135 -16.268  0.00  0.00    -0.572 OA
ATOM     50  O3I NTO d 869     -24.531  20.743 -16.493  0.00  0.00    -0.296 OA
ATOM     51  O10 NTO d 869     -10.378  22.136 -10.957  0.00  0.00    -0.390 OA
ATOM     52  O1A NTO d 869     -11.047  24.914 -16.711  0.00  0.00    -0.572 OA
ATOM     53  O5K NTO d 869     -20.835  14.719 -26.776  0.00  0.00    -0.296 OA
ATOM     54  O16 NTO d 869     -10.757  23.229 -15.046  0.00  0.00    -0.254 OA
ATOM     55  O56 NTO d 869     -25.531  20.767 -20.217  0.00  0.00    -0.572 OA
ATOM     56  C43 NTO d 869     -20.575  16.809 -18.539  0.00  0.00     0.206 C 
ATOM     57  O54 NTO d 869     -25.538  19.196 -22.035  0.00  0.00    -0.254 OA
ATOM     58  S55 NTO d 869     -26.135  20.400 -21.540  0.00  0.00     0.251 S 
ATOM     59  O5A NTO d 869     -22.084  15.431 -21.791  0.00  0.00    -0.391 OA
ATOM     60  O4G NTO d 869     -24.496  16.140 -20.521  0.00  0.00    -0.348 OA
ATOM     61  O3C NTO d 869     -20.238  22.123 -17.519  0.00  0.00    -0.572 OA
ATOM     62  O3M NTO d 869     -21.906  18.410 -16.789  0.00  0.00    -0.348 OA
ATOM     63  O44 NTO d 869     -19.880  15.809 -18.856  0.00  0.00    -0.646 OA
ATOM     64  C23 NTO d 869     -15.162  21.707 -13.237  0.00  0.00     0.206 C 
ATOM     65  C41 NTO d 869     -22.080  16.627 -18.415  0.00  0.00     0.152 C 
ATOM     66  O22 NTO d 869     -16.532  20.063 -14.427  0.00  0.00    -0.340 OA
ATOM     67  O1C NTO d 869     -10.159  19.304 -10.376  0.00  0.00    -0.391 OA
ATOM     68  C15 NTO d 869     -10.179  22.775 -13.820  0.00  0.00     0.067 C 
ATOM     69  N3G NTO d 869     -22.065  21.146 -15.942  0.00  0.00    -0.210 NA
ATOM     70  C40 NTO d 869     -22.510  17.137 -17.047  0.00  0.00     0.103 C 
ATOM     71  S1G NTO d 869     -10.817  16.485 -11.645  0.00  0.00     0.156 S 
ATOM     72  O1L NTO d 869     -13.076  19.903 -13.204  0.00  0.00    -0.348 OA
ATOM     73  O57 NTO d 869     -27.610  20.187 -21.367  0.00  0.00    -0.572 OA
ATOM     74  O34 NTO d 869     -19.215  16.886 -12.859  0.00  0.00    -0.254 OA
ATOM     75  O1H NTO d 869      -9.903  17.000 -10.574  0.00  0.00    -0.296 OA
ATOM     76  O27 NTO d 869     -13.246  17.528 -14.883  0.00  0.00    -0.390 OA
ATOM     77  C50 NTO d 869     -24.165  16.627 -21.830  0.00  0.00     0.095 C 
ATOM     78  O3E NTO d 869     -18.125  20.907 -17.708  0.00  0.00    -0.572 OA
ATOM     79  O25 NTO d 869     -14.598  21.998 -12.156  0.00  0.00    -0.646 OA
ATOM     80  S3H NTO d 869     -23.614  21.299 -15.443  0.00  0.00     0.156 S 
ATOM     81  S35 NTO d 869     -18.528  16.068 -11.903  0.00  0.00     0.251 S 
ATOM     82  O1I NTO d 869     -10.011  16.051 -12.834  0.00  0.00    -0.296 OA
ATOM     83  C13 NTO d 869     -10.993  21.622 -13.227  0.00  0.00     0.090 C 
ATOM     84  O58 NTO d 869     -25.899  21.505 -22.525  0.00  0.00    -0.572 OA
ATOM     85  O3A NTO d 869     -19.192  21.188 -15.573  0.00  0.00    -0.247 OA
ATOM     86  C1B NTO d 869     -10.947  19.848 -11.437  0.00  0.00     0.083 C 
ATOM     87  O4C NTO d 869     -26.005  14.288 -18.526  0.00  0.00    -0.572 OA
ATOM     88  O4E NTO d 869     -28.123  15.414 -18.053  0.00  0.00    -0.572 OA
ATOM     89  O36 NTO d 869     -17.126  16.564 -11.721  0.00  0.00    -0.572 OA
ATOM     90  O2A NTO d 869     -15.892  16.540 -15.305  0.00  0.00    -0.388 OA
ATOM     91  C30 NTO d 869     -19.182  18.822 -15.017  0.00  0.00     0.096 C 
ATOM     92  H   NTO d 869     -21.308  20.372 -14.178  0.00  0.00     0.076 H 
ATOM     93  H   NTO d 869     -24.023  16.812 -25.628  0.00  0.00     0.131 H 
ATOM     94  H   NTO d 869     -24.629  18.019 -19.713  0.00  0.00     0.133 H 
ATOM     95  H   NTO d 869     -12.443  17.333 -12.848  0.00  0.00     0.140 HD
ATOM     96  H   NTO d 869     -20.910  17.339 -26.711  0.00  0.00     0.231 HD
ATOM     97  H   NTO d 869     -23.059  18.791 -15.110  0.00  0.00     0.131 H 
ATOM     98  H   NTO d 869     -15.372  18.328 -16.173  0.00  0.00     0.094 H 
ATOM     99  H   NTO d 869     -13.904  20.060 -15.059  0.00  0.00     0.092 H 
ATOM    100  H   NTO d 869     -10.089  18.512 -12.871  0.00  0.00     0.076 H 
ATOM    101  H   NTO d 869     -24.848  22.838 -14.925  0.00  0.00     0.231 HD
ATOM    102  H   NTO d 869     -20.079  17.236 -16.098  0.00  0.00     0.090 H 
ATOM    103  H   NTO d 869     -24.264  18.361 -17.095  0.00  0.00     0.091 H 
ATOM    104  H   NTO d 869     -25.959  15.924 -22.699  0.00  0.00     0.090 H 
ATOM    105  H   NTO d 869     -22.401  16.906 -23.906  0.00  0.00     0.076 H 
ATOM    106  H   NTO d 869     -23.824  14.634 -22.554  0.00  0.00     0.089 H 
ATOM    107  H   NTO d 869     -15.690  19.737 -12.616  0.00  0.00     0.104 H 
ATOM    108  H   NTO d 869     -14.577  17.690 -13.333  0.00  0.00     0.091 H 
ATOM    109  H   NTO d 869     -24.310  15.883 -15.677  0.00  0.00     0.210 HD
ATOM    110  H   NTO d 869     -12.131  15.603 -10.358  0.00  0.00     0.231 HD
ATOM    111  H   NTO d 869     -26.300  14.496 -26.500  0.00  0.00     0.066 H 
ATOM    112  H   NTO d 869     -25.093  15.640 -27.035  0.00  0.00     0.066 H 
ATOM    113  H   NTO d 869     -26.449  16.185 -26.076  0.00  0.00     0.066 H 
ATOM    114  H   NTO d 869     -24.739  20.659 -13.868  0.00  0.00     0.231 HD
ATOM    115  H   NTO d 869     -19.183  16.227 -25.379  0.00  0.00     0.231 HD
ATOM    116  H   NTO d 869     -19.946  19.731 -16.793  0.00  0.00     0.092 H 
ATOM    117  H   NTO d 869     -11.963  18.779 -14.546  0.00  0.00     0.131 H 
ATOM    118  H   NTO d 869     -17.107  18.239 -13.722  0.00  0.00     0.133 H 
ATOM    119  H   NTO d 869     -22.910  14.427 -25.235  0.00  0.00     0.140 HD
ATOM    120  H   NTO d 869     -18.366  16.276 -14.618  0.00  0.00     0.080 H 
ATOM    121  H   NTO d 869     -19.948  15.591 -14.252  0.00  0.00     0.080 H 
ATOM    122  H   NTO d 869      -9.265  20.913 -12.200  0.00  0.00     0.091 H 
ATOM    123  H   NTO d 869     -24.381  15.513 -18.069  0.00  0.00     0.097 H 
ATOM    124  H   NTO d 869     -26.454  17.696 -20.985  0.00  0.00     0.080 H 
ATOM    125  H   NTO d 869     -27.168  18.072 -22.543  0.00  0.00     0.080 H 
ATOM    126  H   NTO d 869     -25.451  20.832 -16.199  0.00  0.00     0.231 HD
ATOM    127  H   NTO d 869     -11.311  22.311 -10.758  0.00  0.00     0.210 HD
ATOM    128  H   NTO d 869     -20.155  15.118 -27.341  0.00  0.00     0.231 HD
ATOM    129  H   NTO d 869     -21.622  16.283 -21.768  0.00  0.00     0.210 HD
ATOM    130  H   NTO d 869     -22.339  15.594 -18.516  0.00  0.00     0.104 H 
ATOM    131  H   NTO d 869     -10.578  18.495 -10.043  0.00  0.00     0.210 HD
ATOM    132  H   NTO d 869     -10.158  23.586 -13.121  0.00  0.00     0.080 H 
ATOM    133  H   NTO d 869      -9.186  22.428 -14.018  0.00  0.00     0.080 H 
ATOM    134  H   NTO d 869     -22.064  20.915 -16.936  0.00  0.00     0.140 HD
ATOM    135  H   NTO d 869     -22.204  16.421 -16.314  0.00  0.00     0.092 H 
ATOM    136  H   NTO d 869     -10.428  17.279  -9.807  0.00  0.00     0.231 HD
ATOM    137  H   NTO d 869     -13.078  17.931 -15.750  0.00  0.00     0.210 HD
ATOM    138  H   NTO d 869     -23.643  17.557 -21.742  0.00  0.00     0.091 H 
ATOM    139  H   NTO d 869     -10.606  15.719 -13.524  0.00  0.00     0.231 HD
ATOM    140  H   NTO d 869     -11.983  21.931 -12.964  0.00  0.00     0.090 H 
ATOM    141  H   NTO d 869     -11.925  20.081 -11.070  0.00  0.00     0.089 H 
ATOM    142  H   NTO d 869     -16.101  16.189 -14.425  0.00  0.00     0.210 HD
ATOM    143  H   NTO d 869     -19.044  19.128 -14.001  0.00  0.00     0.091 H 
ENDROOT
TORSDOF 46
ENDMDL
MODEL 58
REMARK VINA RESULT:      -5.4      3.905      7.243
REMARK  0 active torsions:
REMARK  status: ('A' for Active; 'I' for Inactive)
REMARK       I    between atoms: O4A_2  and  C49_47 
REMARK       I    between atoms: O4A_2  and  S4B_15 
REMARK       I    between atoms: C3F_4  and  N3G_69 
REMARK       I    between atoms: S17_5  and  O16_54 
REMARK       I    between atoms: C5L_6  and  O5M_26 
REMARK       I    between atoms: C4F_7  and  O4G_60 
REMARK       I    between atoms: N1F_9  and  C1E_19 
REMARK       I    between atoms: N1F_9  and  S1G_71 
REMARK       I    between atoms: O5J_11  and  S5H_38 
REMARK       I    between atoms: C3L_12  and  O3M_62 
REMARK       I    between atoms: C29_13  and  O2A_90 
REMARK       I    between atoms: S3B_14  and  O3A_85 
REMARK       I    between atoms: C20_18  and  O1L_72 
REMARK       I    between atoms: O3J_20  and  S3H_80 
REMARK       I    between atoms: C31_23  and  C33_44 
REMARK       I    between atoms: C46_25  and  O47_33 
REMARK       I    between atoms: O5M_26  and  C5N_35 
REMARK       I    between atoms: C51_28  and  C53_48 
REMARK       I    between atoms: C5F_29  and  N5G_43 
REMARK       I    between atoms: C59_30  and  O5A_59 
REMARK       I    between atoms: C21_31  and  C23_64 
REMARK       I    between atoms: C26_32  and  O27_76 
REMARK       I    between atoms: O1J_34  and  S1G_71 
REMARK       I    between atoms: O3K_36  and  S3H_80 
REMARK       I    between atoms: O5I_37  and  S5H_38 
REMARK       I    between atoms: S5H_38  and  O5K_53 
REMARK       I    between atoms: S5H_38  and  N5G_43 
REMARK       I    between atoms: C39_39  and  O3A_85 
REMARK       I    between atoms: C1K_40  and  O1L_72 
REMARK       I    between atoms: C2C_41  and  O2D_45 
REMARK       I    between atoms: C33_44  and  O34_74 
REMARK       I    between atoms: O2D_45  and  C30_91 
REMARK       I    between atoms: C12_46  and  O10_51 
REMARK       I    between atoms: C53_48  and  O54_57 
REMARK       I    between atoms: O3I_50  and  S3H_80 
REMARK       I    between atoms: O16_54  and  C15_68 
REMARK       I    between atoms: C43_56  and  C41_65 
REMARK       I    between atoms: O54_57  and  S55_58 
REMARK       I    between atoms: O4G_60  and  C50_77 
REMARK       I    between atoms: O3M_62  and  C40_70 
REMARK       I    between atoms: O1C_67  and  C1B_86 
REMARK       I    between atoms: C15_68  and  C13_83 
REMARK       I    between atoms: N3G_69  and  S3H_80 
REMARK       I    between atoms: S1G_71  and  O1H_75 
REMARK       I    between atoms: S1G_71  and  O1I_82 
REMARK       I    between atoms: O34_74  and  S35_81 
ROOT
ATOM      1  O42 NTO d 869     -19.073  19.273 -15.816  0.00  0.00    -0.340 OA
ATOM      2  O4A NTO d 869     -20.054  19.978 -12.344  0.00  0.00    -0.244 OA
ATOM      3  O32 NTO d 869     -14.361  20.162 -14.184  0.00  0.00    -0.349 OA
ATOM      4  C3F NTO d 869     -14.730  22.181 -15.443  0.00  0.00     0.083 C 
ATOM      5  S17 NTO d 869      -8.227  22.085 -25.532  0.00  0.00     0.251 S 
ATOM      6  C5L NTO d 869     -24.220  17.782 -17.332  0.00  0.00     0.149 C 
ATOM      7  C4F NTO d 869     -19.975  19.469 -14.716  0.00  0.00     0.161 C 
ATOM      8  O14 NTO d 869      -7.674  19.455 -22.478  0.00  0.00    -0.349 OA
ATOM      9  N1F NTO d 869      -6.596  17.450 -19.578  0.00  0.00    -0.210 NA
ATOM     10  O37 NTO d 869     -11.007  16.789 -13.788  0.00  0.00    -0.572 OA
ATOM     11  O5J NTO d 869     -23.693  17.167 -20.342  0.00  0.00    -0.296 OA
ATOM     12  C3L NTO d 869     -15.363  21.130 -14.533  0.00  0.00     0.150 C 
ATOM     13  C29 NTO d 869     -11.336  18.306 -18.752  0.00  0.00     0.110 C 
ATOM     14  S3B NTO d 869     -14.486  22.656 -18.765  0.00  0.00     0.252 S 
ATOM     15  S4B NTO d 869     -20.176  19.075 -11.241  0.00  0.00     0.252 S 
ATOM     16  O24 NTO d 869     -10.197  22.753 -19.954  0.00  0.00    -0.646 OA
ATOM     17  O45 NTO d 869     -16.532  19.168 -17.295  0.00  0.00    -0.646 OA
ATOM     18  C20 NTO d 869      -9.512  19.621 -19.818  0.00  0.00     0.103 C 
ATOM     19  C1E NTO d 869      -6.446  18.165 -20.851  0.00  0.00     0.081 C 
ATOM     20  O3J NTO d 869     -16.200  25.481 -14.587  0.00  0.00    -0.296 OA
ATOM     21  O38 NTO d 869      -9.975  18.770 -12.771  0.00  0.00    -0.572 OA
ATOM     22  O18 NTO d 869      -8.415  20.903 -26.435  0.00  0.00    -0.572 OA
ATOM     23  C31 NTO d 869     -13.935  19.425 -15.342  0.00  0.00     0.091 C 
ATOM     24  O52 NTO d 869     -24.100  19.063 -16.693  0.00  0.00    -0.349 OA
ATOM     25  C46 NTO d 869     -17.909  20.147 -13.466  0.00  0.00     0.094 C 
ATOM     26  O5M NTO d 869     -24.976  16.848 -16.551  0.00  0.00    -0.364 OA
ATOM     27  O3D NTO d 869     -13.798  23.637 -19.666  0.00  0.00    -0.572 OA
ATOM     28  C51 NTO d 869     -23.260  19.034 -15.528  0.00  0.00     0.091 C 
ATOM     29  C5F NTO d 869     -22.851  17.212 -17.709  0.00  0.00     0.081 C 
ATOM     30  C59 NTO d 869     -21.924  17.184 -16.492  0.00  0.00     0.083 C 
ATOM     31  C21 NTO d 869      -9.795  20.709 -18.794  0.00  0.00     0.152 C 
ATOM     32  C26 NTO d 869      -9.866  18.281 -19.175  0.00  0.00     0.092 C 
ATOM     33  O47 NTO d 869     -17.251  20.103 -12.197  0.00  0.00    -0.390 OA
ATOM     34  O1J NTO d 869      -5.790  15.402 -18.290  0.00  0.00    -0.296 OA
ATOM     35  C5N NTO d 869     -26.370  17.070 -16.786  0.00  0.00     0.007 C 
ATOM     36  O3K NTO d 869     -15.382  23.641 -13.216  0.00  0.00    -0.296 OA
ATOM     37  O5I NTO d 869     -21.639  15.835 -20.397  0.00  0.00    -0.296 OA
ATOM     38  S5H NTO d 869     -23.044  15.898 -19.877  0.00  0.00     0.156 S 
ATOM     39  C39 NTO d 869     -14.293  21.478 -16.730  0.00  0.00     0.108 C 
ATOM     40  C1K NTO d 869      -7.801  18.767 -21.224  0.00  0.00     0.150 C 
ATOM     41  C2C NTO d 869     -11.613  19.501 -17.835  0.00  0.00     0.160 C 
ATOM     42  O19 NTO d 869      -7.033  22.877 -25.976  0.00  0.00    -0.572 OA
ATOM     43  N5G NTO d 869     -23.010  15.853 -18.247  0.00  0.00    -0.210 NA
ATOM     44  C33 NTO d 869     -12.894  18.382 -14.926  0.00  0.00     0.067 C 
ATOM     45  O2D NTO d 869     -13.023  19.554 -17.561  0.00  0.00    -0.348 OA
ATOM     46  C12 NTO d 869      -5.393  20.154 -21.948  0.00  0.00     0.089 C 
ATOM     47  C49 NTO d 869     -19.242  19.405 -13.372  0.00  0.00     0.134 C 
ATOM     48  C53 NTO d 869     -23.198  20.461 -14.979  0.00  0.00     0.067 C 
ATOM     49  O4D NTO d 869     -18.905  19.077 -10.445  0.00  0.00    -0.572 OA
ATOM     50  O3I NTO d 869     -17.662  23.572 -14.116  0.00  0.00    -0.296 OA
ATOM     51  O10 NTO d 869      -4.606  21.319 -21.690  0.00  0.00    -0.390 OA
ATOM     52  O1A NTO d 869      -9.453  22.946 -25.582  0.00  0.00    -0.572 OA
ATOM     53  O5K NTO d 869     -23.830  14.732 -20.400  0.00  0.00    -0.296 OA
ATOM     54  O16 NTO d 869      -8.030  21.631 -24.188  0.00  0.00    -0.254 OA
ATOM     55  O56 NTO d 869     -21.221  23.174 -15.547  0.00  0.00    -0.572 OA
ATOM     56  C43 NTO d 869     -17.052  18.231 -16.647  0.00  0.00     0.206 C 
ATOM     57  O54 NTO d 869     -22.736  21.362 -15.986  0.00  0.00    -0.254 OA
ATOM     58  S55 NTO d 869     -22.653  22.769 -15.731  0.00  0.00     0.251 S 
ATOM     59  O5A NTO d 869     -20.607  16.801 -16.901  0.00  0.00    -0.391 OA
ATOM     60  O4G NTO d 869     -21.036  18.504 -14.699  0.00  0.00    -0.348 OA
ATOM     61  O3C NTO d 869     -15.804  23.228 -18.337  0.00  0.00    -0.572 OA
ATOM     62  O3M NTO d 869     -16.403  20.497 -15.291  0.00  0.00    -0.348 OA
ATOM     63  O44 NTO d 869     -16.924  17.016 -16.950  0.00  0.00    -0.646 OA
ATOM     64  C23 NTO d 869      -9.341  22.037 -19.381  0.00  0.00     0.206 C 
ATOM     65  C41 NTO d 869     -17.876  18.582 -15.418  0.00  0.00     0.152 C 
ATOM     66  O22 NTO d 869     -11.191  20.731 -18.447  0.00  0.00    -0.340 OA
ATOM     67  O1C NTO d 869      -4.137  18.751 -20.430  0.00  0.00    -0.391 OA
ATOM     68  C15 NTO d 869      -6.727  21.268 -23.727  0.00  0.00     0.067 C 
ATOM     69  N3G NTO d 869     -15.709  23.245 -15.735  0.00  0.00    -0.210 NA
ATOM     70  C40 NTO d 869     -17.031  19.469 -14.515  0.00  0.00     0.103 C 
ATOM     71  S1G NTO d 869      -5.667  16.111 -19.606  0.00  0.00     0.156 S 
ATOM     72  O1L NTO d 869      -8.126  19.694 -20.179  0.00  0.00    -0.348 OA
ATOM     73  O57 NTO d 869     -23.423  23.091 -14.484  0.00  0.00    -0.572 OA
ATOM     74  O34 NTO d 869     -11.719  18.996 -14.390  0.00  0.00    -0.254 OA
ATOM     75  O1H NTO d 869      -4.240  16.501 -19.847  0.00  0.00    -0.296 OA
ATOM     76  O27 NTO d 869      -9.665  17.221 -20.114  0.00  0.00    -0.390 OA
ATOM     77  C50 NTO d 869     -21.850  18.581 -15.878  0.00  0.00     0.095 C 
ATOM     78  O3E NTO d 869     -14.723  21.374 -19.508  0.00  0.00    -0.572 OA
ATOM     79  O25 NTO d 869      -8.129  22.337 -19.278  0.00  0.00    -0.646 OA
ATOM     80  S3H NTO d 869     -16.248  23.995 -14.388  0.00  0.00     0.156 S 
ATOM     81  S35 NTO d 869     -10.579  18.208 -14.023  0.00  0.00     0.251 S 
ATOM     82  O1I NTO d 869      -6.138  15.206 -20.707  0.00  0.00    -0.296 OA
ATOM     83  C13 NTO d 869      -6.802  20.591 -22.356  0.00  0.00     0.090 C 
ATOM     84  O58 NTO d 869     -23.242  23.512 -16.891  0.00  0.00    -0.572 OA
ATOM     85  O3A NTO d 869     -13.667  22.413 -17.616  0.00  0.00    -0.247 OA
ATOM     86  C1B NTO d 869      -5.434  19.298 -20.679  0.00  0.00     0.083 C 
ATOM     87  O4C NTO d 869     -20.453  17.692 -11.751  0.00  0.00    -0.572 OA
ATOM     88  O4E NTO d 869     -21.318  19.522 -10.379  0.00  0.00    -0.572 OA
ATOM     89  O36 NTO d 869      -9.560  18.242 -15.122  0.00  0.00    -0.572 OA
ATOM     90  O2A NTO d 869     -11.652  17.093 -18.066  0.00  0.00    -0.388 OA
ATOM     91  C30 NTO d 869     -13.324  20.339 -16.397  0.00  0.00     0.096 C 
ATOM     92  H   NTO d 869     -13.884  22.636 -14.971  0.00  0.00     0.076 H 
ATOM     93  H   NTO d 869     -24.767  17.942 -18.237  0.00  0.00     0.131 H 
ATOM     94  H   NTO d 869     -20.394  20.444 -14.856  0.00  0.00     0.133 H 
ATOM     95  H   NTO d 869      -7.572  17.185 -19.448  0.00  0.00     0.140 HD
ATOM     96  H   NTO d 869     -23.709  17.187 -21.312  0.00  0.00     0.231 HD
ATOM     97  H   NTO d 869     -15.756  21.565 -13.637  0.00  0.00     0.131 H 
ATOM     98  H   NTO d 869     -11.945  18.398 -19.626  0.00  0.00     0.094 H 
ATOM     99  H   NTO d 869     -10.093  19.737 -20.709  0.00  0.00     0.092 H 
ATOM    100  H   NTO d 869      -6.107  17.495 -21.614  0.00  0.00     0.076 H 
ATOM    101  H   NTO d 869     -16.521  25.925 -13.787  0.00  0.00     0.231 HD
ATOM    102  H   NTO d 869     -14.796  18.952 -15.764  0.00  0.00     0.090 H 
ATOM    103  H   NTO d 869     -18.082  21.166 -13.744  0.00  0.00     0.091 H 
ATOM    104  H   NTO d 869     -23.662  18.347 -14.812  0.00  0.00     0.090 H 
ATOM    105  H   NTO d 869     -22.412  17.841 -18.454  0.00  0.00     0.076 H 
ATOM    106  H   NTO d 869     -22.305  16.485 -15.778  0.00  0.00     0.089 H 
ATOM    107  H   NTO d 869      -9.257  20.518 -17.888  0.00  0.00     0.104 H 
ATOM    108  H   NTO d 869      -9.239  18.119 -18.322  0.00  0.00     0.091 H 
ATOM    109  H   NTO d 869     -17.094  19.179 -11.946  0.00  0.00     0.210 HD
ATOM    110  H   NTO d 869      -5.485  15.987 -17.578  0.00  0.00     0.231 HD
ATOM    111  H   NTO d 869     -26.945  16.377 -16.207  0.00  0.00     0.066 H 
ATOM    112  H   NTO d 869     -26.584  16.929 -17.825  0.00  0.00     0.066 H 
ATOM    113  H   NTO d 869     -26.625  18.070 -16.502  0.00  0.00     0.066 H 
ATOM    114  H   NTO d 869     -15.712  24.091 -12.423  0.00  0.00     0.231 HD
ATOM    115  H   NTO d 869     -21.652  15.861 -21.367  0.00  0.00     0.231 HD
ATOM    116  H   NTO d 869     -15.156  21.071 -17.214  0.00  0.00     0.092 H 
ATOM    117  H   NTO d 869      -8.562  18.021 -21.326  0.00  0.00     0.131 H 
ATOM    118  H   NTO d 869     -11.061  19.379 -16.928  0.00  0.00     0.133 H 
ATOM    119  H   NTO d 869     -23.883  15.454 -17.902  0.00  0.00     0.140 HD
ATOM    120  H   NTO d 869     -12.623  17.801 -15.783  0.00  0.00     0.080 H 
ATOM    121  H   NTO d 869     -13.325  17.763 -14.166  0.00  0.00     0.080 H 
ATOM    122  H   NTO d 869      -4.969  19.575 -22.742  0.00  0.00     0.091 H 
ATOM    123  H   NTO d 869     -19.051  18.380 -13.130  0.00  0.00     0.097 H 
ATOM    124  H   NTO d 869     -22.527  20.490 -14.146  0.00  0.00     0.080 H 
ATOM    125  H   NTO d 869     -24.179  20.758 -14.671  0.00  0.00     0.080 H 
ATOM    126  H   NTO d 869     -17.984  24.016 -13.317  0.00  0.00     0.231 HD
ATOM    127  H   NTO d 869      -5.008  21.827 -20.969  0.00  0.00     0.210 HD
ATOM    128  H   NTO d 869     -23.847  14.763 -21.370  0.00  0.00     0.231 HD
ATOM    129  H   NTO d 869     -20.271  17.441 -17.548  0.00  0.00     0.210 HD
ATOM    130  H   NTO d 869     -18.159  17.694 -14.893  0.00  0.00     0.104 H 
ATOM    131  H   NTO d 869      -4.163  18.209 -19.626  0.00  0.00     0.210 HD
ATOM    132  H   NTO d 869      -6.125  22.150 -23.650  0.00  0.00     0.080 H 
ATOM    133  H   NTO d 869      -6.296  20.581 -24.426  0.00  0.00     0.080 H 
ATOM    134  H   NTO d 869     -16.506  22.831 -16.220  0.00  0.00     0.140 HD
ATOM    135  H   NTO d 869     -16.295  18.855 -14.040  0.00  0.00     0.092 H 
ATOM    136  H   NTO d 869      -3.939  17.085 -19.134  0.00  0.00     0.231 HD
ATOM    137  H   NTO d 869     -10.232  17.363 -20.889  0.00  0.00     0.210 HD
ATOM    138  H   NTO d 869     -21.423  19.286 -16.560  0.00  0.00     0.091 H 
ATOM    139  H   NTO d 869      -7.062  14.956 -20.547  0.00  0.00     0.231 HD
ATOM    140  H   NTO d 869      -7.182  21.254 -21.607  0.00  0.00     0.090 H 
ATOM    141  H   NTO d 869      -5.727  19.909 -19.851  0.00  0.00     0.089 H 
ATOM    142  H   NTO d 869     -11.097  17.015 -17.275  0.00  0.00     0.210 HD
ATOM    143  H   NTO d 869     -12.421  20.779 -16.029  0.00  0.00     0.091 H 
ENDROOT
TORSDOF 46
ENDMDL
MODEL 59
REMARK VINA RESULT:      -5.4      3.431     13.989
REMARK  0 active torsions:
REMARK  status: ('A' for Active; 'I' for Inactive)
REMARK       I    between atoms: O4A_2  and  C49_47 
REMARK       I    between atoms: O4A_2  and  S4B_15 
REMARK       I    between atoms: C3F_4  and  N3G_69 
REMARK       I    between atoms: S17_5  and  O16_54 
REMARK       I    between atoms: C5L_6  and  O5M_26 
REMARK       I    between atoms: C4F_7  and  O4G_60 
REMARK       I    between atoms: N1F_9  and  C1E_19 
REMARK       I    between atoms: N1F_9  and  S1G_71 
REMARK       I    between atoms: O5J_11  and  S5H_38 
REMARK       I    between atoms: C3L_12  and  O3M_62 
REMARK       I    between atoms: C29_13  and  O2A_90 
REMARK       I    between atoms: S3B_14  and  O3A_85 
REMARK       I    between atoms: C20_18  and  O1L_72 
REMARK       I    between atoms: O3J_20  and  S3H_80 
REMARK       I    between atoms: C31_23  and  C33_44 
REMARK       I    between atoms: C46_25  and  O47_33 
REMARK       I    between atoms: O5M_26  and  C5N_35 
REMARK       I    between atoms: C51_28  and  C53_48 
REMARK       I    between atoms: C5F_29  and  N5G_43 
REMARK       I    between atoms: C59_30  and  O5A_59 
REMARK       I    between atoms: C21_31  and  C23_64 
REMARK       I    between atoms: C26_32  and  O27_76 
REMARK       I    between atoms: O1J_34  and  S1G_71 
REMARK       I    between atoms: O3K_36  and  S3H_80 
REMARK       I    between atoms: O5I_37  and  S5H_38 
REMARK       I    between atoms: S5H_38  and  O5K_53 
REMARK       I    between atoms: S5H_38  and  N5G_43 
REMARK       I    between atoms: C39_39  and  O3A_85 
REMARK       I    between atoms: C1K_40  and  O1L_72 
REMARK       I    between atoms: C2C_41  and  O2D_45 
REMARK       I    between atoms: C33_44  and  O34_74 
REMARK       I    between atoms: O2D_45  and  C30_91 
REMARK       I    between atoms: C12_46  and  O10_51 
REMARK       I    between atoms: C53_48  and  O54_57 
REMARK       I    between atoms: O3I_50  and  S3H_80 
REMARK       I    between atoms: O16_54  and  C15_68 
REMARK       I    between atoms: C43_56  and  C41_65 
REMARK       I    between atoms: O54_57  and  S55_58 
REMARK       I    between atoms: O4G_60  and  C50_77 
REMARK       I    between atoms: O3M_62  and  C40_70 
REMARK       I    between atoms: O1C_67  and  C1B_86 
REMARK       I    between atoms: C15_68  and  C13_83 
REMARK       I    between atoms: N3G_69  and  S3H_80 
REMARK       I    between atoms: S1G_71  and  O1H_75 
REMARK       I    between atoms: S1G_71  and  O1I_82 
REMARK       I    between atoms: O34_74  and  S35_81 
ROOT
ATOM      1  O42 NTO d 869     -12.427  19.656 -22.313  0.00  0.00    -0.340 OA
ATOM      2  O4A NTO d 869     -11.324  20.063 -25.795  0.00  0.00    -0.244 OA
ATOM      3  O32 NTO d 869     -17.017  18.940 -24.330  0.00  0.00    -0.349 OA
ATOM      4  C3F NTO d 869     -17.324  21.151 -23.427  0.00  0.00     0.083 C 
ATOM      5  S17 NTO d 869     -24.551  20.806 -13.849  0.00  0.00     0.251 S 
ATOM      6  C5L NTO d 869      -7.249  19.903 -20.279  0.00  0.00     0.149 C 
ATOM      7  C4F NTO d 869     -11.504  19.923 -23.379  0.00  0.00     0.161 C 
ATOM      8  O14 NTO d 869     -24.079  17.689 -16.420  0.00  0.00    -0.349 OA
ATOM      9  N1F NTO d 869     -24.291  15.042 -18.978  0.00  0.00    -0.210 NA
ATOM     10  O37 NTO d 869     -19.303  14.750 -24.312  0.00  0.00    -0.572 OA
ATOM     11  O5J NTO d 869      -7.895  19.637 -17.242  0.00  0.00    -0.296 OA
ATOM     12  C3L NTO d 869     -16.347  20.191 -24.103  0.00  0.00     0.150 C 
ATOM     13  C29 NTO d 869     -19.888  17.043 -19.681  0.00  0.00     0.110 C 
ATOM     14  S3B NTO d 869     -18.018  22.044 -20.259  0.00  0.00     0.252 S 
ATOM     15  S4B NTO d 869     -10.857  19.071 -26.715  0.00  0.00     0.252 S 
ATOM     16  O24 NTO d 869     -22.277  21.129 -19.342  0.00  0.00    -0.646 OA
ATOM     17  O45 NTO d 869     -14.985  19.079 -20.980  0.00  0.00    -0.646 OA
ATOM     18  C20 NTO d 869     -22.092  17.947 -18.963  0.00  0.00     0.103 C 
ATOM     19  C1E NTO d 869     -24.752  15.875 -17.860  0.00  0.00     0.081 C 
ATOM     20  O3J NTO d 869     -16.701  24.557 -24.767  0.00  0.00    -0.296 OA
ATOM     21  O38 NTO d 869     -20.714  16.186 -25.715  0.00  0.00    -0.572 OA
ATOM     22  O18 NTO d 869     -24.149  19.876 -12.744  0.00  0.00    -0.572 OA
ATOM     23  C31 NTO d 869     -17.348  18.302 -23.087  0.00  0.00     0.091 C 
ATOM     24  O52 NTO d 869      -7.639  20.987 -21.139  0.00  0.00    -0.349 OA
ATOM     25  C46 NTO d 869     -13.539  19.801 -24.840  0.00  0.00     0.094 C 
ATOM     26  O5M NTO d 869      -6.198  19.108 -20.842  0.00  0.00    -0.364 OA
ATOM     27  O3D NTO d 869     -19.028  22.922 -19.582  0.00  0.00    -0.572 OA
ATOM     28  C51 NTO d 869      -8.319  20.547 -22.325  0.00  0.00     0.091 C 
ATOM     29  C5F NTO d 869      -8.449  19.041 -19.884  0.00  0.00     0.081 C 
ATOM     30  C59 NTO d 869      -9.209  18.570 -21.126  0.00  0.00     0.083 C 
ATOM     31  C21 NTO d 869     -22.006  18.900 -20.145  0.00  0.00     0.152 C 
ATOM     32  C26 NTO d 869     -21.334  16.676 -19.341  0.00  0.00     0.092 C 
ATOM     33  O47 NTO d 869     -14.030  19.381 -26.116  0.00  0.00    -0.390 OA
ATOM     34  O1J NTO d 869     -24.393  12.678 -19.929  0.00  0.00    -0.296 OA
ATOM     35  C5N NTO d 869      -4.943  19.742 -20.574  0.00  0.00     0.007 C 
ATOM     36  O3K NTO d 869     -16.861  22.374 -25.837  0.00  0.00    -0.296 OA
ATOM     37  O5I NTO d 869      -9.518  17.812 -17.066  0.00  0.00    -0.296 OA
ATOM     38  S5H NTO d 869      -8.135  18.182 -17.512  0.00  0.00     0.156 S 
ATOM     39  C39 NTO d 869     -17.687  20.561 -22.063  0.00  0.00     0.108 C 
ATOM     40  C1K NTO d 869     -23.649  16.878 -17.525  0.00  0.00     0.150 C 
ATOM     41  C2C NTO d 869     -19.846  18.112 -20.776  0.00  0.00     0.160 C 
ATOM     42  O19 NTO d 869     -25.950  21.294 -13.617  0.00  0.00    -0.572 OA
ATOM     43  N5G NTO d 869      -7.991  17.879 -19.108  0.00  0.00    -0.210 NA
ATOM     44  C33 NTO d 869     -18.028  16.959 -23.369  0.00  0.00     0.067 C 
ATOM     45  O2D NTO d 869     -18.480  18.511 -20.978  0.00  0.00    -0.348 OA
ATOM     46  C12 NTO d 869     -26.398  17.637 -17.188  0.00  0.00     0.089 C 
ATOM     47  C49 NTO d 869     -12.054  19.452 -24.729  0.00  0.00     0.134 C 
ATOM     48  C53 NTO d 869      -8.701  21.799 -23.119  0.00  0.00     0.067 C 
ATOM     49  O4D NTO d 869     -11.997  18.598 -27.567  0.00  0.00    -0.572 OA
ATOM     50  O3I NTO d 869     -14.746  23.080 -24.815  0.00  0.00    -0.296 OA
ATOM     51  O10 NTO d 869     -27.435  18.484 -17.689  0.00  0.00    -0.390 OA
ATOM     52  O1A NTO d 869     -23.608  21.970 -13.884  0.00  0.00    -0.572 OA
ATOM     53  O5K NTO d 869      -7.125  17.375 -16.750  0.00  0.00    -0.296 OA
ATOM     54  O16 NTO d 869     -24.485  20.114 -15.101  0.00  0.00    -0.254 OA
ATOM     55  O56 NTO d 869     -11.371  23.911 -23.144  0.00  0.00    -0.572 OA
ATOM     56  C43 NTO d 869     -14.174  18.234 -21.424  0.00  0.00     0.206 C 
ATOM     57  O54 NTO d 869      -9.484  22.680 -22.311  0.00  0.00    -0.254 OA
ATOM     58  S55 NTO d 869      -9.909  23.952 -22.814  0.00  0.00     0.251 S 
ATOM     59  O5A NTO d 869     -10.412  17.904 -20.729  0.00  0.00    -0.391 OA
ATOM     60  O4G NTO d 869     -10.229  19.299 -23.169  0.00  0.00    -0.348 OA
ATOM     61  O3C NTO d 869     -16.862  22.887 -20.707  0.00  0.00    -0.572 OA
ATOM     62  O3M NTO d 869     -15.259  19.995 -23.190  0.00  0.00    -0.348 OA
ATOM     63  O44 NTO d 869     -14.006  17.093 -20.920  0.00  0.00    -0.646 OA
ATOM     64  C23 NTO d 869     -22.851  20.124 -19.825  0.00  0.00     0.206 C 
ATOM     65  C41 NTO d 869     -13.352  18.607 -22.648  0.00  0.00     0.152 C 
ATOM     66  O22 NTO d 869     -20.637  19.255 -20.414  0.00  0.00    -0.340 OA
ATOM     67  O1C NTO d 869     -27.079  15.724 -18.503  0.00  0.00    -0.391 OA
ATOM     68  C15 NTO d 869     -25.592  19.337 -15.562  0.00  0.00     0.067 C 
ATOM     69  N3G NTO d 869     -16.697  22.476 -23.273  0.00  0.00    -0.210 NA
ATOM     70  C40 NTO d 869     -14.307  19.075 -23.737  0.00  0.00     0.103 C 
ATOM     71  S1G NTO d 869     -24.830  13.519 -18.767  0.00  0.00     0.156 S 
ATOM     72  O1L NTO d 869     -23.477  17.687 -18.697  0.00  0.00    -0.348 OA
ATOM     73  O57 NTO d 869      -9.131  24.279 -24.053  0.00  0.00    -0.572 OA
ATOM     74  O34 NTO d 869     -19.264  17.133 -24.068  0.00  0.00    -0.254 OA
ATOM     75  O1H NTO d 869     -26.327  13.529 -18.676  0.00  0.00    -0.296 OA
ATOM     76  O27 NTO d 869     -21.340  15.759 -18.243  0.00  0.00    -0.390 OA
ATOM     77  C50 NTO d 869      -9.587  19.780 -21.979  0.00  0.00     0.095 C 
ATOM     78  O3E NTO d 869     -17.527  21.009 -19.290  0.00  0.00    -0.572 OA
ATOM     79  O25 NTO d 869     -24.083  20.056 -20.046  0.00  0.00    -0.646 OA
ATOM     80  S3H NTO d 869     -16.242  23.130 -24.699  0.00  0.00     0.156 S 
ATOM     81  S35 NTO d 869     -20.112  16.012 -24.354  0.00  0.00     0.251 S 
ATOM     82  O1I NTO d 869     -24.250  12.961 -17.500  0.00  0.00    -0.296 OA
ATOM     83  C13 NTO d 869     -25.203  18.505 -16.787  0.00  0.00     0.090 C 
ATOM     84  O58 NTO d 869      -9.658  24.999 -21.771  0.00  0.00    -0.572 OA
ATOM     85  O3A NTO d 869     -18.624  21.410 -21.391  0.00  0.00    -0.247 OA
ATOM     86  C1B NTO d 869     -26.005  16.642 -18.283  0.00  0.00     0.083 C 
ATOM     87  O4C NTO d 869     -10.276  17.915 -25.956  0.00  0.00    -0.572 OA
ATOM     88  O4E NTO d 869      -9.793  19.679 -27.578  0.00  0.00    -0.572 OA
ATOM     89  O36 NTO d 869     -21.209  15.931 -23.335  0.00  0.00    -0.572 OA
ATOM     90  O2A NTO d 869     -19.195  15.875 -20.125  0.00  0.00    -0.388 OA
ATOM     91  C30 NTO d 869     -18.281  19.160 -22.244  0.00  0.00     0.096 C 
ATOM     92  H   NTO d 869     -18.208  21.275 -24.017  0.00  0.00     0.076 H 
ATOM     93  H   NTO d 869      -6.858  20.347 -19.388  0.00  0.00     0.131 H 
ATOM     94  H   NTO d 869     -11.374  20.985 -23.389  0.00  0.00     0.133 H 
ATOM     95  H   NTO d 869     -23.272  15.042 -19.006  0.00  0.00     0.140 HD
ATOM     96  H   NTO d 869      -7.982  19.809 -16.291  0.00  0.00     0.231 HD
ATOM     97  H   NTO d 869     -15.995  20.574 -25.038  0.00  0.00     0.131 H 
ATOM     98  H   NTO d 869     -19.416  17.434 -18.804  0.00  0.00     0.094 H 
ATOM     99  H   NTO d 869     -21.655  18.356 -18.076  0.00  0.00     0.092 H 
ATOM    100  H   NTO d 869     -24.976  15.262 -17.012  0.00  0.00     0.076 H 
ATOM    101  H   NTO d 869     -16.430  24.944 -25.614  0.00  0.00     0.231 HD
ATOM    102  H   NTO d 869     -16.439  18.157 -22.542  0.00  0.00     0.090 H 
ATOM    103  H   NTO d 869     -13.670  20.857 -24.736  0.00  0.00     0.091 H 
ATOM    104  H   NTO d 869      -7.680  19.898 -22.886  0.00  0.00     0.090 H 
ATOM    105  H   NTO d 869      -9.112  19.630 -19.286  0.00  0.00     0.076 H 
ATOM    106  H   NTO d 869      -8.586  17.903 -21.685  0.00  0.00     0.089 H 
ATOM    107  H   NTO d 869     -22.380  18.430 -21.031  0.00  0.00     0.104 H 
ATOM    108  H   NTO d 869     -21.806  16.217 -20.185  0.00  0.00     0.091 H 
ATOM    109  H   NTO d 869     -13.911  18.422 -26.209  0.00  0.00     0.210 HD
ATOM    110  H   NTO d 869     -24.768  13.039 -20.748  0.00  0.00     0.231 HD
ATOM    111  H   NTO d 869      -4.151  19.155 -20.990  0.00  0.00     0.066 H 
ATOM    112  H   NTO d 869      -4.805  19.827 -19.516  0.00  0.00     0.066 H 
ATOM    113  H   NTO d 869      -4.934  20.717 -21.014  0.00  0.00     0.066 H 
ATOM    114  H   NTO d 869     -16.584  22.770 -26.677  0.00  0.00     0.231 HD
ATOM    115  H   NTO d 869      -9.610  17.990 -16.117  0.00  0.00     0.231 HD
ATOM    116  H   NTO d 869     -16.800  20.489 -21.468  0.00  0.00     0.092 H 
ATOM    117  H   NTO d 869     -22.732  16.399 -17.253  0.00  0.00     0.131 H 
ATOM    118  H   NTO d 869     -20.252  17.703 -21.677  0.00  0.00     0.133 H 
ATOM    119  H   NTO d 869      -7.013  17.690 -19.329  0.00  0.00     0.140 HD
ATOM    120  H   NTO d 869     -18.221  16.465 -22.441  0.00  0.00     0.080 H 
ATOM    121  H   NTO d 869     -17.375  16.375 -23.984  0.00  0.00     0.080 H 
ATOM    122  H   NTO d 869     -26.731  17.092 -16.330  0.00  0.00     0.091 H 
ATOM    123  H   NTO d 869     -11.942  18.390 -24.798  0.00  0.00     0.097 H 
ATOM    124  H   NTO d 869      -9.268  21.512 -23.979  0.00  0.00     0.080 H 
ATOM    125  H   NTO d 869      -7.808  22.306 -23.420  0.00  0.00     0.080 H 
ATOM    126  H   NTO d 869     -14.474  23.468 -25.661  0.00  0.00     0.231 HD
ATOM    127  H   NTO d 869     -27.111  18.966 -18.465  0.00  0.00     0.210 HD
ATOM    128  H   NTO d 869      -7.214  17.558 -15.801  0.00  0.00     0.231 HD
ATOM    129  H   NTO d 869     -10.968  18.517 -20.224  0.00  0.00     0.210 HD
ATOM    130  H   NTO d 869     -12.793  17.763 -22.993  0.00  0.00     0.104 H 
ATOM    131  H   NTO d 869     -26.830  15.094 -19.197  0.00  0.00     0.210 HD
ATOM    132  H   NTO d 869     -26.395  19.994 -15.826  0.00  0.00     0.080 H 
ATOM    133  H   NTO d 869     -25.895  18.673 -14.779  0.00  0.00     0.080 H 
ATOM    134  H   NTO d 869     -15.871  22.380 -22.681  0.00  0.00     0.140 HD
ATOM    135  H   NTO d 869     -14.802  18.215 -24.137  0.00  0.00     0.092 H 
ATOM    136  H   NTO d 869     -26.698  13.890 -19.496  0.00  0.00     0.231 HD
ATOM    137  H   NTO d 869     -20.912  16.171 -17.475  0.00  0.00     0.210 HD
ATOM    138  H   NTO d 869     -10.251  20.435 -21.455  0.00  0.00     0.091 H 
ATOM    139  H   NTO d 869     -23.282  12.956 -17.563  0.00  0.00     0.231 HD
ATOM    140  H   NTO d 869     -24.939  19.124 -17.618  0.00  0.00     0.090 H 
ATOM    141  H   NTO d 869     -25.802  17.175 -19.189  0.00  0.00     0.089 H 
ATOM    142  H   NTO d 869     -19.627  15.525 -20.920  0.00  0.00     0.210 HD
ATOM    143  H   NTO d 869     -19.227  19.271 -22.732  0.00  0.00     0.091 H 
ENDROOT
TORSDOF 46
ENDMDL
MODEL 60
REMARK VINA RESULT:      -5.4      3.226      5.741
REMARK  0 active torsions:
REMARK  status: ('A' for Active; 'I' for Inactive)
REMARK       I    between atoms: O4A_2  and  C49_47 
REMARK       I    between atoms: O4A_2  and  S4B_15 
REMARK       I    between atoms: C3F_4  and  N3G_69 
REMARK       I    between atoms: S17_5  and  O16_54 
REMARK       I    between atoms: C5L_6  and  O5M_26 
REMARK       I    between atoms: C4F_7  and  O4G_60 
REMARK       I    between atoms: N1F_9  and  C1E_19 
REMARK       I    between atoms: N1F_9  and  S1G_71 
REMARK       I    between atoms: O5J_11  and  S5H_38 
REMARK       I    between atoms: C3L_12  and  O3M_62 
REMARK       I    between atoms: C29_13  and  O2A_90 
REMARK       I    between atoms: S3B_14  and  O3A_85 
REMARK       I    between atoms: C20_18  and  O1L_72 
REMARK       I    between atoms: O3J_20  and  S3H_80 
REMARK       I    between atoms: C31_23  and  C33_44 
REMARK       I    between atoms: C46_25  and  O47_33 
REMARK       I    between atoms: O5M_26  and  C5N_35 
REMARK       I    between atoms: C51_28  and  C53_48 
REMARK       I    between atoms: C5F_29  and  N5G_43 
REMARK       I    between atoms: C59_30  and  O5A_59 
REMARK       I    between atoms: C21_31  and  C23_64 
REMARK       I    between atoms: C26_32  and  O27_76 
REMARK       I    between atoms: O1J_34  and  S1G_71 
REMARK       I    between atoms: O3K_36  and  S3H_80 
REMARK       I    between atoms: O5I_37  and  S5H_38 
REMARK       I    between atoms: S5H_38  and  O5K_53 
REMARK       I    between atoms: S5H_38  and  N5G_43 
REMARK       I    between atoms: C39_39  and  O3A_85 
REMARK       I    between atoms: C1K_40  and  O1L_72 
REMARK       I    between atoms: C2C_41  and  O2D_45 
REMARK       I    between atoms: C33_44  and  O34_74 
REMARK       I    between atoms: O2D_45  and  C30_91 
REMARK       I    between atoms: C12_46  and  O10_51 
REMARK       I    between atoms: C53_48  and  O54_57 
REMARK       I    between atoms: O3I_50  and  S3H_80 
REMARK       I    between atoms: O16_54  and  C15_68 
REMARK       I    between atoms: C43_56  and  C41_65 
REMARK       I    between atoms: O54_57  and  S55_58 
REMARK       I    between atoms: O4G_60  and  C50_77 
REMARK       I    between atoms: O3M_62  and  C40_70 
REMARK       I    between atoms: O1C_67  and  C1B_86 
REMARK       I    between atoms: C15_68  and  C13_83 
REMARK       I    between atoms: N3G_69  and  S3H_80 
REMARK       I    between atoms: S1G_71  and  O1H_75 
REMARK       I    between atoms: S1G_71  and  O1I_82 
REMARK       I    between atoms: O34_74  and  S35_81 
ROOT
ATOM      1  O42 NTO d 869     -20.482  18.406 -20.035  0.00  0.00    -0.340 OA
ATOM      2  O4A NTO d 869     -22.491  19.727 -17.255  0.00  0.00    -0.244 OA
ATOM      3  O32 NTO d 869     -16.554  20.421 -17.553  0.00  0.00    -0.349 OA
ATOM      4  C3F NTO d 869     -16.730  22.001 -19.362  0.00  0.00     0.083 C 
ATOM      5  S17 NTO d 869      -7.597  20.636 -27.031  0.00  0.00     0.251 S 
ATOM      6  C5L NTO d 869     -24.801  15.768 -22.358  0.00  0.00     0.149 C 
ATOM      7  C4F NTO d 869     -21.679  18.701 -19.298  0.00  0.00     0.161 C 
ATOM      8  O14 NTO d 869      -7.709  18.921 -23.344  0.00  0.00    -0.349 OA
ATOM      9  N1F NTO d 869      -7.336  17.855 -19.834  0.00  0.00    -0.210 NA
ATOM     10  O37 NTO d 869     -13.157  17.840 -15.413  0.00  0.00    -0.572 OA
ATOM     11  O5J NTO d 869     -23.367  14.565 -24.849  0.00  0.00    -0.296 OA
ATOM     12  C3L NTO d 869     -17.498  21.101 -18.395  0.00  0.00     0.150 C 
ATOM     13  C29 NTO d 869     -12.171  18.080 -20.514  0.00  0.00     0.110 C 
ATOM     14  S3B NTO d 869     -15.577  21.721 -22.510  0.00  0.00     0.252 S 
ATOM     15  S4B NTO d 869     -22.843  19.100 -16.019  0.00  0.00     0.252 S 
ATOM     16  O24 NTO d 869     -11.157  22.250 -22.540  0.00  0.00    -0.646 OA
ATOM     17  O45 NTO d 869     -17.623  18.382 -20.727  0.00  0.00    -0.646 OA
ATOM     18  C20 NTO d 869     -10.249  19.394 -21.392  0.00  0.00     0.103 C 
ATOM     19  C1E NTO d 869      -6.891  18.268 -21.171  0.00  0.00     0.081 C 
ATOM     20  O3J NTO d 869     -18.690  25.118 -19.837  0.00  0.00    -0.296 OA
ATOM     21  O38 NTO d 869     -12.656  20.146 -14.741  0.00  0.00    -0.572 OA
ATOM     22  O18 NTO d 869      -7.402  19.262 -27.597  0.00  0.00    -0.572 OA
ATOM     23  C31 NTO d 869     -15.742  19.516 -18.319  0.00  0.00     0.091 C 
ATOM     24  O52 NTO d 869     -24.994  17.164 -22.081  0.00  0.00    -0.349 OA
ATOM     25  C46 NTO d 869     -20.139  19.985 -17.792  0.00  0.00     0.094 C 
ATOM     26  O5M NTO d 869     -25.660  14.930 -21.575  0.00  0.00    -0.364 OA
ATOM     27  O3D NTO d 869     -14.752  22.565 -23.436  0.00  0.00    -0.572 OA
ATOM     28  C51 NTO d 869     -24.530  17.548 -20.776  0.00  0.00     0.091 C 
ATOM     29  C5F NTO d 869     -23.334  15.361 -22.202  0.00  0.00     0.081 C 
ATOM     30  C59 NTO d 869     -22.803  15.772 -20.828  0.00  0.00     0.083 C 
ATOM     31  C21 NTO d 869     -10.918  20.629 -20.808  0.00  0.00     0.152 C 
ATOM     32  C26 NTO d 869     -10.645  18.202 -20.523  0.00  0.00     0.092 C 
ATOM     33  O47 NTO d 869     -19.877  20.348 -16.433  0.00  0.00    -0.390 OA
ATOM     34  O1J NTO d 869      -6.750  16.327 -17.878  0.00  0.00    -0.296 OA
ATOM     35  C5N NTO d 869     -26.941  14.856 -22.210  0.00  0.00     0.007 C 
ATOM     36  O3K NTO d 869     -18.135  23.810 -17.857  0.00  0.00    -0.296 OA
ATOM     37  O5I NTO d 869     -21.269  13.616 -24.014  0.00  0.00    -0.296 OA
ATOM     38  S5H NTO d 869     -22.764  13.565 -23.909  0.00  0.00     0.156 S 
ATOM     39  C39 NTO d 869     -15.873  21.099 -20.254  0.00  0.00     0.108 C 
ATOM     40  C1K NTO d 869      -8.130  18.532 -22.027  0.00  0.00     0.150 C 
ATOM     41  C2C NTO d 869     -12.813  19.393 -20.058  0.00  0.00     0.160 C 
ATOM     42  O19 NTO d 869      -6.406  21.490 -27.351  0.00  0.00    -0.572 OA
ATOM     43  N5G NTO d 869     -23.202  13.907 -22.375  0.00  0.00    -0.210 NA
ATOM     44  C33 NTO d 869     -14.773  18.786 -17.384  0.00  0.00     0.067 C 
ATOM     45  O2D NTO d 869     -14.241  19.273 -20.179  0.00  0.00    -0.348 OA
ATOM     46  C12 NTO d 869      -5.758  20.093 -22.457  0.00  0.00     0.089 C 
ATOM     47  C49 NTO d 869     -21.366  19.074 -17.846  0.00  0.00     0.134 C 
ATOM     48  C53 NTO d 869     -24.765  19.054 -20.636  0.00  0.00     0.067 C 
ATOM     49  O4D NTO d 869     -21.864  19.498 -14.955  0.00  0.00    -0.572 OA
ATOM     50  O3I NTO d 869     -20.039  23.155 -19.259  0.00  0.00    -0.296 OA
ATOM     51  O10 NTO d 869      -5.193  21.400 -22.331  0.00  0.00    -0.390 OA
ATOM     52  O1A NTO d 869      -8.831  21.245 -27.624  0.00  0.00    -0.572 OA
ATOM     53  O5K NTO d 869     -23.251  12.195 -24.280  0.00  0.00    -0.296 OA
ATOM     54  O16 NTO d 869      -7.757  20.547 -25.611  0.00  0.00    -0.254 OA
ATOM     55  O56 NTO d 869     -22.974  21.849 -21.391  0.00  0.00    -0.572 OA
ATOM     56  C43 NTO d 869     -18.217  17.549 -20.006  0.00  0.00     0.206 C 
ATOM     57  O54 NTO d 869     -24.117  19.758 -21.697  0.00  0.00    -0.254 OA
ATOM     58  S55 NTO d 869     -24.246  21.180 -21.819  0.00  0.00     0.251 S 
ATOM     59  O5A NTO d 869     -21.394  15.529 -20.767  0.00  0.00    -0.391 OA
ATOM     60  O4G NTO d 869     -22.603  17.603 -19.293  0.00  0.00    -0.348 OA
ATOM     61  O3C NTO d 869     -17.010  22.151 -22.606  0.00  0.00    -0.572 OA
ATOM     62  O3M NTO d 869     -18.208  20.145 -19.194  0.00  0.00    -0.348 OA
ATOM     63  O44 NTO d 869     -17.893  16.336 -19.925  0.00  0.00    -0.646 OA
ATOM     64  C23 NTO d 869     -10.441  21.839 -21.596  0.00  0.00     0.206 C 
ATOM     65  C41 NTO d 869     -19.393  18.035 -19.172  0.00  0.00     0.152 C 
ATOM     66  O22 NTO d 869     -12.350  20.499 -20.850  0.00  0.00    -0.340 OA
ATOM     67  O1C NTO d 869      -4.870  19.311 -20.347  0.00  0.00    -0.391 OA
ATOM     68  C15 NTO d 869      -6.616  20.524 -24.751  0.00  0.00     0.067 C 
ATOM     69  N3G NTO d 869     -17.677  22.789 -20.172  0.00  0.00    -0.210 NA
ATOM     70  C40 NTO d 869     -18.934  19.236 -18.357  0.00  0.00     0.103 C 
ATOM     71  S1G NTO d 869      -6.318  16.720 -19.260  0.00  0.00     0.156 S 
ATOM     72  O1L NTO d 869      -8.831  19.610 -21.391  0.00  0.00    -0.348 OA
ATOM     73  O57 NTO d 869     -25.371  21.651 -20.947  0.00  0.00    -0.572 OA
ATOM     74  O34 NTO d 869     -13.868  19.695 -16.751  0.00  0.00    -0.254 OA
ATOM     75  O1H NTO d 869      -4.925  17.274 -19.223  0.00  0.00    -0.296 OA
ATOM     76  O27 NTO d 869     -10.081  17.000 -21.057  0.00  0.00    -0.390 OA
ATOM     77  C50 NTO d 869     -23.043  17.266 -20.617  0.00  0.00     0.095 C 
ATOM     78  O3E NTO d 869     -15.466  20.281 -22.914  0.00  0.00    -0.572 OA
ATOM     79  O25 NTO d 869      -9.344  22.353 -21.271  0.00  0.00    -0.646 OA
ATOM     80  S3H NTO d 869     -18.653  23.732 -19.262  0.00  0.00     0.156 S 
ATOM     81  S35 NTO d 869     -12.815  19.215 -15.905  0.00  0.00     0.251 S 
ATOM     82  O1I NTO d 869      -6.360  15.518 -20.158  0.00  0.00    -0.296 OA
ATOM     83  C13 NTO d 869      -7.022  20.182 -23.314  0.00  0.00     0.090 C 
ATOM     84  O58 NTO d 869     -24.539  21.523 -23.248  0.00  0.00    -0.572 OA
ATOM     85  O3A NTO d 869     -15.108  21.893 -21.168  0.00  0.00    -0.247 OA
ATOM     86  C1B NTO d 869      -6.084  19.562 -21.058  0.00  0.00     0.083 C 
ATOM     87  O4C NTO d 869     -22.828  17.609 -16.188  0.00  0.00    -0.572 OA
ATOM     88  O4E NTO d 869     -24.223  19.539 -15.632  0.00  0.00    -0.572 OA
ATOM     89  O36 NTO d 869     -11.528  19.161 -16.673  0.00  0.00    -0.572 OA
ATOM     90  O2A NTO d 869     -12.556  17.026 -19.631  0.00  0.00    -0.388 OA
ATOM     91  C30 NTO d 869     -14.940  20.246 -19.388  0.00  0.00     0.096 C 
ATOM     92  H   NTO d 869     -16.105  22.687 -18.830  0.00  0.00     0.076 H 
ATOM     93  H   NTO d 869     -25.075  15.619 -23.381  0.00  0.00     0.131 H 
ATOM     94  H   NTO d 869     -22.129  19.532 -19.799  0.00  0.00     0.133 H 
ATOM     95  H   NTO d 869      -8.278  17.470 -19.893  0.00  0.00     0.140 HD
ATOM     96  H   NTO d 869     -23.102  14.354 -25.759  0.00  0.00     0.231 HD
ATOM     97  H   NTO d 869     -18.173  21.661 -17.782  0.00  0.00     0.131 H 
ATOM     98  H   NTO d 869     -12.505  17.863 -21.507  0.00  0.00     0.094 H 
ATOM     99  H   NTO d 869     -10.554  19.201 -22.399  0.00  0.00     0.092 H 
ATOM    100  H   NTO d 869      -6.284  17.504 -21.610  0.00  0.00     0.076 H 
ATOM    101  H   NTO d 869     -19.270  25.677 -19.296  0.00  0.00     0.231 HD
ATOM    102  H   NTO d 869     -16.395  18.821 -18.803  0.00  0.00     0.090 H 
ATOM    103  H   NTO d 869     -20.319  20.867 -18.370  0.00  0.00     0.091 H 
ATOM    104  H   NTO d 869     -25.055  16.990 -20.029  0.00  0.00     0.090 H 
ATOM    105  H   NTO d 869     -22.759  15.863 -22.952  0.00  0.00     0.076 H 
ATOM    106  H   NTO d 869     -23.307  15.206 -20.074  0.00  0.00     0.089 H 
ATOM    107  H   NTO d 869     -10.651  20.746 -19.778  0.00  0.00     0.104 H 
ATOM    108  H   NTO d 869     -10.281  18.349 -19.528  0.00  0.00     0.091 H 
ATOM    109  H   NTO d 869     -19.714  19.547 -15.911  0.00  0.00     0.210 HD
ATOM    110  H   NTO d 869      -6.722  17.104 -17.298  0.00  0.00     0.231 HD
ATOM    111  H   NTO d 869     -27.590  14.231 -21.633  0.00  0.00     0.066 H 
ATOM    112  H   NTO d 869     -26.829  14.443 -23.191  0.00  0.00     0.066 H 
ATOM    113  H   NTO d 869     -27.360  15.838 -22.282  0.00  0.00     0.066 H 
ATOM    114  H   NTO d 869     -18.722  24.372 -17.327  0.00  0.00     0.231 HD
ATOM    115  H   NTO d 869     -21.003  13.413 -24.925  0.00  0.00     0.231 HD
ATOM    116  H   NTO d 869     -16.516  20.453 -20.815  0.00  0.00     0.092 H 
ATOM    117  H   NTO d 869      -8.755  17.668 -22.115  0.00  0.00     0.131 H 
ATOM    118  H   NTO d 869     -12.540  19.579 -19.041  0.00  0.00     0.133 H 
ATOM    119  H   NTO d 869     -24.096  13.460 -22.171  0.00  0.00     0.140 HD
ATOM    120  H   NTO d 869     -14.211  18.075 -17.952  0.00  0.00     0.080 H 
ATOM    121  H   NTO d 869     -15.346  18.298 -16.622  0.00  0.00     0.080 H 
ATOM    122  H   NTO d 869      -5.069  19.423 -22.928  0.00  0.00     0.091 H 
ATOM    123  H   NTO d 869     -21.157  18.180 -17.295  0.00  0.00     0.097 H 
ATOM    124  H   NTO d 869     -24.371  19.387 -19.699  0.00  0.00     0.080 H 
ATOM    125  H   NTO d 869     -25.816  19.247 -20.682  0.00  0.00     0.080 H 
ATOM    126  H   NTO d 869     -20.619  23.714 -18.719  0.00  0.00     0.231 HD
ATOM    127  H   NTO d 869      -5.834  21.988 -21.902  0.00  0.00     0.210 HD
ATOM    128  H   NTO d 869     -22.988  11.996 -25.193  0.00  0.00     0.231 HD
ATOM    129  H   NTO d 869     -20.946  16.047 -21.453  0.00  0.00     0.210 HD
ATOM    130  H   NTO d 869     -19.731  17.259 -18.517  0.00  0.00     0.104 H 
ATOM    131  H   NTO d 869      -5.077  18.975 -19.461  0.00  0.00     0.210 HD
ATOM    132  H   NTO d 869      -6.148  21.486 -24.763  0.00  0.00     0.080 H 
ATOM    133  H   NTO d 869      -5.937  19.774 -25.102  0.00  0.00     0.080 H 
ATOM    134  H   NTO d 869     -18.256  22.147 -20.713  0.00  0.00     0.140 HD
ATOM    135  H   NTO d 869     -18.314  18.881 -17.562  0.00  0.00     0.092 H 
ATOM    136  H   NTO d 869      -4.901  18.050 -18.642  0.00  0.00     0.231 HD
ATOM    137  H   NTO d 869     -10.409  16.862 -21.959  0.00  0.00     0.210 HD
ATOM    138  H   NTO d 869     -22.505  17.854 -21.331  0.00  0.00     0.091 H 
ATOM    139  H   NTO d 869      -7.263  15.162 -20.179  0.00  0.00     0.231 HD
ATOM    140  H   NTO d 869      -7.664  20.929 -22.897  0.00  0.00     0.090 H 
ATOM    141  H   NTO d 869      -6.662  20.291 -20.529  0.00  0.00     0.089 H 
ATOM    142  H   NTO d 869     -12.250  17.227 -18.733  0.00  0.00     0.210 HD
ATOM    143  H   NTO d 869     -14.229  20.905 -18.935  0.00  0.00     0.091 H 
ENDROOT
TORSDOF 46
ENDMDL
MODEL 61
REMARK VINA RESULT:      -5.4      3.824     14.207
REMARK  0 active torsions:
REMARK  status: ('A' for Active; 'I' for Inactive)
REMARK       I    between atoms: O4A_2  and  C49_47 
REMARK       I    between atoms: O4A_2  and  S4B_15 
REMARK       I    between atoms: C3F_4  and  N3G_69 
REMARK       I    between atoms: S17_5  and  O16_54 
REMARK       I    between atoms: C5L_6  and  O5M_26 
REMARK       I    between atoms: C4F_7  and  O4G_60 
REMARK       I    between atoms: N1F_9  and  C1E_19 
REMARK       I    between atoms: N1F_9  and  S1G_71 
REMARK       I    between atoms: O5J_11  and  S5H_38 
REMARK       I    between atoms: C3L_12  and  O3M_62 
REMARK       I    between atoms: C29_13  and  O2A_90 
REMARK       I    between atoms: S3B_14  and  O3A_85 
REMARK       I    between atoms: C20_18  and  O1L_72 
REMARK       I    between atoms: O3J_20  and  S3H_80 
REMARK       I    between atoms: C31_23  and  C33_44 
REMARK       I    between atoms: C46_25  and  O47_33 
REMARK       I    between atoms: O5M_26  and  C5N_35 
REMARK       I    between atoms: C51_28  and  C53_48 
REMARK       I    between atoms: C5F_29  and  N5G_43 
REMARK       I    between atoms: C59_30  and  O5A_59 
REMARK       I    between atoms: C21_31  and  C23_64 
REMARK       I    between atoms: C26_32  and  O27_76 
REMARK       I    between atoms: O1J_34  and  S1G_71 
REMARK       I    between atoms: O3K_36  and  S3H_80 
REMARK       I    between atoms: O5I_37  and  S5H_38 
REMARK       I    between atoms: S5H_38  and  O5K_53 
REMARK       I    between atoms: S5H_38  and  N5G_43 
REMARK       I    between atoms: C39_39  and  O3A_85 
REMARK       I    between atoms: C1K_40  and  O1L_72 
REMARK       I    between atoms: C2C_41  and  O2D_45 
REMARK       I    between atoms: C33_44  and  O34_74 
REMARK       I    between atoms: O2D_45  and  C30_91 
REMARK       I    between atoms: C12_46  and  O10_51 
REMARK       I    between atoms: C53_48  and  O54_57 
REMARK       I    between atoms: O3I_50  and  S3H_80 
REMARK       I    between atoms: O16_54  and  C15_68 
REMARK       I    between atoms: C43_56  and  C41_65 
REMARK       I    between atoms: O54_57  and  S55_58 
REMARK       I    between atoms: O4G_60  and  C50_77 
REMARK       I    between atoms: O3M_62  and  C40_70 
REMARK       I    between atoms: O1C_67  and  C1B_86 
REMARK       I    between atoms: C15_68  and  C13_83 
REMARK       I    between atoms: N3G_69  and  S3H_80 
REMARK       I    between atoms: S1G_71  and  O1H_75 
REMARK       I    between atoms: S1G_71  and  O1I_82 
REMARK       I    between atoms: O34_74  and  S35_81 
ROOT
ATOM      1  O42 NTO d 869     -10.759  21.067 -19.399  0.00  0.00    -0.340 OA
ATOM      2  O4A NTO d 869      -9.641  22.569 -16.236  0.00  0.00    -0.244 OA
ATOM      3  O32 NTO d 869     -15.425  21.779 -17.560  0.00  0.00    -0.349 OA
ATOM      4  C3F NTO d 869     -15.259  19.391 -17.302  0.00  0.00     0.083 C 
ATOM      5  S17 NTO d 869     -22.278  13.811 -25.282  0.00  0.00     0.251 S 
ATOM      6  C5L NTO d 869      -5.615  20.862 -21.521  0.00  0.00     0.149 C 
ATOM      7  C4F NTO d 869      -9.815  21.514 -18.414  0.00  0.00     0.161 C 
ATOM      8  O14 NTO d 869     -22.490  17.799 -24.506  0.00  0.00    -0.349 OA
ATOM      9  N1F NTO d 869     -23.274  21.248 -23.464  0.00  0.00    -0.210 NA
ATOM     10  O37 NTO d 869     -18.521  24.952 -19.327  0.00  0.00    -0.572 OA
ATOM     11  O5J NTO d 869      -6.262  19.535 -24.265  0.00  0.00    -0.296 OA
ATOM     12  C3L NTO d 869     -14.509  20.720 -17.237  0.00  0.00     0.150 C 
ATOM     13  C29 NTO d 869     -18.563  20.680 -22.293  0.00  0.00     0.110 C 
ATOM     14  S3B NTO d 869     -15.714  16.995 -19.619  0.00  0.00     0.252 S 
ATOM     15  S4B NTO d 869      -9.400  23.945 -15.926  0.00  0.00     0.252 S 
ATOM     16  O24 NTO d 869     -20.058  16.554 -20.487  0.00  0.00    -0.646 OA
ATOM     17  O45 NTO d 869     -13.364  20.457 -20.623  0.00  0.00    -0.646 OA
ATOM     18  C20 NTO d 869     -20.525  19.150 -22.316  0.00  0.00     0.103 C 
ATOM     19  C1E NTO d 869     -23.540  19.917 -24.022  0.00  0.00     0.081 C 
ATOM     20  O3J NTO d 869     -13.967  17.207 -14.592  0.00  0.00    -0.296 OA
ATOM     21  O38 NTO d 869     -19.626  24.115 -17.302  0.00  0.00    -0.572 OA
ATOM     22  O18 NTO d 869     -22.062  14.166 -26.723  0.00  0.00    -0.572 OA
ATOM     23  C31 NTO d 869     -15.863  21.680 -18.924  0.00  0.00     0.091 C 
ATOM     24  O52 NTO d 869      -5.785  20.261 -20.226  0.00  0.00    -0.349 OA
ATOM     25  C46 NTO d 869     -11.850  21.929 -17.010  0.00  0.00     0.094 C 
ATOM     26  O5M NTO d 869      -4.757  22.009 -21.485  0.00  0.00    -0.364 OA
ATOM     27  O3D NTO d 869     -16.514  15.730 -19.721  0.00  0.00    -0.572 OA
ATOM     28  C51 NTO d 869      -6.557  21.074 -19.327  0.00  0.00     0.091 C 
ATOM     29  C5F NTO d 869      -6.962  21.194 -22.167  0.00  0.00     0.081 C 
ATOM     30  C59 NTO d 869      -7.817  22.043 -21.226  0.00  0.00     0.083 C 
ATOM     31  C21 NTO d 869     -20.260  18.904 -20.838  0.00  0.00     0.152 C 
ATOM     32  C26 NTO d 869     -20.049  20.566 -22.638  0.00  0.00     0.092 C 
ATOM     33  O47 NTO d 869     -12.434  22.802 -16.038  0.00  0.00    -0.390 OA
ATOM     34  O1J NTO d 869     -23.871  23.714 -23.715  0.00  0.00    -0.296 OA
ATOM     35  C5N NTO d 869      -3.395  21.571 -21.535  0.00  0.00     0.007 C 
ATOM     36  O3K NTO d 869     -14.586  19.563 -14.650  0.00  0.00    -0.296 OA
ATOM     37  O5I NTO d 869      -8.223  20.721 -25.130  0.00  0.00    -0.296 OA
ATOM     38  S5H NTO d 869      -6.799  20.871 -24.684  0.00  0.00     0.156 S 
ATOM     39  C39 NTO d 869     -15.718  19.187 -18.747  0.00  0.00     0.108 C 
ATOM     40  C1K NTO d 869     -22.249  19.100 -23.946  0.00  0.00     0.150 C 
ATOM     41  C2C NTO d 869     -18.317  20.284 -20.834  0.00  0.00     0.160 C 
ATOM     42  O19 NTO d 869     -23.545  13.020 -25.140  0.00  0.00    -0.572 OA
ATOM     43  N5G NTO d 869      -6.741  21.913 -23.430  0.00  0.00    -0.210 NA
ATOM     44  C33 NTO d 869     -16.808  22.843 -19.241  0.00  0.00     0.067 C 
ATOM     45  O2D NTO d 869     -16.901  20.291 -20.588  0.00  0.00    -0.348 OA
ATOM     46  C12 NTO d 869     -24.780  17.773 -23.654  0.00  0.00     0.089 C 
ATOM     47  C49 NTO d 869     -10.468  22.454 -17.397  0.00  0.00     0.134 C 
ATOM     48  C53 NTO d 869      -6.684  20.299 -18.013  0.00  0.00     0.067 C 
ATOM     49  O4D NTO d 869     -10.623  24.542 -15.298  0.00  0.00    -0.572 OA
ATOM     50  O3I NTO d 869     -12.358  18.867 -15.404  0.00  0.00    -0.296 OA
ATOM     51  O10 NTO d 869     -25.627  17.087 -22.730  0.00  0.00    -0.390 OA
ATOM     52  O1A NTO d 869     -21.117  13.002 -24.792  0.00  0.00    -0.572 OA
ATOM     53  O5K NTO d 869      -5.967  21.395 -25.817  0.00  0.00    -0.296 OA
ATOM     54  O16 NTO d 869     -22.372  15.012 -24.507  0.00  0.00    -0.254 OA
ATOM     55  O56 NTO d 869      -8.864  17.993 -16.780  0.00  0.00    -0.572 OA
ATOM     56  C43 NTO d 869     -12.749  21.546 -20.693  0.00  0.00     0.206 C 
ATOM     57  O54 NTO d 869      -7.258  19.012 -18.248  0.00  0.00    -0.254 OA
ATOM     58  S55 NTO d 869      -7.420  18.075 -17.177  0.00  0.00     0.251 S 
ATOM     59  O5A NTO d 869      -9.126  22.204 -21.782  0.00  0.00    -0.391 OA
ATOM     60  O4G NTO d 869      -8.693  22.190 -18.999  0.00  0.00    -0.348 OA
ATOM     61  O3C NTO d 869     -14.416  16.697 -18.931  0.00  0.00    -0.572 OA
ATOM     62  O3M NTO d 869     -13.473  20.660 -18.226  0.00  0.00    -0.348 OA
ATOM     63  O44 NTO d 869     -12.813  22.322 -21.682  0.00  0.00    -0.646 OA
ATOM     64  C23 NTO d 869     -20.832  17.541 -20.479  0.00  0.00     0.206 C 
ATOM     65  C41 NTO d 869     -11.885  21.956 -19.512  0.00  0.00     0.152 C 
ATOM     66  O22 NTO d 869     -18.852  18.981 -20.554  0.00  0.00    -0.340 OA
ATOM     67  O1C NTO d 869     -25.856  19.915 -23.326  0.00  0.00    -0.391 OA
ATOM     68  C15 NTO d 869     -23.621  15.691 -24.366  0.00  0.00     0.067 C 
ATOM     69  N3G NTO d 869     -14.371  18.294 -16.876  0.00  0.00    -0.210 NA
ATOM     70  C40 NTO d 869     -12.737  21.889 -18.252  0.00  0.00     0.103 C 
ATOM     71  S1G NTO d 869     -24.111  22.359 -24.312  0.00  0.00     0.156 S 
ATOM     72  O1L NTO d 869     -21.930  18.989 -22.552  0.00  0.00    -0.348 OA
ATOM     73  O57 NTO d 869      -6.607  18.524 -15.999  0.00  0.00    -0.572 OA
ATOM     74  O34 NTO d 869     -17.991  22.792 -18.438  0.00  0.00    -0.254 OA
ATOM     75  O1H NTO d 869     -25.573  22.028 -24.259  0.00  0.00    -0.296 OA
ATOM     76  O27 NTO d 869     -20.229  20.835 -24.032  0.00  0.00    -0.390 OA
ATOM     77  C50 NTO d 869      -7.950  21.334 -19.880  0.00  0.00     0.095 C 
ATOM     78  O3E NTO d 869     -15.433  17.521 -20.996  0.00  0.00    -0.572 OA
ATOM     79  O25 NTO d 869     -22.055  17.473 -20.210  0.00  0.00    -0.646 OA
ATOM     80  S3H NTO d 869     -13.810  18.490 -15.354  0.00  0.00     0.156 S 
ATOM     81  S35 NTO d 869     -19.054  23.733 -18.634  0.00  0.00     0.251 S 
ATOM     82  O1I NTO d 869     -23.642  22.350 -25.737  0.00  0.00    -0.296 OA
ATOM     83  C13 NTO d 869     -23.427  17.060 -23.707  0.00  0.00     0.090 C 
ATOM     84  O58 NTO d 869      -6.946  16.728 -17.631  0.00  0.00    -0.572 OA
ATOM     85  O3A NTO d 869     -16.452  17.963 -18.865  0.00  0.00    -0.247 OA
ATOM     86  C1B NTO d 869     -24.614  19.222 -23.185  0.00  0.00     0.083 C 
ATOM     87  O4C NTO d 869      -9.059  24.691 -17.183  0.00  0.00    -0.572 OA
ATOM     88  O4E NTO d 869      -8.245  24.028 -14.975  0.00  0.00    -0.572 OA
ATOM     89  O36 NTO d 869     -20.132  23.117 -19.476  0.00  0.00    -0.572 OA
ATOM     90  O2A NTO d 869     -18.131  22.025 -22.504  0.00  0.00    -0.388 OA
ATOM     91  C30 NTO d 869     -16.589  20.367 -19.188  0.00  0.00     0.096 C 
ATOM     92  H   NTO d 869     -16.107  19.398 -16.648  0.00  0.00     0.076 H 
ATOM     93  H   NTO d 869      -5.129  20.132 -22.134  0.00  0.00     0.131 H 
ATOM     94  H   NTO d 869      -9.470  20.628 -17.923  0.00  0.00     0.133 H 
ATOM     95  H   NTO d 869     -22.276  21.451 -23.527  0.00  0.00     0.140 HD
ATOM     96  H   NTO d 869      -6.300  18.921 -25.016  0.00  0.00     0.231 HD
ATOM     97  H   NTO d 869     -14.098  20.898 -16.264  0.00  0.00     0.131 H 
ATOM     98  H   NTO d 869     -18.010  20.017 -22.924  0.00  0.00     0.094 H 
ATOM     99  H   NTO d 869     -20.002  18.460 -22.945  0.00  0.00     0.092 H 
ATOM    100  H   NTO d 869     -23.874  20.001 -25.036  0.00  0.00     0.076 H 
ATOM    101  H   NTO d 869     -13.634  17.324 -13.688  0.00  0.00     0.231 HD
ATOM    102  H   NTO d 869     -14.996  21.717 -19.550  0.00  0.00     0.090 H 
ATOM    103  H   NTO d 869     -11.761  20.945 -16.599  0.00  0.00     0.091 H 
ATOM    104  H   NTO d 869      -6.072  22.018 -19.189  0.00  0.00     0.090 H 
ATOM    105  H   NTO d 869      -7.481  20.279 -22.363  0.00  0.00     0.076 H 
ATOM    106  H   NTO d 869      -7.352  22.998 -21.097  0.00  0.00     0.089 H 
ATOM    107  H   NTO d 869     -20.735  19.657 -20.244  0.00  0.00     0.104 H 
ATOM    108  H   NTO d 869     -20.617  21.271 -22.068  0.00  0.00     0.091 H 
ATOM    109  H   NTO d 869     -12.515  23.693 -16.412  0.00  0.00     0.210 HD
ATOM    110  H   NTO d 869     -24.175  23.720 -22.794  0.00  0.00     0.231 HD
ATOM    111  H   NTO d 869      -2.746  22.421 -21.509  0.00  0.00     0.066 H 
ATOM    112  H   NTO d 869      -3.229  21.023 -22.439  0.00  0.00     0.066 H 
ATOM    113  H   NTO d 869      -3.192  20.941 -20.694  0.00  0.00     0.066 H 
ATOM    114  H   NTO d 869     -14.245  19.670 -13.749  0.00  0.00     0.231 HD
ATOM    115  H   NTO d 869      -8.264  20.101 -25.876  0.00  0.00     0.231 HD
ATOM    116  H   NTO d 869     -14.857  19.133 -19.381  0.00  0.00     0.092 H 
ATOM    117  H   NTO d 869     -21.447  19.556 -24.488  0.00  0.00     0.131 H 
ATOM    118  H   NTO d 869     -18.809  20.986 -20.195  0.00  0.00     0.133 H 
ATOM    119  H   NTO d 869      -5.827  22.363 -23.407  0.00  0.00     0.140 HD
ATOM    120  H   NTO d 869     -17.087  22.793 -20.272  0.00  0.00     0.080 H 
ATOM    121  H   NTO d 869     -16.297  23.758 -19.027  0.00  0.00     0.080 H 
ATOM    122  H   NTO d 869     -25.207  17.775 -24.635  0.00  0.00     0.091 H 
ATOM    123  H   NTO d 869     -10.577  23.422 -17.839  0.00  0.00     0.097 H 
ATOM    124  H   NTO d 869      -7.309  20.847 -17.340  0.00  0.00     0.080 H 
ATOM    125  H   NTO d 869      -5.709  20.172 -17.589  0.00  0.00     0.080 H 
ATOM    126  H   NTO d 869     -12.024  18.984 -14.501  0.00  0.00     0.231 HD
ATOM    127  H   NTO d 869     -25.221  17.099 -21.849  0.00  0.00     0.210 HD
ATOM    128  H   NTO d 869      -6.005  20.772 -26.560  0.00  0.00     0.231 HD
ATOM    129  H   NTO d 869      -9.539  21.334 -21.895  0.00  0.00     0.210 HD
ATOM    130  H   NTO d 869     -11.515  22.951 -19.649  0.00  0.00     0.104 H 
ATOM    131  H   NTO d 869     -25.751  20.832 -23.029  0.00  0.00     0.210 HD
ATOM    132  H   NTO d 869     -24.275  15.100 -23.760  0.00  0.00     0.080 H 
ATOM    133  H   NTO d 869     -24.043  15.836 -25.339  0.00  0.00     0.080 H 
ATOM    134  H   NTO d 869     -13.576  18.252 -17.513  0.00  0.00     0.140 HD
ATOM    135  H   NTO d 869     -13.403  22.726 -18.257  0.00  0.00     0.092 H 
ATOM    136  H   NTO d 869     -25.872  22.035 -23.336  0.00  0.00     0.231 HD
ATOM    137  H   NTO d 869     -19.716  20.198 -24.554  0.00  0.00     0.210 HD
ATOM    138  H   NTO d 869      -8.459  20.398 -19.980  0.00  0.00     0.091 H 
ATOM    139  H   NTO d 869     -22.696  22.565 -25.768  0.00  0.00     0.231 HD
ATOM    140  H   NTO d 869     -23.052  16.968 -22.709  0.00  0.00     0.090 H 
ATOM    141  H   NTO d 869     -24.317  19.229 -22.157  0.00  0.00     0.089 H 
ATOM    142  H   NTO d 869     -18.636  22.621 -21.929  0.00  0.00     0.210 HD
ATOM    143  H   NTO d 869     -17.498  20.326 -18.625  0.00  0.00     0.091 H 
ENDROOT
TORSDOF 46
ENDMDL
MODEL 62
REMARK VINA RESULT:      -5.3      3.867     14.344
REMARK  0 active torsions:
REMARK  status: ('A' for Active; 'I' for Inactive)
REMARK       I    between atoms: O4A_2  and  C49_47 
REMARK       I    between atoms: O4A_2  and  S4B_15 
REMARK       I    between atoms: C3F_4  and  N3G_69 
REMARK       I    between atoms: S17_5  and  O16_54 
REMARK       I    between atoms: C5L_6  and  O5M_26 
REMARK       I    between atoms: C4F_7  and  O4G_60 
REMARK       I    between atoms: N1F_9  and  C1E_19 
REMARK       I    between atoms: N1F_9  and  S1G_71 
REMARK       I    between atoms: O5J_11  and  S5H_38 
REMARK       I    between atoms: C3L_12  and  O3M_62 
REMARK       I    between atoms: C29_13  and  O2A_90 
REMARK       I    between atoms: S3B_14  and  O3A_85 
REMARK       I    between atoms: C20_18  and  O1L_72 
REMARK       I    between atoms: O3J_20  and  S3H_80 
REMARK       I    between atoms: C31_23  and  C33_44 
REMARK       I    between atoms: C46_25  and  O47_33 
REMARK       I    between atoms: O5M_26  and  C5N_35 
REMARK       I    between atoms: C51_28  and  C53_48 
REMARK       I    between atoms: C5F_29  and  N5G_43 
REMARK       I    between atoms: C59_30  and  O5A_59 
REMARK       I    between atoms: C21_31  and  C23_64 
REMARK       I    between atoms: C26_32  and  O27_76 
REMARK       I    between atoms: O1J_34  and  S1G_71 
REMARK       I    between atoms: O3K_36  and  S3H_80 
REMARK       I    between atoms: O5I_37  and  S5H_38 
REMARK       I    between atoms: S5H_38  and  O5K_53 
REMARK       I    between atoms: S5H_38  and  N5G_43 
REMARK       I    between atoms: C39_39  and  O3A_85 
REMARK       I    between atoms: C1K_40  and  O1L_72 
REMARK       I    between atoms: C2C_41  and  O2D_45 
REMARK       I    between atoms: C33_44  and  O34_74 
REMARK       I    between atoms: O2D_45  and  C30_91 
REMARK       I    between atoms: C12_46  and  O10_51 
REMARK       I    between atoms: C53_48  and  O54_57 
REMARK       I    between atoms: O3I_50  and  S3H_80 
REMARK       I    between atoms: O16_54  and  C15_68 
REMARK       I    between atoms: C43_56  and  C41_65 
REMARK       I    between atoms: O54_57  and  S55_58 
REMARK       I    between atoms: O4G_60  and  C50_77 
REMARK       I    between atoms: O3M_62  and  C40_70 
REMARK       I    between atoms: O1C_67  and  C1B_86 
REMARK       I    between atoms: C15_68  and  C13_83 
REMARK       I    between atoms: N3G_69  and  S3H_80 
REMARK       I    between atoms: S1G_71  and  O1H_75 
REMARK       I    between atoms: S1G_71  and  O1I_82 
REMARK       I    between atoms: O34_74  and  S35_81 
ROOT
ATOM      1  O42 NTO d 869     -10.823  20.708 -18.669  0.00  0.00    -0.340 OA
ATOM      2  O4A NTO d 869      -9.354  20.039 -15.366  0.00  0.00    -0.244 OA
ATOM      3  O32 NTO d 869     -15.265  20.215 -16.287  0.00  0.00    -0.349 OA
ATOM      4  C3F NTO d 869     -15.237  18.137 -17.503  0.00  0.00     0.083 C 
ATOM      5  S17 NTO d 869     -23.237  18.400 -26.448  0.00  0.00     0.251 S 
ATOM      6  C5L NTO d 869      -5.893  21.773 -21.030  0.00  0.00     0.149 C 
ATOM      7  C4F NTO d 869      -9.774  20.480 -17.716  0.00  0.00     0.161 C 
ATOM      8  O14 NTO d 869     -23.121  21.155 -23.457  0.00  0.00    -0.349 OA
ATOM      9  N1F NTO d 869     -23.588  23.321 -20.510  0.00  0.00    -0.210 NA
ATOM     10  O37 NTO d 869     -18.280  23.834 -15.512  0.00  0.00    -0.572 OA
ATOM     11  O5J NTO d 869      -6.848  22.332 -23.943  0.00  0.00    -0.296 OA
ATOM     12  C3L NTO d 869     -14.398  19.166 -16.747  0.00  0.00     0.150 C 
ATOM     13  C29 NTO d 869     -18.845  22.147 -20.399  0.00  0.00     0.110 C 
ATOM     14  S3B NTO d 869     -16.037  17.580 -20.723  0.00  0.00     0.252 S 
ATOM     15  S4B NTO d 869      -8.997  20.964 -14.334  0.00  0.00     0.252 S 
ATOM     16  O24 NTO d 869     -20.457  17.760 -21.223  0.00  0.00    -0.646 OA
ATOM     17  O45 NTO d 869     -13.553  20.953 -19.736  0.00  0.00    -0.646 OA
ATOM     18  C20 NTO d 869     -20.899  20.937 -21.112  0.00  0.00     0.103 C 
ATOM     19  C1E NTO d 869     -23.986  22.580 -21.713  0.00  0.00     0.081 C 
ATOM     20  O3J NTO d 869     -13.875  14.766 -16.750  0.00  0.00    -0.296 OA
ATOM     21  O38 NTO d 869     -19.268  21.965 -14.265  0.00  0.00    -0.572 OA
ATOM     22  O18 NTO d 869     -23.116  19.537 -27.417  0.00  0.00    -0.572 OA
ATOM     23  C31 NTO d 869     -15.819  20.945 -17.393  0.00  0.00     0.091 C 
ATOM     24  O52 NTO d 869      -5.996  20.524 -20.328  0.00  0.00    -0.349 OA
ATOM     25  C46 NTO d 869     -11.656  19.992 -16.132  0.00  0.00     0.094 C 
ATOM     26  O5M NTO d 869      -4.961  22.672 -20.416  0.00  0.00    -0.364 OA
ATOM     27  O3D NTO d 869     -16.923  16.625 -21.465  0.00  0.00    -0.572 OA
ATOM     28  C51 NTO d 869      -6.637  20.650 -19.047  0.00  0.00     0.091 C 
ATOM     29  C5F NTO d 869      -7.263  22.430 -21.212  0.00  0.00     0.081 C 
ATOM     30  C59 NTO d 869      -7.982  22.562 -19.868  0.00  0.00     0.083 C 
ATOM     31  C21 NTO d 869     -20.531  19.863 -20.100  0.00  0.00     0.152 C 
ATOM     32  C26 NTO d 869     -20.359  22.266 -20.588  0.00  0.00     0.092 C 
ATOM     33  O47 NTO d 869     -12.100  20.124 -14.778  0.00  0.00    -0.390 OA
ATOM     34  O1J NTO d 869     -24.040  25.460 -19.198  0.00  0.00    -0.296 OA
ATOM     35  C5N NTO d 869      -3.640  22.342 -20.856  0.00  0.00     0.007 C 
ATOM     36  O3K NTO d 869     -14.340  16.702 -15.346  0.00  0.00    -0.296 OA
ATOM     37  O5I NTO d 869      -8.791  23.809 -23.733  0.00  0.00    -0.296 OA
ATOM     38  S5H NTO d 869      -7.329  23.659 -23.436  0.00  0.00     0.156 S 
ATOM     39  C39 NTO d 869     -15.824  18.831 -18.733  0.00  0.00     0.108 C 
ATOM     40  C1K NTO d 869     -22.750  21.870 -22.268  0.00  0.00     0.150 C 
ATOM     41  C2C NTO d 869     -18.507  20.963 -19.488  0.00  0.00     0.160 C 
ATOM     42  O19 NTO d 869     -24.536  17.684 -26.667  0.00  0.00    -0.572 OA
ATOM     43  N5G NTO d 869      -7.100  23.756 -21.824  0.00  0.00    -0.210 NA
ATOM     44  C33 NTO d 869     -16.708  22.074 -16.864  0.00  0.00     0.067 C 
ATOM     45  O2D NTO d 869     -17.078  20.816 -19.436  0.00  0.00    -0.348 OA
ATOM     46  C12 NTO d 869     -25.330  20.641 -22.550  0.00  0.00     0.089 C 
ATOM     47  C49 NTO d 869     -10.278  20.638 -16.278  0.00  0.00     0.134 C 
ATOM     48  C53 NTO d 869      -6.707  19.248 -18.437  0.00  0.00     0.067 C 
ATOM     49  O4D NTO d 869     -10.124  21.079 -13.351  0.00  0.00    -0.572 OA
ATOM     50  O3I NTO d 869     -12.232  16.577 -16.593  0.00  0.00    -0.296 OA
ATOM     51  O10 NTO d 869     -26.142  19.544 -22.124  0.00  0.00    -0.390 OA
ATOM     52  O1A NTO d 869     -22.095  17.451 -26.653  0.00  0.00    -0.572 OA
ATOM     53  O5K NTO d 869      -6.559  24.748 -24.124  0.00  0.00    -0.296 OA
ATOM     54  O16 NTO d 869     -23.187  18.908 -25.110  0.00  0.00    -0.254 OA
ATOM     55  O56 NTO d 869      -8.926  16.670 -18.576  0.00  0.00    -0.572 OA
ATOM     56  C43 NTO d 869     -12.876  21.869 -19.217  0.00  0.00     0.206 C 
ATOM     57  O54 NTO d 869      -7.382  18.353 -19.322  0.00  0.00    -0.254 OA
ATOM     58  S55 NTO d 869      -7.518  16.964 -18.998  0.00  0.00     0.251 S 
ATOM     59  O5A NTO d 869      -9.318  23.027 -20.082  0.00  0.00    -0.391 OA
ATOM     60  O4G NTO d 869      -8.661  21.366 -17.904  0.00  0.00    -0.348 OA
ATOM     61  O3C NTO d 869     -14.709  16.926 -20.482  0.00  0.00    -0.572 OA
ATOM     62  O3M NTO d 869     -13.452  19.698 -17.683  0.00  0.00    -0.348 OA
ATOM     63  O44 NTO d 869     -12.968  23.080 -19.546  0.00  0.00    -0.646 OA
ATOM     64  C23 NTO d 869     -21.160  18.554 -20.554  0.00  0.00     0.206 C 
ATOM     65  C41 NTO d 869     -11.892  21.496 -18.118  0.00  0.00     0.152 C 
ATOM     66  O22 NTO d 869     -19.102  19.749 -19.975  0.00  0.00    -0.340 OA
ATOM     67  O1C NTO d 869     -26.233  22.177 -20.914  0.00  0.00    -0.391 OA
ATOM     68  C15 NTO d 869     -24.373  19.379 -24.467  0.00  0.00     0.067 C 
ATOM     69  N3G NTO d 869     -14.391  16.996 -17.899  0.00  0.00    -0.210 NA
ATOM     70  C40 NTO d 869     -12.642  20.701 -17.059  0.00  0.00     0.103 C 
ATOM     71  S1G NTO d 869     -24.417  24.722 -20.448  0.00  0.00     0.156 S 
ATOM     72  O1L NTO d 869     -22.326  20.954 -21.249  0.00  0.00    -0.348 OA
ATOM     73  O57 NTO d 869      -6.584  16.625 -17.875  0.00  0.00    -0.572 OA
ATOM     74  O34 NTO d 869     -17.822  21.563 -16.126  0.00  0.00    -0.254 OA
ATOM     75  O1H NTO d 869     -25.888  24.431 -20.448  0.00  0.00    -0.296 OA
ATOM     76  O27 NTO d 869     -20.634  23.309 -21.528  0.00  0.00    -0.390 OA
ATOM     77  C50 NTO d 869      -8.050  21.193 -19.192  0.00  0.00     0.095 C 
ATOM     78  O3E NTO d 869     -15.835  18.818 -21.547  0.00  0.00    -0.572 OA
ATOM     79  O25 NTO d 869     -22.359  18.346 -20.251  0.00  0.00    -0.646 OA
ATOM     80  S3H NTO d 869     -13.697  16.250 -16.623  0.00  0.00     0.156 S 
ATOM     81  S35 NTO d 869     -18.834  22.444 -15.618  0.00  0.00     0.251 S 
ATOM     82  O1I NTO d 869     -24.067  25.556 -21.646  0.00  0.00    -0.296 OA
ATOM     83  C13 NTO d 869     -24.036  20.090 -23.154  0.00  0.00     0.090 C 
ATOM     84  O58 NTO d 869      -7.172  16.145 -20.205  0.00  0.00    -0.572 OA
ATOM     85  O3A NTO d 869     -16.645  17.917 -19.471  0.00  0.00    -0.247 OA
ATOM     86  C1B NTO d 869     -25.031  21.529 -21.339  0.00  0.00     0.083 C 
ATOM     87  O4C NTO d 869      -8.712  22.307 -14.938  0.00  0.00    -0.572 OA
ATOM     88  O4E NTO d 869      -7.766  20.462 -13.643  0.00  0.00    -0.572 OA
ATOM     89  O36 NTO d 869     -20.014  22.451 -16.542  0.00  0.00    -0.572 OA
ATOM     90  O2A NTO d 869     -18.343  23.353 -19.822  0.00  0.00    -0.388 OA
ATOM     91  C30 NTO d 869     -16.649  20.047 -18.301  0.00  0.00     0.096 C 
ATOM     92  H   NTO d 869     -16.026  17.760 -16.886  0.00  0.00     0.076 H 
ATOM     93  H   NTO d 869      -5.509  21.546 -22.002  0.00  0.00     0.131 H 
ATOM     94  H   NTO d 869      -9.448  19.473 -17.879  0.00  0.00     0.133 H 
ATOM     95  H   NTO d 869     -22.588  23.517 -20.546  0.00  0.00     0.140 HD
ATOM     96  H   NTO d 869      -6.988  22.282 -24.902  0.00  0.00     0.231 HD
ATOM     97  H   NTO d 869     -13.899  18.731 -15.906  0.00  0.00     0.131 H 
ATOM     98  H   NTO d 869     -18.390  21.984 -21.353  0.00  0.00     0.094 H 
ATOM     99  H   NTO d 869     -20.476  20.751 -22.077  0.00  0.00     0.092 H 
ATOM    100  H   NTO d 869     -24.395  23.250 -22.441  0.00  0.00     0.076 H 
ATOM    101  H   NTO d 869     -13.462  14.324 -15.992  0.00  0.00     0.231 HD
ATOM    102  H   NTO d 869     -15.006  21.341 -17.964  0.00  0.00     0.090 H 
ATOM    103  H   NTO d 869     -11.598  18.956 -16.391  0.00  0.00     0.091 H 
ATOM    104  H   NTO d 869      -6.081  21.326 -18.432  0.00  0.00     0.090 H 
ATOM    105  H   NTO d 869      -7.856  21.812 -21.853  0.00  0.00     0.076 H 
ATOM    106  H   NTO d 869      -7.446  23.253 -19.251  0.00  0.00     0.089 H 
ATOM    107  H   NTO d 869     -20.905  20.120 -19.131  0.00  0.00     0.104 H 
ATOM    108  H   NTO d 869     -20.830  22.499 -19.656  0.00  0.00     0.091 H 
ATOM    109  H   NTO d 869     -12.152  21.064 -14.545  0.00  0.00     0.210 HD
ATOM    110  H   NTO d 869     -24.266  24.921 -18.424  0.00  0.00     0.231 HD
ATOM    111  H   NTO d 869      -2.936  23.009 -20.403  0.00  0.00     0.066 H 
ATOM    112  H   NTO d 869      -3.585  22.435 -21.921  0.00  0.00     0.066 H 
ATOM    113  H   NTO d 869      -3.411  21.336 -20.574  0.00  0.00     0.066 H 
ATOM    114  H   NTO d 869     -13.920  16.253 -14.596  0.00  0.00     0.231 HD
ATOM    115  H   NTO d 869      -8.933  23.752 -24.691  0.00  0.00     0.231 HD
ATOM    116  H   NTO d 869     -15.024  19.158 -19.363  0.00  0.00     0.092 H 
ATOM    117  H   NTO d 869     -21.966  22.554 -22.518  0.00  0.00     0.131 H 
ATOM    118  H   NTO d 869     -18.898  21.153 -18.511  0.00  0.00     0.133 H 
ATOM    119  H   NTO d 869      -6.159  24.101 -21.637  0.00  0.00     0.140 HD
ATOM    120  H   NTO d 869     -17.072  22.646 -17.691  0.00  0.00     0.080 H 
ATOM    121  H   NTO d 869     -16.122  22.683 -16.207  0.00  0.00     0.080 H 
ATOM    122  H   NTO d 869     -25.834  21.225 -23.291  0.00  0.00     0.091 H 
ATOM    123  H   NTO d 869     -10.359  21.681 -16.052  0.00  0.00     0.097 H 
ATOM    124  H   NTO d 869      -7.238  19.294 -17.509  0.00  0.00     0.080 H 
ATOM    125  H   NTO d 869      -5.712  18.890 -18.274  0.00  0.00     0.080 H 
ATOM    126  H   NTO d 869     -11.818  16.135 -15.836  0.00  0.00     0.231 HD
ATOM    127  H   NTO d 869     -25.666  19.031 -21.453  0.00  0.00     0.210 HD
ATOM    128  H   NTO d 869      -6.698  24.687 -25.082  0.00  0.00     0.231 HD
ATOM    129  H   NTO d 869      -9.795  22.395 -20.641  0.00  0.00     0.210 HD
ATOM    130  H   NTO d 869     -11.471  22.377 -17.681  0.00  0.00     0.104 H 
ATOM    131  H   NTO d 869     -26.043  22.740 -20.147  0.00  0.00     0.210 HD
ATOM    132  H   NTO d 869     -25.013  18.546 -24.260  0.00  0.00     0.080 H 
ATOM    133  H   NTO d 869     -24.863  20.074 -25.117  0.00  0.00     0.080 H 
ATOM    134  H   NTO d 869     -13.655  17.336 -18.519  0.00  0.00     0.140 HD
ATOM    135  H   NTO d 869     -13.249  21.381 -16.501  0.00  0.00     0.092 H 
ATOM    136  H   NTO d 869     -26.110  23.892 -19.672  0.00  0.00     0.231 HD
ATOM    137  H   NTO d 869     -20.208  23.102 -22.375  0.00  0.00     0.210 HD
ATOM    138  H   NTO d 869      -8.627  20.501 -19.769  0.00  0.00     0.091 H 
ATOM    139  H   NTO d 869     -23.115  25.743 -21.643  0.00  0.00     0.231 HD
ATOM    140  H   NTO d 869     -23.588  19.424 -22.447  0.00  0.00     0.090 H 
ATOM    141  H   NTO d 869     -24.652  20.925 -20.542  0.00  0.00     0.089 H 
ATOM    142  H   NTO d 869     -18.760  23.496 -18.957  0.00  0.00     0.210 HD
ATOM    143  H   NTO d 869     -17.510  19.685 -17.779  0.00  0.00     0.091 H 
ENDROOT
TORSDOF 46
ENDMDL
MODEL 63
REMARK VINA RESULT:      -5.3      4.639     13.193
REMARK  0 active torsions:
REMARK  status: ('A' for Active; 'I' for Inactive)
REMARK       I    between atoms: O4A_2  and  C49_47 
REMARK       I    between atoms: O4A_2  and  S4B_15 
REMARK       I    between atoms: C3F_4  and  N3G_69 
REMARK       I    between atoms: S17_5  and  O16_54 
REMARK       I    between atoms: C5L_6  and  O5M_26 
REMARK       I    between atoms: C4F_7  and  O4G_60 
REMARK       I    between atoms: N1F_9  and  C1E_19 
REMARK       I    between atoms: N1F_9  and  S1G_71 
REMARK       I    between atoms: O5J_11  and  S5H_38 
REMARK       I    between atoms: C3L_12  and  O3M_62 
REMARK       I    between atoms: C29_13  and  O2A_90 
REMARK       I    between atoms: S3B_14  and  O3A_85 
REMARK       I    between atoms: C20_18  and  O1L_72 
REMARK       I    between atoms: O3J_20  and  S3H_80 
REMARK       I    between atoms: C31_23  and  C33_44 
REMARK       I    between atoms: C46_25  and  O47_33 
REMARK       I    between atoms: O5M_26  and  C5N_35 
REMARK       I    between atoms: C51_28  and  C53_48 
REMARK       I    between atoms: C5F_29  and  N5G_43 
REMARK       I    between atoms: C59_30  and  O5A_59 
REMARK       I    between atoms: C21_31  and  C23_64 
REMARK       I    between atoms: C26_32  and  O27_76 
REMARK       I    between atoms: O1J_34  and  S1G_71 
REMARK       I    between atoms: O3K_36  and  S3H_80 
REMARK       I    between atoms: O5I_37  and  S5H_38 
REMARK       I    between atoms: S5H_38  and  O5K_53 
REMARK       I    between atoms: S5H_38  and  N5G_43 
REMARK       I    between atoms: C39_39  and  O3A_85 
REMARK       I    between atoms: C1K_40  and  O1L_72 
REMARK       I    between atoms: C2C_41  and  O2D_45 
REMARK       I    between atoms: C33_44  and  O34_74 
REMARK       I    between atoms: O2D_45  and  C30_91 
REMARK       I    between atoms: C12_46  and  O10_51 
REMARK       I    between atoms: C53_48  and  O54_57 
REMARK       I    between atoms: O3I_50  and  S3H_80 
REMARK       I    between atoms: O16_54  and  C15_68 
REMARK       I    between atoms: C43_56  and  C41_65 
REMARK       I    between atoms: O54_57  and  S55_58 
REMARK       I    between atoms: O4G_60  and  C50_77 
REMARK       I    between atoms: O3M_62  and  C40_70 
REMARK       I    between atoms: O1C_67  and  C1B_86 
REMARK       I    between atoms: C15_68  and  C13_83 
REMARK       I    between atoms: N3G_69  and  S3H_80 
REMARK       I    between atoms: S1G_71  and  O1H_75 
REMARK       I    between atoms: S1G_71  and  O1I_82 
REMARK       I    between atoms: O34_74  and  S35_81 
ROOT
ATOM      1  O42 NTO d 869     -14.108  20.661 -23.297  0.00  0.00    -0.340 OA
ATOM      2  O4A NTO d 869     -14.165  23.967 -24.903  0.00  0.00    -0.244 OA
ATOM      3  O32 NTO d 869     -18.610  22.007 -21.407  0.00  0.00    -0.349 OA
ATOM      4  C3F NTO d 869     -17.269  22.214 -19.418  0.00  0.00     0.083 C 
ATOM      5  S17 NTO d 869     -19.807  13.372 -11.707  0.00  0.00     0.251 S 
ATOM      6  C5L NTO d 869      -9.432  19.100 -25.886  0.00  0.00     0.149 C 
ATOM      7  C4F NTO d 869     -13.604  21.754 -24.080  0.00  0.00     0.161 C 
ATOM      8  O14 NTO d 869     -22.085  14.232 -14.966  0.00  0.00    -0.349 OA
ATOM      9  N1F NTO d 869     -24.598  15.280 -17.452  0.00  0.00    -0.210 NA
ATOM     10  O37 NTO d 869     -22.743  20.007 -22.710  0.00  0.00    -0.572 OA
ATOM     11  O5J NTO d 869      -9.094  16.266 -24.636  0.00  0.00    -0.296 OA
ATOM     12  C3L NTO d 869     -17.311  22.397 -20.934  0.00  0.00     0.150 C 
ATOM     13  C29 NTO d 869     -20.366  16.935 -19.251  0.00  0.00     0.110 C 
ATOM     14  S3B NTO d 869     -16.255  19.795 -17.312  0.00  0.00     0.252 S 
ATOM     15  S4B NTO d 869     -14.684  24.339 -26.183  0.00  0.00     0.252 S 
ATOM     16  O24 NTO d 869     -19.681  18.453 -14.807  0.00  0.00    -0.646 OA
ATOM     17  O45 NTO d 869     -15.931  19.148 -21.553  0.00  0.00    -0.646 OA
ATOM     18  C20 NTO d 869     -21.263  16.659 -16.947  0.00  0.00     0.103 C 
ATOM     19  C1E NTO d 869     -24.103  14.660 -16.217  0.00  0.00     0.081 C 
ATOM     20  O3J NTO d 869     -15.260  24.986 -17.980  0.00  0.00    -0.296 OA
ATOM     21  O38 NTO d 869     -23.420  21.877 -21.272  0.00  0.00    -0.572 OA
ATOM     22  O18 NTO d 869     -19.690  11.973 -12.234  0.00  0.00    -0.572 OA
ATOM     23  C31 NTO d 869     -18.828  20.601 -21.208  0.00  0.00     0.091 C 
ATOM     24  O52 NTO d 869      -9.372  20.351 -25.183  0.00  0.00    -0.349 OA
ATOM     25  C46 NTO d 869     -15.669  22.942 -23.298  0.00  0.00     0.094 C 
ATOM     26  O5M NTO d 869      -9.285  19.260 -27.303  0.00  0.00    -0.364 OA
ATOM     27  O3D NTO d 869     -16.285  19.573 -15.829  0.00  0.00    -0.572 OA
ATOM     28  C51 NTO d 869     -10.518  21.185 -25.420  0.00  0.00     0.091 C 
ATOM     29  C5F NTO d 869     -10.704  18.322 -25.543  0.00  0.00     0.081 C 
ATOM     30  C59 NTO d 869     -11.944  19.189 -25.766  0.00  0.00     0.083 C 
ATOM     31  C21 NTO d 869     -21.027  18.148 -16.752  0.00  0.00     0.152 C 
ATOM     32  C26 NTO d 869     -21.553  16.429 -18.429  0.00  0.00     0.092 C 
ATOM     33  O47 NTO d 869     -16.691  23.870 -23.677  0.00  0.00    -0.390 OA
ATOM     34  O1J NTO d 869     -26.349  15.036 -19.289  0.00  0.00    -0.296 OA
ATOM     35  C5N NTO d 869      -7.892  19.345 -27.619  0.00  0.00     0.007 C 
ATOM     36  O3K NTO d 869     -16.988  24.927 -19.697  0.00  0.00    -0.296 OA
ATOM     37  O5I NTO d 869     -11.311  15.229 -24.733  0.00  0.00    -0.296 OA
ATOM     38  S5H NTO d 869     -10.203  15.829 -25.546  0.00  0.00     0.156 S 
ATOM     39  C39 NTO d 869     -17.445  20.723 -19.125  0.00  0.00     0.108 C 
ATOM     40  C1K NTO d 869     -22.587  14.851 -16.161  0.00  0.00     0.150 C 
ATOM     41  C2C NTO d 869     -20.067  18.400 -18.920  0.00  0.00     0.160 C 
ATOM     42  O19 NTO d 869     -20.498  13.355 -10.376  0.00  0.00    -0.572 OA
ATOM     43  N5G NTO d 869     -10.784  17.111 -26.372  0.00  0.00    -0.210 NA
ATOM     44  C33 NTO d 869     -20.206  20.218 -21.755  0.00  0.00     0.067 C 
ATOM     45  O2D NTO d 869     -18.877  18.797 -19.622  0.00  0.00    -0.348 OA
ATOM     46  C12 NTO d 869     -24.099  14.832 -13.720  0.00  0.00     0.089 C 
ATOM     47  C49 NTO d 869     -14.723  22.721 -24.479  0.00  0.00     0.134 C 
ATOM     48  C53 NTO d 869     -10.334  22.455 -24.586  0.00  0.00     0.067 C 
ATOM     49  O4D NTO d 869     -16.086  24.849 -26.028  0.00  0.00    -0.572 OA
ATOM     50  O3I NTO d 869     -14.666  24.398 -20.283  0.00  0.00    -0.296 OA
ATOM     51  O10 NTO d 869     -24.546  15.640 -12.629  0.00  0.00    -0.390 OA
ATOM     52  O1A NTO d 869     -18.438  13.962 -11.559  0.00  0.00    -0.572 OA
ATOM     53  O5K NTO d 869      -9.669  14.808 -26.506  0.00  0.00    -0.296 OA
ATOM     54  O16 NTO d 869     -20.561  14.166 -12.630  0.00  0.00    -0.254 OA
ATOM     55  O56 NTO d 869     -11.120  23.382 -21.406  0.00  0.00    -0.572 OA
ATOM     56  C43 NTO d 869     -15.955  19.174 -22.805  0.00  0.00     0.206 C 
ATOM     57  O54 NTO d 869     -10.151  22.124 -23.209  0.00  0.00    -0.254 OA
ATOM     58  S55 NTO d 869      -9.895  23.145 -22.237  0.00  0.00     0.251 S 
ATOM     59  O5A NTO d 869     -13.103  18.500 -25.288  0.00  0.00    -0.391 OA
ATOM     60  O4G NTO d 869     -12.943  21.312 -25.275  0.00  0.00    -0.348 OA
ATOM     61  O3C NTO d 869     -15.044  20.610 -17.657  0.00  0.00    -0.572 OA
ATOM     62  O3M NTO d 869     -16.315  21.524 -21.484  0.00  0.00    -0.348 OA
ATOM     63  O44 NTO d 869     -16.328  18.207 -23.518  0.00  0.00    -0.646 OA
ATOM     64  C23 NTO d 869     -20.848  18.406 -15.263  0.00  0.00     0.206 C 
ATOM     65  C41 NTO d 869     -15.517  20.453 -23.502  0.00  0.00     0.152 C 
ATOM     66  O22 NTO d 869     -19.882  18.584 -17.507  0.00  0.00    -0.340 OA
ATOM     67  O1C NTO d 869     -26.140  15.102 -14.990  0.00  0.00    -0.391 OA
ATOM     68  C15 NTO d 869     -21.988  14.191 -12.572  0.00  0.00     0.067 C 
ATOM     69  N3G NTO d 869     -15.982  22.703 -18.890  0.00  0.00    -0.210 NA
ATOM     70  C40 NTO d 869     -16.311  21.611 -22.914  0.00  0.00     0.103 C 
ATOM     71  S1G NTO d 869     -25.816  14.379 -18.050  0.00  0.00     0.156 S 
ATOM     72  O1L NTO d 869     -22.366  16.268 -16.117  0.00  0.00    -0.348 OA
ATOM     73  O57 NTO d 869      -9.520  24.415 -22.941  0.00  0.00    -0.572 OA
ATOM     74  O34 NTO d 869     -21.256  20.887 -21.050  0.00  0.00    -0.254 OA
ATOM     75  O1H NTO d 869     -26.903  14.265 -17.023  0.00  0.00    -0.296 OA
ATOM     76  O27 NTO d 869     -21.736  15.032 -18.679  0.00  0.00    -0.390 OA
ATOM     77  C50 NTO d 869     -11.801  20.493 -24.983  0.00  0.00     0.095 C 
ATOM     78  O3E NTO d 869     -16.174  18.472 -18.014  0.00  0.00    -0.572 OA
ATOM     79  O25 NTO d 869     -21.882  18.540 -14.566  0.00  0.00    -0.646 OA
ATOM     80  S3H NTO d 869     -15.721  24.281 -19.221  0.00  0.00     0.156 S 
ATOM     81  S35 NTO d 869     -22.632  20.604 -21.338  0.00  0.00     0.251 S 
ATOM     82  O1I NTO d 869     -25.298  13.012 -18.392  0.00  0.00    -0.296 OA
ATOM     83  C13 NTO d 869     -22.572  14.905 -13.794  0.00  0.00     0.090 C 
ATOM     84  O58 NTO d 869      -8.765  22.707 -21.355  0.00  0.00    -0.572 OA
ATOM     85  O3A NTO d 869     -17.439  20.493 -17.711  0.00  0.00    -0.247 OA
ATOM     86  C1B NTO d 869     -24.733  15.356 -15.011  0.00  0.00     0.083 C 
ATOM     87  O4C NTO d 869     -14.675  23.148 -27.095  0.00  0.00    -0.572 OA
ATOM     88  O4E NTO d 869     -13.813  25.411 -26.762  0.00  0.00    -0.572 OA
ATOM     89  O36 NTO d 869     -23.174  19.634 -20.331  0.00  0.00    -0.572 OA
ATOM     90  O2A NTO d 869     -20.666  16.810 -20.642  0.00  0.00    -0.388 OA
ATOM     91  C30 NTO d 869     -18.759  20.224 -19.734  0.00  0.00     0.096 C 
ATOM     92  H   NTO d 869     -18.050  22.773 -18.944  0.00  0.00     0.076 H 
ATOM     93  H   NTO d 869      -8.595  18.523 -25.553  0.00  0.00     0.131 H 
ATOM     94  H   NTO d 869     -12.895  22.255 -23.455  0.00  0.00     0.133 H 
ATOM     95  H   NTO d 869     -23.843  15.331 -18.135  0.00  0.00     0.140 HD
ATOM     96  H   NTO d 869      -8.754  15.498 -24.149  0.00  0.00     0.231 HD
ATOM     97  H   NTO d 869     -17.126  23.412 -21.217  0.00  0.00     0.131 H 
ATOM     98  H   NTO d 869     -19.505  16.349 -19.010  0.00  0.00     0.094 H 
ATOM     99  H   NTO d 869     -20.414  16.070 -16.668  0.00  0.00     0.092 H 
ATOM    100  H   NTO d 869     -24.352  13.619 -16.201  0.00  0.00     0.076 H 
ATOM    101  H   NTO d 869     -15.106  25.922 -18.178  0.00  0.00     0.231 HD
ATOM    102  H   NTO d 869     -18.056  20.074 -21.727  0.00  0.00     0.090 H 
ATOM    103  H   NTO d 869     -15.122  23.333 -22.466  0.00  0.00     0.091 H 
ATOM    104  H   NTO d 869     -10.596  21.401 -26.465  0.00  0.00     0.090 H 
ATOM    105  H   NTO d 869     -10.666  18.045 -24.510  0.00  0.00     0.076 H 
ATOM    106  H   NTO d 869     -12.043  19.394 -26.812  0.00  0.00     0.089 H 
ATOM    107  H   NTO d 869     -21.864  18.709 -17.113  0.00  0.00     0.104 H 
ATOM    108  H   NTO d 869     -22.444  16.955 -18.703  0.00  0.00     0.091 H 
ATOM    109  H   NTO d 869     -17.186  23.514 -24.431  0.00  0.00     0.210 HD
ATOM    110  H   NTO d 869     -26.684  15.918 -19.068  0.00  0.00     0.231 HD
ATOM    111  H   NTO d 869      -7.772  19.464 -28.675  0.00  0.00     0.066 H 
ATOM    112  H   NTO d 869      -7.399  18.449 -27.303  0.00  0.00     0.066 H 
ATOM    113  H   NTO d 869      -7.462  20.185 -27.113  0.00  0.00     0.066 H 
ATOM    114  H   NTO d 869     -16.822  25.863 -19.890  0.00  0.00     0.231 HD
ATOM    115  H   NTO d 869     -10.971  14.466 -24.239  0.00  0.00     0.231 HD
ATOM    116  H   NTO d 869     -16.631  20.184 -19.564  0.00  0.00     0.092 H 
ATOM    117  H   NTO d 869     -22.090  14.412 -17.001  0.00  0.00     0.131 H 
ATOM    118  H   NTO d 869     -20.898  19.002 -19.224  0.00  0.00     0.133 H 
ATOM    119  H   NTO d 869     -10.232  17.245 -27.219  0.00  0.00     0.140 HD
ATOM    120  H   NTO d 869     -20.339  19.161 -21.653  0.00  0.00     0.080 H 
ATOM    121  H   NTO d 869     -20.253  20.511 -22.783  0.00  0.00     0.080 H 
ATOM    122  H   NTO d 869     -24.388  13.811 -13.583  0.00  0.00     0.091 H 
ATOM    123  H   NTO d 869     -15.276  22.297 -25.290  0.00  0.00     0.097 H 
ATOM    124  H   NTO d 869     -11.202  23.072 -24.688  0.00  0.00     0.080 H 
ATOM    125  H   NTO d 869      -9.468  22.978 -24.936  0.00  0.00     0.080 H 
ATOM    126  H   NTO d 869     -14.510  25.334 -20.481  0.00  0.00     0.231 HD
ATOM    127  H   NTO d 869     -24.274  16.559 -12.775  0.00  0.00     0.210 HD
ATOM    128  H   NTO d 869      -9.325  14.048 -26.011  0.00  0.00     0.231 HD
ATOM    129  H   NTO d 869     -13.004  18.320 -24.340  0.00  0.00     0.210 HD
ATOM    130  H   NTO d 869     -15.697  20.385 -24.554  0.00  0.00     0.104 H 
ATOM    131  H   NTO d 869     -26.541  15.435 -15.809  0.00  0.00     0.210 HD
ATOM    132  H   NTO d 869     -22.294  14.707 -11.685  0.00  0.00     0.080 H 
ATOM    133  H   NTO d 869     -22.348  13.182 -12.560  0.00  0.00     0.080 H 
ATOM    134  H   NTO d 869     -15.230  22.153 -19.306  0.00  0.00     0.140 HD
ATOM    135  H   NTO d 869     -17.308  21.558 -23.297  0.00  0.00     0.092 H 
ATOM    136  H   NTO d 869     -27.235  15.150 -16.806  0.00  0.00     0.231 HD
ATOM    137  H   NTO d 869     -20.930  14.551 -18.432  0.00  0.00     0.210 HD
ATOM    138  H   NTO d 869     -11.751  20.313 -23.930  0.00  0.00     0.091 H 
ATOM    139  H   NTO d 869     -24.596  13.090 -19.057  0.00  0.00     0.231 HD
ATOM    140  H   NTO d 869     -22.282  15.934 -13.826  0.00  0.00     0.090 H 
ATOM    141  H   NTO d 869     -24.563  16.410 -15.086  0.00  0.00     0.089 H 
ATOM    142  H   NTO d 869     -21.448  17.343 -20.854  0.00  0.00     0.210 HD
ATOM    143  H   NTO d 869     -19.561  20.685 -19.195  0.00  0.00     0.091 H 
ENDROOT
TORSDOF 46
ENDMDL
MODEL 64
REMARK VINA RESULT:      -5.3      4.034      5.252
REMARK  0 active torsions:
REMARK  status: ('A' for Active; 'I' for Inactive)
REMARK       I    between atoms: O4A_2  and  C49_47 
REMARK       I    between atoms: O4A_2  and  S4B_15 
REMARK       I    between atoms: C3F_4  and  N3G_69 
REMARK       I    between atoms: S17_5  and  O16_54 
REMARK       I    between atoms: C5L_6  and  O5M_26 
REMARK       I    between atoms: C4F_7  and  O4G_60 
REMARK       I    between atoms: N1F_9  and  C1E_19 
REMARK       I    between atoms: N1F_9  and  S1G_71 
REMARK       I    between atoms: O5J_11  and  S5H_38 
REMARK       I    between atoms: C3L_12  and  O3M_62 
REMARK       I    between atoms: C29_13  and  O2A_90 
REMARK       I    between atoms: S3B_14  and  O3A_85 
REMARK       I    between atoms: C20_18  and  O1L_72 
REMARK       I    between atoms: O3J_20  and  S3H_80 
REMARK       I    between atoms: C31_23  and  C33_44 
REMARK       I    between atoms: C46_25  and  O47_33 
REMARK       I    between atoms: O5M_26  and  C5N_35 
REMARK       I    between atoms: C51_28  and  C53_48 
REMARK       I    between atoms: C5F_29  and  N5G_43 
REMARK       I    between atoms: C59_30  and  O5A_59 
REMARK       I    between atoms: C21_31  and  C23_64 
REMARK       I    between atoms: C26_32  and  O27_76 
REMARK       I    between atoms: O1J_34  and  S1G_71 
REMARK       I    between atoms: O3K_36  and  S3H_80 
REMARK       I    between atoms: O5I_37  and  S5H_38 
REMARK       I    between atoms: S5H_38  and  O5K_53 
REMARK       I    between atoms: S5H_38  and  N5G_43 
REMARK       I    between atoms: C39_39  and  O3A_85 
REMARK       I    between atoms: C1K_40  and  O1L_72 
REMARK       I    between atoms: C2C_41  and  O2D_45 
REMARK       I    between atoms: C33_44  and  O34_74 
REMARK       I    between atoms: O2D_45  and  C30_91 
REMARK       I    between atoms: C12_46  and  O10_51 
REMARK       I    between atoms: C53_48  and  O54_57 
REMARK       I    between atoms: O3I_50  and  S3H_80 
REMARK       I    between atoms: O16_54  and  C15_68 
REMARK       I    between atoms: C43_56  and  C41_65 
REMARK       I    between atoms: O54_57  and  S55_58 
REMARK       I    between atoms: O4G_60  and  C50_77 
REMARK       I    between atoms: O3M_62  and  C40_70 
REMARK       I    between atoms: O1C_67  and  C1B_86 
REMARK       I    between atoms: C15_68  and  C13_83 
REMARK       I    between atoms: N3G_69  and  S3H_80 
REMARK       I    between atoms: S1G_71  and  O1H_75 
REMARK       I    between atoms: S1G_71  and  O1I_82 
REMARK       I    between atoms: O34_74  and  S35_81 
ROOT
ATOM      1  O42 NTO d 869     -18.053  21.056 -21.268  0.00  0.00    -0.340 OA
ATOM      2  O4A NTO d 869     -20.014  23.325 -23.394  0.00  0.00    -0.244 OA
ATOM      3  O32 NTO d 869     -14.279  22.018 -24.506  0.00  0.00    -0.349 OA
ATOM      4  C3F NTO d 869     -14.820  19.773 -25.187  0.00  0.00     0.083 C 
ATOM      5  S17 NTO d 869      -6.201  12.155 -21.758  0.00  0.00     0.251 S 
ATOM      6  C5L NTO d 869     -22.110  20.534 -17.489  0.00  0.00     0.149 C 
ATOM      7  C4F NTO d 869     -19.220  21.765 -21.713  0.00  0.00     0.161 C 
ATOM      8  O14 NTO d 869      -5.781  16.201 -21.688  0.00  0.00    -0.349 OA
ATOM      9  N1F NTO d 869      -4.989  19.768 -22.186  0.00  0.00    -0.210 NA
ATOM     10  O37 NTO d 869     -10.391  24.545 -23.378  0.00  0.00    -0.572 OA
ATOM     11  O5J NTO d 869     -20.712  18.555 -15.529  0.00  0.00    -0.296 OA
ATOM     12  C3L NTO d 869     -15.374  21.105 -24.685  0.00  0.00     0.150 C 
ATOM     13  C29 NTO d 869      -9.843  19.681 -21.622  0.00  0.00     0.110 C 
ATOM     14  S3B NTO d 869     -13.884  16.869 -23.770  0.00  0.00     0.252 S 
ATOM     15  S4B NTO d 869     -20.175  24.742 -23.291  0.00  0.00     0.252 S 
ATOM     16  O24 NTO d 869      -9.602  16.066 -24.688  0.00  0.00    -0.646 OA
ATOM     17  O45 NTO d 869     -15.283  20.068 -21.255  0.00  0.00    -0.646 OA
ATOM     18  C20 NTO d 869      -8.205  18.118 -22.654  0.00  0.00     0.103 C 
ATOM     19  C1E NTO d 869      -4.712  18.331 -22.063  0.00  0.00     0.081 C 
ATOM     20  O3J NTO d 869     -17.242  18.366 -27.625  0.00  0.00    -0.296 OA
ATOM     21  O38 NTO d 869     -10.179  24.186 -25.796  0.00  0.00    -0.572 OA
ATOM     22  O18 NTO d 869      -5.853  12.155 -20.299  0.00  0.00    -0.572 OA
ATOM     23  C31 NTO d 869     -13.406  21.573 -23.456  0.00  0.00     0.091 C 
ATOM     24  O52 NTO d 869     -22.481  20.261 -18.850  0.00  0.00    -0.349 OA
ATOM     25  C46 NTO d 869     -17.771  22.432 -23.648  0.00  0.00     0.094 C 
ATOM     26  O5M NTO d 869     -22.776  21.687 -16.959  0.00  0.00    -0.364 OA
ATOM     27  O3D NTO d 869     -13.263  15.588 -24.244  0.00  0.00    -0.572 OA
ATOM     28  C51 NTO d 869     -21.979  21.239 -19.776  0.00  0.00     0.091 C 
ATOM     29  C5F NTO d 869     -20.592  20.647 -17.332  0.00  0.00     0.081 C 
ATOM     30  C59 NTO d 869     -20.022  21.668 -18.319  0.00  0.00     0.083 C 
ATOM     31  C21 NTO d 869      -8.999  18.250 -23.944  0.00  0.00     0.152 C 
ATOM     32  C26 NTO d 869      -8.357  19.429 -21.884  0.00  0.00     0.092 C 
ATOM     33  O47 NTO d 869     -17.461  23.493 -24.557  0.00  0.00    -0.390 OA
ATOM     34  O1J NTO d 869      -4.040  22.074 -21.654  0.00  0.00    -0.296 OA
ATOM     35  C5N NTO d 869     -24.077  21.302 -16.504  0.00  0.00     0.007 C 
ATOM     36  O3K NTO d 869     -16.354  20.612 -27.299  0.00  0.00    -0.296 OA
ATOM     37  O5I NTO d 869     -18.441  19.419 -15.221  0.00  0.00    -0.296 OA
ATOM     38  S5H NTO d 869     -19.900  19.727 -15.065  0.00  0.00     0.156 S 
ATOM     39  C39 NTO d 869     -13.913  19.206 -24.093  0.00  0.00     0.108 C 
ATOM     40  C1K NTO d 869      -6.039  17.607 -21.828  0.00  0.00     0.150 C 
ATOM     41  C2C NTO d 869     -10.633  19.662 -22.934  0.00  0.00     0.160 C 
ATOM     42  O19 NTO d 869      -5.174  11.375 -22.523  0.00  0.00    -0.572 OA
ATOM     43  N5G NTO d 869     -20.264  21.045 -15.955  0.00  0.00    -0.210 NA
ATOM     44  C33 NTO d 869     -12.273  22.587 -23.271  0.00  0.00     0.067 C 
ATOM     45  O2D NTO d 869     -12.033  19.782 -22.631  0.00  0.00    -0.348 OA
ATOM     46  C12 NTO d 869      -3.957  16.297 -23.311  0.00  0.00     0.089 C 
ATOM     47  C49 NTO d 869     -18.854  22.899 -22.675  0.00  0.00     0.134 C 
ATOM     48  C53 NTO d 869     -22.418  20.804 -21.176  0.00  0.00     0.067 C 
ATOM     49  O4D NTO d 869     -19.185  25.428 -24.185  0.00  0.00    -0.572 OA
ATOM     50  O3I NTO d 869     -18.244  19.838 -25.941  0.00  0.00    -0.296 OA
ATOM     51  O10 NTO d 869      -3.580  15.825 -24.607  0.00  0.00    -0.390 OA
ATOM     52  O1A NTO d 869      -7.552  11.534 -21.944  0.00  0.00    -0.572 OA
ATOM     53  O5K NTO d 869     -20.211  19.990 -13.621  0.00  0.00    -0.296 OA
ATOM     54  O16 NTO d 869      -6.237  13.504 -22.238  0.00  0.00    -0.254 OA
ATOM     55  O56 NTO d 869     -21.114  18.787 -23.590  0.00  0.00    -0.572 OA
ATOM     56  C43 NTO d 869     -15.693  21.129 -20.732  0.00  0.00     0.206 C 
ATOM     57  O54 NTO d 869     -21.962  19.478 -21.451  0.00  0.00    -0.254 OA
ATOM     58  S55 NTO d 869     -22.304  18.824 -22.678  0.00  0.00     0.251 S 
ATOM     59  O5A NTO d 869     -18.592  21.639 -18.266  0.00  0.00    -0.391 OA
ATOM     60  O4G NTO d 869     -19.972  22.320 -20.625  0.00  0.00    -0.348 OA
ATOM     61  O3C NTO d 869     -15.367  16.797 -23.975  0.00  0.00    -0.572 OA
ATOM     62  O3M NTO d 869     -15.997  20.845 -23.420  0.00  0.00    -0.348 OA
ATOM     63  O44 NTO d 869     -15.191  21.638 -19.696  0.00  0.00    -0.646 OA
ATOM     64  C23 NTO d 869      -8.764  16.995 -24.771  0.00  0.00     0.206 C 
ATOM     65  C41 NTO d 869     -16.859  21.848 -21.393  0.00  0.00     0.152 C 
ATOM     66  O22 NTO d 869     -10.396  18.447 -23.663  0.00  0.00    -0.340 OA
ATOM     67  O1C NTO d 869      -2.807  18.411 -23.550  0.00  0.00    -0.391 OA
ATOM     68  C15 NTO d 869      -5.042  14.149 -22.683  0.00  0.00     0.067 C 
ATOM     69  N3G NTO d 869     -15.931  18.847 -25.477  0.00  0.00    -0.210 NA
ATOM     70  C40 NTO d 869     -16.518  22.058 -22.862  0.00  0.00     0.103 C 
ATOM     71  S1G NTO d 869      -3.776  20.606 -21.492  0.00  0.00     0.156 S 
ATOM     72  O1L NTO d 869      -6.837  17.851 -22.994  0.00  0.00    -0.348 OA
ATOM     73  O57 NTO d 869     -23.416  19.577 -23.347  0.00  0.00    -0.572 OA
ATOM     74  O34 NTO d 869     -11.463  22.689 -24.446  0.00  0.00    -0.254 OA
ATOM     75  O1H NTO d 869      -2.480  20.242 -22.152  0.00  0.00    -0.296 OA
ATOM     76  O27 NTO d 869      -7.668  19.343 -20.633  0.00  0.00    -0.390 OA
ATOM     77  C50 NTO d 869     -20.459  21.303 -19.736  0.00  0.00     0.095 C 
ATOM     78  O3E NTO d 869     -13.596  17.053 -22.309  0.00  0.00    -0.572 OA
ATOM     79  O25 NTO d 869      -7.732  16.948 -25.481  0.00  0.00    -0.646 OA
ATOM     80  S3H NTO d 869     -16.961  19.429 -26.604  0.00  0.00     0.156 S 
ATOM     81  S35 NTO d 869     -10.290  23.513 -24.461  0.00  0.00     0.251 S 
ATOM     82  O1I NTO d 869      -3.714  20.267 -20.031  0.00  0.00    -0.296 OA
ATOM     83  C13 NTO d 869      -5.283  15.643 -22.915  0.00  0.00     0.090 C 
ATOM     84  O58 NTO d 869     -22.753  17.426 -22.379  0.00  0.00    -0.572 OA
ATOM     85  O3A NTO d 869     -13.343  17.963 -24.519  0.00  0.00    -0.247 OA
ATOM     86  C1B NTO d 869      -4.095  17.821 -23.365  0.00  0.00     0.083 C 
ATOM     87  O4C NTO d 869     -19.958  25.172 -21.870  0.00  0.00    -0.572 OA
ATOM     88  O4E NTO d 869     -21.570  25.099 -23.707  0.00  0.00    -0.572 OA
ATOM     89  O36 NTO d 869      -9.072  22.670 -24.231  0.00  0.00    -0.572 OA
ATOM     90  O2A NTO d 869     -10.004  20.949 -20.985  0.00  0.00    -0.388 OA
ATOM     91  C30 NTO d 869     -12.803  20.209 -23.765  0.00  0.00     0.096 C 
ATOM     92  H   NTO d 869     -14.262  19.907 -26.090  0.00  0.00     0.076 H 
ATOM     93  H   NTO d 869     -22.437  19.695 -16.910  0.00  0.00     0.131 H 
ATOM     94  H   NTO d 869     -19.823  21.039 -22.219  0.00  0.00     0.133 H 
ATOM     95  H   NTO d 869      -5.868  19.987 -21.716  0.00  0.00     0.140 HD
ATOM     96  H   NTO d 869     -20.490  17.775 -14.995  0.00  0.00     0.231 HD
ATOM     97  H   NTO d 869     -16.074  21.530 -25.374  0.00  0.00     0.131 H 
ATOM     98  H   NTO d 869     -10.218  18.905 -20.988  0.00  0.00     0.094 H 
ATOM     99  H   NTO d 869      -8.555  17.316 -22.038  0.00  0.00     0.092 H 
ATOM    100  H   NTO d 869      -4.037  18.153 -21.252  0.00  0.00     0.076 H 
ATOM    101  H   NTO d 869     -17.853  18.713 -28.293  0.00  0.00     0.231 HD
ATOM    102  H   NTO d 869     -13.987  21.489 -22.561  0.00  0.00     0.090 H 
ATOM    103  H   NTO d 869     -18.121  21.583 -24.196  0.00  0.00     0.091 H 
ATOM    104  H   NTO d 869     -22.359  22.205 -19.520  0.00  0.00     0.090 H 
ATOM    105  H   NTO d 869     -20.155  19.693 -17.542  0.00  0.00     0.076 H 
ATOM    106  H   NTO d 869     -20.380  22.642 -18.060  0.00  0.00     0.089 H 
ATOM    107  H   NTO d 869      -8.673  19.107 -24.497  0.00  0.00     0.104 H 
ATOM    108  H   NTO d 869      -7.943  20.230 -22.460  0.00  0.00     0.091 H 
ATOM    109  H   NTO d 869     -17.144  24.263 -24.059  0.00  0.00     0.210 HD
ATOM    110  H   NTO d 869      -4.080  22.293 -22.598  0.00  0.00     0.231 HD
ATOM    111  H   NTO d 869     -24.583  22.156 -16.106  0.00  0.00     0.066 H 
ATOM    112  H   NTO d 869     -23.983  20.557 -15.742  0.00  0.00     0.066 H 
ATOM    113  H   NTO d 869     -24.639  20.904 -17.323  0.00  0.00     0.066 H 
ATOM    114  H   NTO d 869     -16.973  20.948 -27.965  0.00  0.00     0.231 HD
ATOM    115  H   NTO d 869     -18.218  18.635 -14.694  0.00  0.00     0.231 HD
ATOM    116  H   NTO d 869     -14.497  19.031 -23.213  0.00  0.00     0.092 H 
ATOM    117  H   NTO d 869      -6.537  17.947 -20.944  0.00  0.00     0.131 H 
ATOM    118  H   NTO d 869     -10.312  20.480 -23.545  0.00  0.00     0.133 H 
ATOM    119  H   NTO d 869     -21.065  21.521 -15.542  0.00  0.00     0.140 HD
ATOM    120  H   NTO d 869     -11.659  22.277 -22.452  0.00  0.00     0.080 H 
ATOM    121  H   NTO d 869     -12.709  23.546 -23.080  0.00  0.00     0.080 H 
ATOM    122  H   NTO d 869      -3.217  16.043 -22.582  0.00  0.00     0.091 H 
ATOM    123  H   NTO d 869     -18.476  23.726 -22.109  0.00  0.00     0.097 H 
ATOM    124  H   NTO d 869     -22.006  21.475 -21.899  0.00  0.00     0.080 H 
ATOM    125  H   NTO d 869     -23.487  20.821 -21.226  0.00  0.00     0.080 H 
ATOM    126  H   NTO d 869     -18.856  20.184 -26.608  0.00  0.00     0.231 HD
ATOM    127  H   NTO d 869      -4.264  16.066 -25.250  0.00  0.00     0.210 HD
ATOM    128  H   NTO d 869     -19.993  19.204 -13.096  0.00  0.00     0.231 HD
ATOM    129  H   NTO d 869     -18.278  20.752 -18.502  0.00  0.00     0.210 HD
ATOM    130  H   NTO d 869     -17.030  22.792 -20.920  0.00  0.00     0.104 H 
ATOM    131  H   NTO d 869      -2.895  19.377 -23.584  0.00  0.00     0.210 HD
ATOM    132  H   NTO d 869      -4.721  13.700 -23.599  0.00  0.00     0.080 H 
ATOM    133  H   NTO d 869      -4.291  14.037 -21.928  0.00  0.00     0.080 H 
ATOM    134  H   NTO d 869     -16.451  18.681 -24.615  0.00  0.00     0.140 HD
ATOM    135  H   NTO d 869     -15.793  22.842 -22.925  0.00  0.00     0.092 H 
ATOM    136  H   NTO d 869      -2.524  20.463 -23.095  0.00  0.00     0.231 HD
ATOM    137  H   NTO d 869      -8.040  18.618 -20.107  0.00  0.00     0.210 HD
ATOM    138  H   NTO d 869     -20.068  20.353 -20.034  0.00  0.00     0.091 H 
ATOM    139  H   NTO d 869      -4.554  20.504 -19.608  0.00  0.00     0.231 HD
ATOM    140  H   NTO d 869      -5.993  15.812 -23.698  0.00  0.00     0.090 H 
ATOM    141  H   NTO d 869      -4.730  18.089 -24.184  0.00  0.00     0.089 H 
ATOM    142  H   NTO d 869      -9.662  21.648 -21.564  0.00  0.00     0.210 HD
ATOM    143  H   NTO d 869     -12.162  20.272 -24.620  0.00  0.00     0.091 H 
ENDROOT
TORSDOF 46
ENDMDL
MODEL 65
REMARK VINA RESULT:      -5.3      4.513      6.930
REMARK  0 active torsions:
REMARK  status: ('A' for Active; 'I' for Inactive)
REMARK       I    between atoms: O4A_2  and  C49_47 
REMARK       I    between atoms: O4A_2  and  S4B_15 
REMARK       I    between atoms: C3F_4  and  N3G_69 
REMARK       I    between atoms: S17_5  and  O16_54 
REMARK       I    between atoms: C5L_6  and  O5M_26 
REMARK       I    between atoms: C4F_7  and  O4G_60 
REMARK       I    between atoms: N1F_9  and  C1E_19 
REMARK       I    between atoms: N1F_9  and  S1G_71 
REMARK       I    between atoms: O5J_11  and  S5H_38 
REMARK       I    between atoms: C3L_12  and  O3M_62 
REMARK       I    between atoms: C29_13  and  O2A_90 
REMARK       I    between atoms: S3B_14  and  O3A_85 
REMARK       I    between atoms: C20_18  and  O1L_72 
REMARK       I    between atoms: O3J_20  and  S3H_80 
REMARK       I    between atoms: C31_23  and  C33_44 
REMARK       I    between atoms: C46_25  and  O47_33 
REMARK       I    between atoms: O5M_26  and  C5N_35 
REMARK       I    between atoms: C51_28  and  C53_48 
REMARK       I    between atoms: C5F_29  and  N5G_43 
REMARK       I    between atoms: C59_30  and  O5A_59 
REMARK       I    between atoms: C21_31  and  C23_64 
REMARK       I    between atoms: C26_32  and  O27_76 
REMARK       I    between atoms: O1J_34  and  S1G_71 
REMARK       I    between atoms: O3K_36  and  S3H_80 
REMARK       I    between atoms: O5I_37  and  S5H_38 
REMARK       I    between atoms: S5H_38  and  O5K_53 
REMARK       I    between atoms: S5H_38  and  N5G_43 
REMARK       I    between atoms: C39_39  and  O3A_85 
REMARK       I    between atoms: C1K_40  and  O1L_72 
REMARK       I    between atoms: C2C_41  and  O2D_45 
REMARK       I    between atoms: C33_44  and  O34_74 
REMARK       I    between atoms: O2D_45  and  C30_91 
REMARK       I    between atoms: C12_46  and  O10_51 
REMARK       I    between atoms: C53_48  and  O54_57 
REMARK       I    between atoms: O3I_50  and  S3H_80 
REMARK       I    between atoms: O16_54  and  C15_68 
REMARK       I    between atoms: C43_56  and  C41_65 
REMARK       I    between atoms: O54_57  and  S55_58 
REMARK       I    between atoms: O4G_60  and  C50_77 
REMARK       I    between atoms: O3M_62  and  C40_70 
REMARK       I    between atoms: O1C_67  and  C1B_86 
REMARK       I    between atoms: C15_68  and  C13_83 
REMARK       I    between atoms: N3G_69  and  S3H_80 
REMARK       I    between atoms: S1G_71  and  O1H_75 
REMARK       I    between atoms: S1G_71  and  O1I_82 
REMARK       I    between atoms: O34_74  and  S35_81 
ROOT
ATOM      1  O42 NTO d 869     -19.801  21.172 -17.825  0.00  0.00    -0.340 OA
ATOM      2  O4A NTO d 869     -23.231  21.785 -18.997  0.00  0.00    -0.244 OA
ATOM      3  O32 NTO d 869     -18.744  20.441 -22.724  0.00  0.00    -0.349 OA
ATOM      4  C3F NTO d 869     -18.660  18.160 -21.958  0.00  0.00     0.083 C 
ATOM      5  S17 NTO d 869      -7.330  14.200 -21.800  0.00  0.00     0.251 S 
ATOM      6  C5L NTO d 869     -20.985  22.548 -12.560  0.00  0.00     0.149 C 
ATOM      7  C4F NTO d 869     -21.205  21.448 -17.704  0.00  0.00     0.161 C 
ATOM      8  O14 NTO d 869      -8.480  17.645 -23.634  0.00  0.00    -0.349 OA
ATOM      9  N1F NTO d 869      -9.431  20.402 -25.890  0.00  0.00    -0.210 NA
ATOM     10  O37 NTO d 869     -16.070  23.409 -25.336  0.00  0.00    -0.572 OA
ATOM     11  O5J NTO d 869     -18.189  22.050 -11.276  0.00  0.00    -0.296 OA
ATOM     12  C3L NTO d 869     -19.354  19.513 -21.813  0.00  0.00     0.150 C 
ATOM     13  C29 NTO d 869     -12.965  20.337 -22.514  0.00  0.00     0.110 C 
ATOM     14  S3B NTO d 869     -16.146  16.565 -20.393  0.00  0.00     0.252 S 
ATOM     15  S4B NTO d 869     -23.840  23.016 -19.398  0.00  0.00     0.252 S 
ATOM     16  O24 NTO d 869     -12.903  15.658 -23.305  0.00  0.00    -0.646 OA
ATOM     17  O45 NTO d 869     -17.234  20.524 -19.106  0.00  0.00    -0.646 OA
ATOM     18  C20 NTO d 869     -11.583  18.570 -23.589  0.00  0.00     0.103 C 
ATOM     19  C1E NTO d 869      -8.615  19.286 -25.397  0.00  0.00     0.081 C 
ATOM     20  O3J NTO d 869     -21.228  15.504 -21.586  0.00  0.00    -0.296 OA
ATOM     21  O38 NTO d 869     -16.939  21.802 -26.974  0.00  0.00    -0.572 OA
ATOM     22  O18 NTO d 869      -6.349  15.018 -21.015  0.00  0.00    -0.572 OA
ATOM     23  C31 NTO d 869     -17.379  20.697 -22.359  0.00  0.00     0.091 C 
ATOM     24  O52 NTO d 869     -21.835  21.554 -13.156  0.00  0.00    -0.349 OA
ATOM     25  C46 NTO d 869     -21.246  21.040 -20.178  0.00  0.00     0.094 C 
ATOM     26  O5M NTO d 869     -21.688  23.759 -12.256  0.00  0.00    -0.364 OA
ATOM     27  O3D NTO d 869     -15.404  15.275 -20.580  0.00  0.00    -0.572 OA
ATOM     28  C51 NTO d 869     -22.252  21.896 -14.488  0.00  0.00     0.091 C 
ATOM     29  C5F NTO d 869     -19.751  22.822 -13.423  0.00  0.00     0.081 C 
ATOM     30  C59 NTO d 869     -20.160  23.171 -14.855  0.00  0.00     0.083 C 
ATOM     31  C21 NTO d 869     -12.884  17.926 -24.041  0.00  0.00     0.152 C 
ATOM     32  C26 NTO d 869     -11.822  20.076 -23.497  0.00  0.00     0.092 C 
ATOM     33  O47 NTO d 869     -21.838  21.449 -21.414  0.00  0.00    -0.390 OA
ATOM     34  O1J NTO d 869      -9.288  22.678 -27.031  0.00  0.00    -0.296 OA
ATOM     35  C5N NTO d 869     -22.352  23.606 -10.997  0.00  0.00     0.007 C 
ATOM     36  O3K NTO d 869     -21.209  17.613 -22.806  0.00  0.00    -0.296 OA
ATOM     37  O5I NTO d 869     -16.568  23.081 -12.795  0.00  0.00    -0.296 OA
ATOM     38  S5H NTO d 869     -17.762  23.334 -11.924  0.00  0.00     0.156 S 
ATOM     39  C39 NTO d 869     -17.201  18.339 -21.534  0.00  0.00     0.108 C 
ATOM     40  C1K NTO d 869      -9.278  18.727 -24.138  0.00  0.00     0.150 C 
ATOM     41  C2C NTO d 869     -14.217  19.556 -22.923  0.00  0.00     0.160 C 
ATOM     42  O19 NTO d 869      -6.596  13.194 -22.636  0.00  0.00    -0.572 OA
ATOM     43  N5G NTO d 869     -18.975  23.926 -12.841  0.00  0.00    -0.210 NA
ATOM     44  C33 NTO d 869     -16.774  21.714 -23.330  0.00  0.00     0.067 C 
ATOM     45  O2D NTO d 869     -15.222  19.735 -21.911  0.00  0.00    -0.348 OA
ATOM     46  C12 NTO d 869      -7.859  16.952 -25.894  0.00  0.00     0.089 C 
ATOM     47  C49 NTO d 869     -21.806  21.895 -19.040  0.00  0.00     0.134 C 
ATOM     48  C53 NTO d 869     -23.114  20.741 -15.003  0.00  0.00     0.067 C 
ATOM     49  O4D NTO d 869     -23.747  23.162 -20.888  0.00  0.00    -0.572 OA
ATOM     50  O3I NTO d 869     -21.757  17.591 -20.415  0.00  0.00    -0.296 OA
ATOM     51  O10 NTO d 869      -8.011  15.873 -26.819  0.00  0.00    -0.390 OA
ATOM     52  O1A NTO d 869      -8.255  13.496 -20.856  0.00  0.00    -0.572 OA
ATOM     53  O5K NTO d 869     -17.407  24.322 -10.853  0.00  0.00    -0.296 OA
ATOM     54  O16 NTO d 869      -8.096  15.063 -22.649  0.00  0.00    -0.254 OA
ATOM     55  O56 NTO d 869     -22.495  17.819 -16.638  0.00  0.00    -0.572 OA
ATOM     56  C43 NTO d 869     -17.702  21.671 -18.925  0.00  0.00     0.206 C 
ATOM     57  O54 NTO d 869     -22.390  19.512 -14.935  0.00  0.00    -0.254 OA
ATOM     58  S55 NTO d 869     -23.010  18.274 -15.304  0.00  0.00     0.251 S 
ATOM     59  O5A NTO d 869     -18.993  23.264 -15.678  0.00  0.00    -0.391 OA
ATOM     60  O4G NTO d 869     -21.481  22.460 -16.725  0.00  0.00    -0.348 OA
ATOM     61  O3C NTO d 869     -17.391  16.301 -19.601  0.00  0.00    -0.572 OA
ATOM     62  O3M NTO d 869     -19.138  19.948 -20.464  0.00  0.00    -0.348 OA
ATOM     63  O44 NTO d 869     -16.995  22.693 -18.727  0.00  0.00    -0.646 OA
ATOM     64  C23 NTO d 869     -12.629  16.440 -24.246  0.00  0.00     0.206 C 
ATOM     65  C41 NTO d 869     -19.214  21.839 -18.956  0.00  0.00     0.152 C 
ATOM     66  O22 NTO d 869     -13.927  18.157 -23.077  0.00  0.00    -0.340 OA
ATOM     67  O1C NTO d 869      -7.857  18.659 -27.607  0.00  0.00    -0.391 OA
ATOM     68  C15 NTO d 869      -7.608  15.433 -23.940  0.00  0.00     0.067 C 
ATOM     69  N3G NTO d 869     -19.332  17.160 -21.109  0.00  0.00    -0.210 NA
ATOM     70  C40 NTO d 869     -19.733  21.234 -20.253  0.00  0.00     0.103 C 
ATOM     71  S1G NTO d 869      -8.451  21.556 -26.491  0.00  0.00     0.156 S 
ATOM     72  O1L NTO d 869     -10.566  18.245 -24.548  0.00  0.00    -0.348 OA
ATOM     73  O57 NTO d 869     -24.494  18.470 -15.387  0.00  0.00    -0.572 OA
ATOM     74  O34 NTO d 869     -16.740  21.208 -24.668  0.00  0.00    -0.254 OA
ATOM     75  O1H NTO d 869      -7.608  20.972 -27.586  0.00  0.00    -0.296 OA
ATOM     76  O27 NTO d 869     -10.639  20.730 -23.027  0.00  0.00    -0.390 OA
ATOM     77  C50 NTO d 869     -21.056  22.066 -15.412  0.00  0.00     0.095 C 
ATOM     78  O3E NTO d 869     -15.281  17.535 -19.643  0.00  0.00    -0.572 OA
ATOM     79  O25 NTO d 869     -12.139  16.078 -25.341  0.00  0.00    -0.646 OA
ATOM     80  S3H NTO d 869     -20.910  16.967 -21.486  0.00  0.00     0.156 S 
ATOM     81  S35 NTO d 869     -16.128  21.961 -25.723  0.00  0.00     0.251 S 
ATOM     82  O1I NTO d 869      -7.567  22.074 -25.394  0.00  0.00    -0.296 OA
ATOM     83  C13 NTO d 869      -8.471  16.540 -24.553  0.00  0.00     0.090 C 
ATOM     84  O58 NTO d 869     -22.695  17.241 -14.265  0.00  0.00    -0.572 OA
ATOM     85  O3A NTO d 869     -16.491  17.103 -21.674  0.00  0.00    -0.247 OA
ATOM     86  C1B NTO d 869      -8.566  18.187 -26.459  0.00  0.00     0.083 C 
ATOM     87  O4C NTO d 869     -23.142  24.164 -18.731  0.00  0.00    -0.572 OA
ATOM     88  O4E NTO d 869     -25.278  23.001 -18.976  0.00  0.00    -0.572 OA
ATOM     89  O36 NTO d 869     -14.737  21.458 -25.969  0.00  0.00    -0.572 OA
ATOM     90  O2A NTO d 869     -13.258  21.735 -22.490  0.00  0.00    -0.388 OA
ATOM     91  C30 NTO d 869     -16.541  19.425 -22.390  0.00  0.00     0.096 C 
ATOM     92  H   NTO d 869     -18.706  17.814 -22.970  0.00  0.00     0.076 H 
ATOM     93  H   NTO d 869     -20.649  22.143 -11.629  0.00  0.00     0.131 H 
ATOM     94  H   NTO d 869     -21.654  20.529 -17.391  0.00  0.00     0.133 H 
ATOM     95  H   NTO d 869      -9.981  20.787 -25.122  0.00  0.00     0.140 HD
ATOM     96  H   NTO d 869     -17.463  21.705 -10.733  0.00  0.00     0.231 HD
ATOM     97  H   NTO d 869     -20.401  19.448 -22.029  0.00  0.00     0.131 H 
ATOM     98  H   NTO d 869     -12.663  20.012 -21.540  0.00  0.00     0.094 H 
ATOM     99  H   NTO d 869     -11.261  18.214 -22.633  0.00  0.00     0.092 H 
ATOM    100  H   NTO d 869      -7.621  19.622 -25.183  0.00  0.00     0.076 H 
ATOM    101  H   NTO d 869     -22.164  15.391 -21.810  0.00  0.00     0.231 HD
ATOM    102  H   NTO d 869     -17.373  21.079 -21.360  0.00  0.00     0.090 H 
ATOM    103  H   NTO d 869     -21.469  20.009 -19.998  0.00  0.00     0.091 H 
ATOM    104  H   NTO d 869     -22.792  22.820 -14.469  0.00  0.00     0.090 H 
ATOM    105  H   NTO d 869     -19.149  21.938 -13.449  0.00  0.00     0.076 H 
ATOM    106  H   NTO d 869     -20.683  24.105 -14.851  0.00  0.00     0.089 H 
ATOM    107  H   NTO d 869     -13.216  18.360 -24.961  0.00  0.00     0.104 H 
ATOM    108  H   NTO d 869     -12.073  20.456 -24.465  0.00  0.00     0.091 H 
ATOM    109  H   NTO d 869     -21.635  22.384 -21.576  0.00  0.00     0.210 HD
ATOM    110  H   NTO d 869      -9.858  22.343 -27.740  0.00  0.00     0.231 HD
ATOM    111  H   NTO d 869     -22.880  24.506 -10.760  0.00  0.00     0.066 H 
ATOM    112  H   NTO d 869     -21.629  23.405 -10.234  0.00  0.00     0.066 H 
ATOM    113  H   NTO d 869     -23.043  22.791 -11.056  0.00  0.00     0.066 H 
ATOM    114  H   NTO d 869     -22.148  17.493 -23.019  0.00  0.00     0.231 HD
ATOM    115  H   NTO d 869     -15.843  22.728 -12.255  0.00  0.00     0.231 HD
ATOM    116  H   NTO d 869     -17.172  18.638 -20.507  0.00  0.00     0.092 H 
ATOM    117  H   NTO d 869      -9.372  19.463 -23.367  0.00  0.00     0.131 H 
ATOM    118  H   NTO d 869     -14.565  19.926 -23.864  0.00  0.00     0.133 H 
ATOM    119  H   NTO d 869     -19.587  24.500 -12.261  0.00  0.00     0.140 HD
ATOM    120  H   NTO d 869     -15.775  21.941 -23.019  0.00  0.00     0.080 H 
ATOM    121  H   NTO d 869     -17.385  22.593 -23.319  0.00  0.00     0.080 H 
ATOM    122  H   NTO d 869      -6.826  17.183 -25.743  0.00  0.00     0.091 H 
ATOM    123  H   NTO d 869     -21.543  22.917 -19.215  0.00  0.00     0.097 H 
ATOM    124  H   NTO d 869     -23.390  20.933 -16.019  0.00  0.00     0.080 H 
ATOM    125  H   NTO d 869     -23.990  20.662 -14.393  0.00  0.00     0.080 H 
ATOM    126  H   NTO d 869     -22.694  17.478 -20.638  0.00  0.00     0.231 HD
ATOM    127  H   NTO d 869      -8.954  15.681 -26.940  0.00  0.00     0.210 HD
ATOM    128  H   NTO d 869     -16.686  23.966 -10.311  0.00  0.00     0.231 HD
ATOM    129  H   NTO d 869     -18.527  22.414 -15.675  0.00  0.00     0.210 HD
ATOM    130  H   NTO d 869     -19.474  22.875 -18.908  0.00  0.00     0.104 H 
ATOM    131  H   NTO d 869      -8.306  19.441 -27.965  0.00  0.00     0.210 HD
ATOM    132  H   NTO d 869      -7.629  14.577 -24.582  0.00  0.00     0.080 H 
ATOM    133  H   NTO d 869      -6.607  15.798 -23.836  0.00  0.00     0.080 H 
ATOM    134  H   NTO d 869     -19.264  17.459 -20.135  0.00  0.00     0.140 HD
ATOM    135  H   NTO d 869     -19.485  21.899 -21.052  0.00  0.00     0.092 H 
ATOM    136  H   NTO d 869      -8.183  20.639 -28.292  0.00  0.00     0.231 HD
ATOM    137  H   NTO d 869     -10.407  20.388 -22.149  0.00  0.00     0.210 HD
ATOM    138  H   NTO d 869     -20.534  21.134 -15.472  0.00  0.00     0.091 H 
ATOM    139  H   NTO d 869      -8.116  22.451 -24.688  0.00  0.00     0.231 HD
ATOM    140  H   NTO d 869      -9.474  16.210 -24.724  0.00  0.00     0.090 H 
ATOM    141  H   NTO d 869      -9.565  17.925 -26.740  0.00  0.00     0.089 H 
ATOM    142  H   NTO d 869     -13.530  22.023 -23.375  0.00  0.00     0.210 HD
ATOM    143  H   NTO d 869     -16.470  19.051 -23.390  0.00  0.00     0.091 H 
ENDROOT
TORSDOF 46
ENDMDL
MODEL 66
REMARK VINA RESULT:      -5.2      3.125      4.439
REMARK  0 active torsions:
REMARK  status: ('A' for Active; 'I' for Inactive)
REMARK       I    between atoms: O4A_2  and  C49_47 
REMARK       I    between atoms: O4A_2  and  S4B_15 
REMARK       I    between atoms: C3F_4  and  N3G_69 
REMARK       I    between atoms: S17_5  and  O16_54 
REMARK       I    between atoms: C5L_6  and  O5M_26 
REMARK       I    between atoms: C4F_7  and  O4G_60 
REMARK       I    between atoms: N1F_9  and  C1E_19 
REMARK       I    between atoms: N1F_9  and  S1G_71 
REMARK       I    between atoms: O5J_11  and  S5H_38 
REMARK       I    between atoms: C3L_12  and  O3M_62 
REMARK       I    between atoms: C29_13  and  O2A_90 
REMARK       I    between atoms: S3B_14  and  O3A_85 
REMARK       I    between atoms: C20_18  and  O1L_72 
REMARK       I    between atoms: O3J_20  and  S3H_80 
REMARK       I    between atoms: C31_23  and  C33_44 
REMARK       I    between atoms: C46_25  and  O47_33 
REMARK       I    between atoms: O5M_26  and  C5N_35 
REMARK       I    between atoms: C51_28  and  C53_48 
REMARK       I    between atoms: C5F_29  and  N5G_43 
REMARK       I    between atoms: C59_30  and  O5A_59 
REMARK       I    between atoms: C21_31  and  C23_64 
REMARK       I    between atoms: C26_32  and  O27_76 
REMARK       I    between atoms: O1J_34  and  S1G_71 
REMARK       I    between atoms: O3K_36  and  S3H_80 
REMARK       I    between atoms: O5I_37  and  S5H_38 
REMARK       I    between atoms: S5H_38  and  O5K_53 
REMARK       I    between atoms: S5H_38  and  N5G_43 
REMARK       I    between atoms: C39_39  and  O3A_85 
REMARK       I    between atoms: C1K_40  and  O1L_72 
REMARK       I    between atoms: C2C_41  and  O2D_45 
REMARK       I    between atoms: C33_44  and  O34_74 
REMARK       I    between atoms: O2D_45  and  C30_91 
REMARK       I    between atoms: C12_46  and  O10_51 
REMARK       I    between atoms: C53_48  and  O54_57 
REMARK       I    between atoms: O3I_50  and  S3H_80 
REMARK       I    between atoms: O16_54  and  C15_68 
REMARK       I    between atoms: C43_56  and  C41_65 
REMARK       I    between atoms: O54_57  and  S55_58 
REMARK       I    between atoms: O4G_60  and  C50_77 
REMARK       I    between atoms: O3M_62  and  C40_70 
REMARK       I    between atoms: O1C_67  and  C1B_86 
REMARK       I    between atoms: C15_68  and  C13_83 
REMARK       I    between atoms: N3G_69  and  S3H_80 
REMARK       I    between atoms: S1G_71  and  O1H_75 
REMARK       I    between atoms: S1G_71  and  O1I_82 
REMARK       I    between atoms: O34_74  and  S35_81 
ROOT
ATOM      1  O42 NTO d 869     -21.124  20.569 -21.873  0.00  0.00    -0.340 OA
ATOM      2  O4A NTO d 869     -22.793  23.811 -22.336  0.00  0.00    -0.244 OA
ATOM      3  O32 NTO d 869     -17.084  23.345 -20.600  0.00  0.00    -0.349 OA
ATOM      4  C3F NTO d 869     -16.379  22.599 -22.778  0.00  0.00     0.083 C 
ATOM      5  S17 NTO d 869      -7.609  14.462 -21.796  0.00  0.00     0.251 S 
ATOM      6  C5L NTO d 869     -25.787  17.653 -22.747  0.00  0.00     0.149 C 
ATOM      7  C4F NTO d 869     -22.192  21.463 -22.223  0.00  0.00     0.161 C 
ATOM      8  O14 NTO d 869      -8.878  16.782 -18.703  0.00  0.00    -0.349 OA
ATOM      9  N1F NTO d 869      -9.424  19.230 -16.001  0.00  0.00    -0.210 NA
ATOM     10  O37 NTO d 869     -15.302  23.571 -16.177  0.00  0.00    -0.572 OA
ATOM     11  O5J NTO d 869     -24.632  14.773 -22.468  0.00  0.00    -0.296 OA
ATOM     12  C3L NTO d 869     -17.561  23.051 -21.922  0.00  0.00     0.150 C 
ATOM     13  C29 NTO d 869     -13.638  19.213 -18.477  0.00  0.00     0.110 C 
ATOM     14  S3B NTO d 869     -15.027  19.644 -23.647  0.00  0.00     0.252 S 
ATOM     15  S4B NTO d 869     -23.525  24.592 -21.387  0.00  0.00     0.252 S 
ATOM     16  O24 NTO d 869     -10.797  19.468 -22.270  0.00  0.00    -0.646 OA
ATOM     17  O45 NTO d 869     -18.445  19.693 -21.033  0.00  0.00    -0.646 OA
ATOM     18  C20 NTO d 869     -11.255  18.937 -19.138  0.00  0.00     0.103 C 
ATOM     19  C1E NTO d 869      -8.679  18.247 -16.797  0.00  0.00     0.081 C 
ATOM     20  O3J NTO d 869     -16.863  23.940 -26.207  0.00  0.00    -0.296 OA
ATOM     21  O38 NTO d 869     -14.022  25.259 -17.416  0.00  0.00    -0.572 OA
ATOM     22  O18 NTO d 869      -7.902  13.268 -20.938  0.00  0.00    -0.572 OA
ATOM     23  C31 NTO d 869     -16.604  22.157 -19.952  0.00  0.00     0.091 C 
ATOM     24  O52 NTO d 869     -25.445  18.611 -23.763  0.00  0.00    -0.349 OA
ATOM     25  C46 NTO d 869     -20.483  23.258 -21.841  0.00  0.00     0.094 C 
ATOM     26  O5M NTO d 869     -27.003  17.987 -22.067  0.00  0.00    -0.364 OA
ATOM     27  O3D NTO d 869     -13.821  19.194 -24.417  0.00  0.00    -0.572 OA
ATOM     28  C51 NTO d 869     -25.044  19.882 -23.226  0.00  0.00     0.091 C 
ATOM     29  C5F NTO d 869     -24.636  17.446 -21.761  0.00  0.00     0.081 C 
ATOM     30  C59 NTO d 869     -24.171  18.783 -21.184  0.00  0.00     0.083 C 
ATOM     31  C21 NTO d 869     -11.451  20.122 -20.072  0.00  0.00     0.152 C 
ATOM     32  C26 NTO d 869     -12.203  19.123 -17.954  0.00  0.00     0.092 C 
ATOM     33  O47 NTO d 869     -20.280  24.584 -21.343  0.00  0.00    -0.390 OA
ATOM     34  O1J NTO d 869      -9.755  20.091 -13.624  0.00  0.00    -0.296 OA
ATOM     35  C5N NTO d 869     -28.112  17.524 -22.844  0.00  0.00     0.007 C 
ATOM     36  O3K NTO d 869     -17.138  24.933 -23.999  0.00  0.00    -0.296 OA
ATOM     37  O5I NTO d 869     -23.212  14.818 -20.473  0.00  0.00    -0.296 OA
ATOM     38  S5H NTO d 869     -24.604  15.023 -20.990  0.00  0.00     0.156 S 
ATOM     39  C39 NTO d 869     -15.841  21.300 -22.177  0.00  0.00     0.108 C 
ATOM     40  C1K NTO d 869      -9.587  17.760 -17.926  0.00  0.00     0.150 C 
ATOM     41  C2C NTO d 869     -13.762  20.324 -19.523  0.00  0.00     0.160 C 
ATOM     42  O19 NTO d 869      -6.147  14.504 -22.125  0.00  0.00    -0.572 OA
ATOM     43  N5G NTO d 869     -25.069  16.555 -20.675  0.00  0.00    -0.210 NA
ATOM     44  C33 NTO d 869     -16.136  22.503 -18.535  0.00  0.00     0.067 C 
ATOM     45  O2D NTO d 869     -15.090  20.294 -20.071  0.00  0.00    -0.348 OA
ATOM     46  C12 NTO d 869      -6.757  17.950 -18.373  0.00  0.00     0.089 C 
ATOM     47  C49 NTO d 869     -21.951  22.869 -21.666  0.00  0.00     0.134 C 
ATOM     48  C53 NTO d 869     -24.680  20.779 -24.410  0.00  0.00     0.067 C 
ATOM     49  O4D NTO d 869     -22.617  25.615 -20.770  0.00  0.00    -0.572 OA
ATOM     50  O3I NTO d 869     -18.942  23.578 -24.961  0.00  0.00    -0.296 OA
ATOM     51  O10 NTO d 869      -5.743  18.662 -19.087  0.00  0.00    -0.390 OA
ATOM     52  O1A NTO d 869      -8.411  14.374 -23.058  0.00  0.00    -0.572 OA
ATOM     53  O5K NTO d 869     -25.540  14.062 -20.318  0.00  0.00    -0.296 OA
ATOM     54  O16 NTO d 869      -7.977  15.654 -21.091  0.00  0.00    -0.254 OA
ATOM     55  O56 NTO d 869     -21.845  21.365 -26.203  0.00  0.00    -0.572 OA
ATOM     56  C43 NTO d 869     -19.410  19.951 -20.278  0.00  0.00     0.206 C 
ATOM     57  O54 NTO d 869     -23.672  20.160 -25.212  0.00  0.00    -0.254 OA
ATOM     58  S55 NTO d 869     -23.210  20.781 -26.417  0.00  0.00     0.251 S 
ATOM     59  O5A NTO d 869     -22.996  18.582 -20.393  0.00  0.00    -0.391 OA
ATOM     60  O4G NTO d 869     -23.467  21.003 -21.752  0.00  0.00    -0.348 OA
ATOM     61  O3C NTO d 869     -16.147  19.912 -24.607  0.00  0.00    -0.572 OA
ATOM     62  O3M NTO d 869     -18.480  21.951 -21.870  0.00  0.00    -0.348 OA
ATOM     63  O44 NTO d 869     -19.606  19.381 -19.174  0.00  0.00    -0.646 OA
ATOM     64  C23 NTO d 869     -10.434  20.007 -21.197  0.00  0.00     0.206 C 
ATOM     65  C41 NTO d 869     -20.395  21.023 -20.719  0.00  0.00     0.152 C 
ATOM     66  O22 NTO d 869     -12.798  20.155 -20.575  0.00  0.00    -0.340 OA
ATOM     67  O1C NTO d 869      -6.538  19.289 -16.370  0.00  0.00    -0.391 OA
ATOM     68  C15 NTO d 869      -7.063  16.275 -20.185  0.00  0.00     0.067 C 
ATOM     69  N3G NTO d 869     -16.821  22.388 -24.169  0.00  0.00    -0.210 NA
ATOM     70  C40 NTO d 869     -19.610  22.283 -21.054  0.00  0.00     0.103 C 
ATOM     71  S1G NTO d 869      -9.024  19.059 -14.431  0.00  0.00     0.156 S 
ATOM     72  O1L NTO d 869      -9.881  18.913 -18.727  0.00  0.00    -0.348 OA
ATOM     73  O57 NTO d 869     -24.160  21.873 -26.807  0.00  0.00    -0.572 OA
ATOM     74  O34 NTO d 869     -15.036  23.418 -18.554  0.00  0.00    -0.254 OA
ATOM     75  O1H NTO d 869      -7.544  19.238 -14.272  0.00  0.00    -0.296 OA
ATOM     76  O27 NTO d 869     -12.096  18.008 -17.064  0.00  0.00    -0.390 OA
ATOM     77  C50 NTO d 869     -23.826  19.737 -22.326  0.00  0.00     0.095 C 
ATOM     78  O3E NTO d 869     -15.443  18.563 -22.693  0.00  0.00    -0.572 OA
ATOM     79  O25 NTO d 869      -9.277  20.441 -20.985  0.00  0.00    -0.646 OA
ATOM     80  S3H NTO d 869     -17.454  23.735 -24.843  0.00  0.00     0.156 S 
ATOM     81  S35 NTO d 869     -14.382  23.806 -17.338  0.00  0.00     0.251 S 
ATOM     82  O1I NTO d 869      -9.421  17.688 -13.967  0.00  0.00    -0.296 OA
ATOM     83  C13 NTO d 869      -7.757  17.376 -19.379  0.00  0.00     0.090 C 
ATOM     84  O58 NTO d 869     -23.151  19.752 -27.505  0.00  0.00    -0.572 OA
ATOM     85  O3A NTO d 869     -14.710  20.840 -22.926  0.00  0.00    -0.247 OA
ATOM     86  C1B NTO d 869      -7.448  18.917 -17.408  0.00  0.00     0.083 C 
ATOM     87  O4C NTO d 869     -24.079  23.697 -20.318  0.00  0.00    -0.572 OA
ATOM     88  O4E NTO d 869     -24.655  25.275 -22.095  0.00  0.00    -0.572 OA
ATOM     89  O36 NTO d 869     -13.133  22.998 -17.152  0.00  0.00    -0.572 OA
ATOM     90  O2A NTO d 869     -14.522  19.479 -17.387  0.00  0.00    -0.388 OA
ATOM     91  C30 NTO d 869     -15.445  21.528 -20.714  0.00  0.00     0.096 C 
ATOM     92  H   NTO d 869     -15.609  23.343 -22.789  0.00  0.00     0.076 H 
ATOM     93  H   NTO d 869     -25.959  16.725 -23.249  0.00  0.00     0.131 H 
ATOM     94  H   NTO d 869     -22.206  21.491 -23.293  0.00  0.00     0.133 H 
ATOM     95  H   NTO d 869     -10.425  19.075 -16.117  0.00  0.00     0.140 HD
ATOM     96  H   NTO d 869     -24.354  13.860 -22.647  0.00  0.00     0.231 HD
ATOM     97  H   NTO d 869     -18.034  23.923 -22.325  0.00  0.00     0.131 H 
ATOM     98  H   NTO d 869     -13.896  18.282 -18.936  0.00  0.00     0.094 H 
ATOM     99  H   NTO d 869     -11.476  18.003 -19.611  0.00  0.00     0.092 H 
ATOM    100  H   NTO d 869      -8.372  17.429 -16.179  0.00  0.00     0.076 H 
ATOM    101  H   NTO d 869     -17.239  24.739 -26.606  0.00  0.00     0.231 HD
ATOM    102  H   NTO d 869     -17.408  21.452 -19.922  0.00  0.00     0.090 H 
ATOM    103  H   NTO d 869     -20.220  23.221 -22.878  0.00  0.00     0.091 H 
ATOM    104  H   NTO d 869     -25.841  20.293 -22.643  0.00  0.00     0.090 H 
ATOM    105  H   NTO d 869     -23.816  16.999 -22.283  0.00  0.00     0.076 H 
ATOM    106  H   NTO d 869     -24.954  19.195 -20.581  0.00  0.00     0.089 H 
ATOM    107  H   NTO d 869     -11.297  21.041 -19.545  0.00  0.00     0.104 H 
ATOM    108  H   NTO d 869     -11.944  20.019 -17.428  0.00  0.00     0.091 H 
ATOM    109  H   NTO d 869     -20.518  24.616 -20.403  0.00  0.00     0.210 HD
ATOM    110  H   NTO d 869      -9.498  20.977 -13.923  0.00  0.00     0.231 HD
ATOM    111  H   NTO d 869     -29.026  17.768 -22.343  0.00  0.00     0.066 H 
ATOM    112  H   NTO d 869     -28.045  16.463 -22.965  0.00  0.00     0.066 H 
ATOM    113  H   NTO d 869     -28.095  17.994 -23.805  0.00  0.00     0.066 H 
ATOM    114  H   NTO d 869     -17.519  25.726 -24.408  0.00  0.00     0.231 HD
ATOM    115  H   NTO d 869     -22.930  13.908 -20.658  0.00  0.00     0.231 HD
ATOM    116  H   NTO d 869     -16.606  20.554 -22.218  0.00  0.00     0.092 H 
ATOM    117  H   NTO d 869     -10.486  17.309 -17.560  0.00  0.00     0.131 H 
ATOM    118  H   NTO d 869     -13.574  21.267 -19.053  0.00  0.00     0.133 H 
ATOM    119  H   NTO d 869     -26.085  16.590 -20.594  0.00  0.00     0.140 HD
ATOM    120  H   NTO d 869     -15.832  21.605 -18.040  0.00  0.00     0.080 H 
ATOM    121  H   NTO d 869     -16.950  22.967 -18.017  0.00  0.00     0.080 H 
ATOM    122  H   NTO d 869      -6.334  17.144 -17.810  0.00  0.00     0.091 H 
ATOM    123  H   NTO d 869     -22.188  22.875 -20.623  0.00  0.00     0.097 H 
ATOM    124  H   NTO d 869     -24.313  21.715 -24.044  0.00  0.00     0.080 H 
ATOM    125  H   NTO d 869     -25.552  20.935 -25.010  0.00  0.00     0.080 H 
ATOM    126  H   NTO d 869     -19.320  24.377 -25.361  0.00  0.00     0.231 HD
ATOM    127  H   NTO d 869      -6.149  19.386 -19.588  0.00  0.00     0.210 HD
ATOM    128  H   NTO d 869     -25.260  13.152 -20.508  0.00  0.00     0.231 HD
ATOM    129  H   NTO d 869     -22.293  18.209 -20.947  0.00  0.00     0.210 HD
ATOM    130  H   NTO d 869     -21.096  21.228 -19.937  0.00  0.00     0.104 H 
ATOM    131  H   NTO d 869      -6.977  19.902 -15.760  0.00  0.00     0.210 HD
ATOM    132  H   NTO d 869      -6.256  16.703 -20.741  0.00  0.00     0.080 H 
ATOM    133  H   NTO d 869      -6.697  15.532 -19.506  0.00  0.00     0.080 H 
ATOM    134  H   NTO d 869     -17.530  21.654 -24.178  0.00  0.00     0.140 HD
ATOM    135  H   NTO d 869     -19.292  22.730 -20.136  0.00  0.00     0.092 H 
ATOM    136  H   NTO d 869      -7.292  20.125 -14.573  0.00  0.00     0.231 HD
ATOM    137  H   NTO d 869     -12.329  17.193 -17.536  0.00  0.00     0.210 HD
ATOM    138  H   NTO d 869     -23.010  19.367 -22.911  0.00  0.00     0.091 H 
ATOM    139  H   NTO d 869     -10.379  17.576 -14.071  0.00  0.00     0.231 HD
ATOM    140  H   NTO d 869      -8.100  18.171 -20.009  0.00  0.00     0.090 H 
ATOM    141  H   NTO d 869      -7.754  19.792 -17.943  0.00  0.00     0.089 H 
ATOM    142  H   NTO d 869     -14.283  20.324 -16.975  0.00  0.00     0.210 HD
ATOM    143  H   NTO d 869     -14.597  22.182 -20.707  0.00  0.00     0.091 H 
ENDROOT
TORSDOF 46
ENDMDL
MODEL 67
REMARK VINA RESULT:      -5.1      3.460      6.581
REMARK  0 active torsions:
REMARK  status: ('A' for Active; 'I' for Inactive)
REMARK       I    between atoms: O4A_2  and  C49_47 
REMARK       I    between atoms: O4A_2  and  S4B_15 
REMARK       I    between atoms: C3F_4  and  N3G_69 
REMARK       I    between atoms: S17_5  and  O16_54 
REMARK       I    between atoms: C5L_6  and  O5M_26 
REMARK       I    between atoms: C4F_7  and  O4G_60 
REMARK       I    between atoms: N1F_9  and  C1E_19 
REMARK       I    between atoms: N1F_9  and  S1G_71 
REMARK       I    between atoms: O5J_11  and  S5H_38 
REMARK       I    between atoms: C3L_12  and  O3M_62 
REMARK       I    between atoms: C29_13  and  O2A_90 
REMARK       I    between atoms: S3B_14  and  O3A_85 
REMARK       I    between atoms: C20_18  and  O1L_72 
REMARK       I    between atoms: O3J_20  and  S3H_80 
REMARK       I    between atoms: C31_23  and  C33_44 
REMARK       I    between atoms: C46_25  and  O47_33 
REMARK       I    between atoms: O5M_26  and  C5N_35 
REMARK       I    between atoms: C51_28  and  C53_48 
REMARK       I    between atoms: C5F_29  and  N5G_43 
REMARK       I    between atoms: C59_30  and  O5A_59 
REMARK       I    between atoms: C21_31  and  C23_64 
REMARK       I    between atoms: C26_32  and  O27_76 
REMARK       I    between atoms: O1J_34  and  S1G_71 
REMARK       I    between atoms: O3K_36  and  S3H_80 
REMARK       I    between atoms: O5I_37  and  S5H_38 
REMARK       I    between atoms: S5H_38  and  O5K_53 
REMARK       I    between atoms: S5H_38  and  N5G_43 
REMARK       I    between atoms: C39_39  and  O3A_85 
REMARK       I    between atoms: C1K_40  and  O1L_72 
REMARK       I    between atoms: C2C_41  and  O2D_45 
REMARK       I    between atoms: C33_44  and  O34_74 
REMARK       I    between atoms: O2D_45  and  C30_91 
REMARK       I    between atoms: C12_46  and  O10_51 
REMARK       I    between atoms: C53_48  and  O54_57 
REMARK       I    between atoms: O3I_50  and  S3H_80 
REMARK       I    between atoms: O16_54  and  C15_68 
REMARK       I    between atoms: C43_56  and  C41_65 
REMARK       I    between atoms: O54_57  and  S55_58 
REMARK       I    between atoms: O4G_60  and  C50_77 
REMARK       I    between atoms: O3M_62  and  C40_70 
REMARK       I    between atoms: O1C_67  and  C1B_86 
REMARK       I    between atoms: C15_68  and  C13_83 
REMARK       I    between atoms: N3G_69  and  S3H_80 
REMARK       I    between atoms: S1G_71  and  O1H_75 
REMARK       I    between atoms: S1G_71  and  O1I_82 
REMARK       I    between atoms: O34_74  and  S35_81 
ROOT
ATOM      1  O42 NTO d 869     -20.434  18.287 -17.493  0.00  0.00    -0.340 OA
ATOM      2  O4A NTO d 869     -21.836  18.785 -14.132  0.00  0.00    -0.244 OA
ATOM      3  O32 NTO d 869     -16.039  19.629 -15.362  0.00  0.00    -0.349 OA
ATOM      4  C3F NTO d 869     -16.496  21.632 -16.618  0.00  0.00     0.083 C 
ATOM      5  S17 NTO d 869      -9.023  22.516 -25.970  0.00  0.00     0.251 S 
ATOM      6  C5L NTO d 869     -25.203  16.296 -19.565  0.00  0.00     0.149 C 
ATOM      7  C4F NTO d 869     -21.459  18.355 -16.490  0.00  0.00     0.161 C 
ATOM      8  O14 NTO d 869      -8.501  19.876 -22.919  0.00  0.00    -0.349 OA
ATOM      9  N1F NTO d 869      -7.512  17.916 -19.956  0.00  0.00    -0.210 NA
ATOM     10  O37 NTO d 869     -12.395  16.625 -14.672  0.00  0.00    -0.572 OA
ATOM     11  O5J NTO d 869     -24.307  15.827 -22.512  0.00  0.00    -0.296 OA
ATOM     12  C3L NTO d 869     -17.100  20.494 -15.797  0.00  0.00     0.150 C 
ATOM     13  C29 NTO d 869     -12.377  18.237 -19.617  0.00  0.00     0.110 C 
ATOM     14  S3B NTO d 869     -15.966  22.223 -19.887  0.00  0.00     0.252 S 
ATOM     15  S4B NTO d 869     -21.971  17.844 -13.063  0.00  0.00     0.252 S 
ATOM     16  O24 NTO d 869     -11.615  22.813 -20.618  0.00  0.00    -0.646 OA
ATOM     17  O45 NTO d 869     -17.759  18.496 -18.699  0.00  0.00    -0.646 OA
ATOM     18  C20 NTO d 869     -10.609  19.768 -20.464  0.00  0.00     0.103 C 
ATOM     19  C1E NTO d 869      -7.312  18.679 -21.194  0.00  0.00     0.081 C 
ATOM     20  O3J NTO d 869     -18.398  24.730 -15.865  0.00  0.00    -0.296 OA
ATOM     21  O38 NTO d 869     -11.695  18.676 -13.520  0.00  0.00    -0.572 OA
ATOM     22  O18 NTO d 869      -8.986  21.347 -26.907  0.00  0.00    -0.572 OA
ATOM     23  C31 NTO d 869     -15.419  18.975 -16.480  0.00  0.00     0.091 C 
ATOM     24  O52 NTO d 869     -25.291  17.565 -18.895  0.00  0.00    -0.349 OA
ATOM     25  C46 NTO d 869     -19.619  19.214 -15.020  0.00  0.00     0.094 C 
ATOM     26  O5M NTO d 869     -25.929  15.265 -18.883  0.00  0.00    -0.364 OA
ATOM     27  O3D NTO d 869     -15.301  23.297 -20.695  0.00  0.00    -0.572 OA
ATOM     28  C51 NTO d 869     -24.576  17.593 -17.649  0.00  0.00     0.091 C 
ATOM     29  C5F NTO d 869     -23.749  15.887 -19.805  0.00  0.00     0.081 C 
ATOM     30  C59 NTO d 869     -22.954  15.924 -18.499  0.00  0.00     0.083 C 
ATOM     31  C21 NTO d 869     -11.112  20.791 -19.457  0.00  0.00     0.152 C 
ATOM     32  C26 NTO d 869     -10.877  18.381 -19.884  0.00  0.00     0.092 C 
ATOM     33  O47 NTO d 869     -19.093  19.205 -13.689  0.00  0.00    -0.390 OA
ATOM     34  O1J NTO d 869      -6.624  15.931 -18.625  0.00  0.00    -0.296 OA
ATOM     35  C5N NTO d 869     -27.308  15.343 -19.259  0.00  0.00     0.007 C 
ATOM     36  O3K NTO d 869     -17.528  22.950 -14.447  0.00  0.00    -0.296 OA
ATOM     37  O5I NTO d 869     -22.125  14.724 -22.375  0.00  0.00    -0.296 OA
ATOM     38  S5H NTO d 869     -23.574  14.621 -22.004  0.00  0.00     0.156 S 
ATOM     39  C39 NTO d 869     -15.855  21.016 -17.863  0.00  0.00     0.108 C 
ATOM     40  C1K NTO d 869      -8.680  19.142 -21.697  0.00  0.00     0.150 C 
ATOM     41  C2C NTO d 869     -12.876  19.369 -18.715  0.00  0.00     0.160 C 
ATOM     42  O19 NTO d 869      -7.884  23.443 -26.273  0.00  0.00    -0.572 OA
ATOM     43  N5G NTO d 869     -23.703  14.534 -20.380  0.00  0.00    -0.210 NA
ATOM     44  C33 NTO d 869     -14.318  18.037 -15.975  0.00  0.00     0.067 C 
ATOM     45  O2D NTO d 869     -14.304  19.263 -18.589  0.00  0.00    -0.348 OA
ATOM     46  C12 NTO d 869      -6.376  20.799 -22.142  0.00  0.00     0.089 C 
ATOM     47  C49 NTO d 869     -20.865  18.331 -15.078  0.00  0.00     0.134 C 
ATOM     48  C53 NTO d 869     -24.727  19.002 -17.073  0.00  0.00     0.067 C 
ATOM     49  O4D NTO d 869     -20.795  17.959 -12.138  0.00  0.00    -0.572 OA
ATOM     50  O3I NTO d 869     -19.683  22.663 -15.583  0.00  0.00    -0.296 OA
ATOM     51  O10 NTO d 869      -5.752  22.034 -21.783  0.00  0.00    -0.390 OA
ATOM     52  O1A NTO d 869     -10.324  23.241 -26.133  0.00  0.00    -0.572 OA
ATOM     53  O5K NTO d 869     -24.170  13.393 -22.626  0.00  0.00    -0.296 OA
ATOM     54  O16 NTO d 869      -8.916  22.048 -24.620  0.00  0.00    -0.254 OA
ATOM     55  O56 NTO d 869     -23.012  21.927 -17.385  0.00  0.00    -0.572 OA
ATOM     56  C43 NTO d 869     -18.236  17.491 -18.125  0.00  0.00     0.206 C 
ATOM     57  O54 NTO d 869     -24.266  19.975 -18.011  0.00  0.00    -0.254 OA
ATOM     58  S55 NTO d 869     -24.364  21.375 -17.724  0.00  0.00     0.251 S 
ATOM     59  O5A NTO d 869     -21.568  15.696 -18.774  0.00  0.00    -0.391 OA
ATOM     60  O4G NTO d 869     -22.404  17.280 -16.600  0.00  0.00    -0.348 OA
ATOM     61  O3C NTO d 869     -17.376  22.639 -19.590  0.00  0.00    -0.572 OA
ATOM     62  O3M NTO d 869     -17.981  19.775 -16.670  0.00  0.00    -0.348 OA
ATOM     63  O44 NTO d 869     -17.945  16.305 -18.433  0.00  0.00    -0.646 OA
ATOM     64  C23 NTO d 869     -10.749  22.176 -19.971  0.00  0.00     0.206 C 
ATOM     65  C41 NTO d 869     -19.215  17.717 -16.983  0.00  0.00     0.152 C 
ATOM     66  O22 NTO d 869     -12.530  20.654 -19.258  0.00  0.00    -0.340 OA
ATOM     67  O1C NTO d 869      -5.136  19.497 -20.524  0.00  0.00    -0.391 OA
ATOM     68  C15 NTO d 869      -7.635  21.814 -24.031  0.00  0.00     0.067 C 
ATOM     69  N3G NTO d 869     -17.550  22.592 -16.993  0.00  0.00    -0.210 NA
ATOM     70  C40 NTO d 869     -18.569  18.664 -15.982  0.00  0.00     0.103 C 
ATOM     71  S1G NTO d 869      -6.445  16.686 -19.909  0.00  0.00     0.156 S 
ATOM     72  O1L NTO d 869      -9.210  20.000 -20.677  0.00  0.00    -0.348 OA
ATOM     73  O57 NTO d 869     -25.288  21.578 -16.561  0.00  0.00    -0.572 OA
ATOM     74  O34 NTO d 869     -13.278  18.759 -15.309  0.00  0.00    -0.254 OA
ATOM     75  O1H NTO d 869      -5.051  17.233 -19.993  0.00  0.00    -0.296 OA
ATOM     76  O27 NTO d 869     -10.467  17.375 -20.815  0.00  0.00    -0.390 OA
ATOM     77  C50 NTO d 869     -23.097  17.303 -17.857  0.00  0.00     0.095 C 
ATOM     78  O3E NTO d 869     -15.984  20.945 -20.673  0.00  0.00    -0.572 OA
ATOM     79  O25 NTO d 869      -9.593  22.601 -19.736  0.00  0.00    -0.646 OA
ATOM     80  S3H NTO d 869     -18.303  23.242 -15.697  0.00  0.00     0.156 S 
ATOM     81  S35 NTO d 869     -12.103  18.087 -14.837  0.00  0.00     0.251 S 
ATOM     82  O1I NTO d 869      -6.699  15.767 -21.069  0.00  0.00    -0.296 OA
ATOM     83  C13 NTO d 869      -7.775  21.094 -22.687  0.00  0.00     0.090 C 
ATOM     84  O58 NTO d 869     -24.909  22.084 -18.928  0.00  0.00    -0.572 OA
ATOM     85  O3A NTO d 869     -15.248  22.037 -18.663  0.00  0.00    -0.247 OA
ATOM     86  C1B NTO d 869      -6.453  19.909 -20.898  0.00  0.00     0.083 C 
ATOM     87  O4C NTO d 869     -22.041  16.453 -13.622  0.00  0.00    -0.572 OA
ATOM     88  O4E NTO d 869     -23.237  18.141 -12.318  0.00  0.00    -0.572 OA
ATOM     89  O36 NTO d 869     -10.986  18.261 -15.822  0.00  0.00    -0.572 OA
ATOM     90  O2A NTO d 869     -12.627  16.978 -18.989  0.00  0.00    -0.388 OA
ATOM     91  C30 NTO d 869     -14.807  19.978 -17.450  0.00  0.00     0.096 C 
ATOM     92  H   NTO d 869     -15.758  22.161 -16.052  0.00  0.00     0.076 H 
ATOM     93  H   NTO d 869     -25.669  16.422 -20.519  0.00  0.00     0.131 H 
ATOM     94  H   NTO d 869     -21.966  19.282 -16.657  0.00  0.00     0.133 H 
ATOM     95  H   NTO d 869      -8.462  17.546 -19.934  0.00  0.00     0.140 HD
ATOM     96  H   NTO d 869     -24.226  15.871 -23.478  0.00  0.00     0.231 HD
ATOM     97  H   NTO d 869     -17.628  20.859 -14.940  0.00  0.00     0.131 H 
ATOM     98  H   NTO d 869     -12.900  18.288 -20.549  0.00  0.00     0.094 H 
ATOM     99  H   NTO d 869     -11.105  19.847 -21.409  0.00  0.00     0.092 H 
ATOM    100  H   NTO d 869      -6.826  18.071 -21.928  0.00  0.00     0.076 H 
ATOM    101  H   NTO d 869     -18.846  25.114 -15.096  0.00  0.00     0.231 HD
ATOM    102  H   NTO d 869     -16.175  18.424 -16.998  0.00  0.00     0.090 H 
ATOM    103  H   NTO d 869     -19.872  20.216 -15.297  0.00  0.00     0.091 H 
ATOM    104  H   NTO d 869     -24.972  16.847 -16.991  0.00  0.00     0.090 H 
ATOM    105  H   NTO d 869     -23.307  16.580 -20.490  0.00  0.00     0.076 H 
ATOM    106  H   NTO d 869     -23.328  15.169 -17.840  0.00  0.00     0.089 H 
ATOM    107  H   NTO d 869     -10.652  20.633 -18.504  0.00  0.00     0.104 H 
ATOM    108  H   NTO d 869     -10.327  18.263 -18.973  0.00  0.00     0.091 H 
ATOM    109  H   NTO d 869     -18.863  18.296 -13.439  0.00  0.00     0.210 HD
ATOM    110  H   NTO d 869      -6.459  16.525 -17.876  0.00  0.00     0.231 HD
ATOM    111  H   NTO d 869     -27.859  14.577 -18.756  0.00  0.00     0.066 H 
ATOM    112  H   NTO d 869     -27.398  15.210 -20.317  0.00  0.00     0.066 H 
ATOM    113  H   NTO d 869     -27.699  16.302 -18.987  0.00  0.00     0.066 H 
ATOM    114  H   NTO d 869     -17.985  23.340 -13.685  0.00  0.00     0.231 HD
ATOM    115  H   NTO d 869     -22.042  14.776 -23.340  0.00  0.00     0.231 HD
ATOM    116  H   NTO d 869     -16.615  20.533 -18.442  0.00  0.00     0.092 H 
ATOM    117  H   NTO d 869      -9.340  18.323 -21.891  0.00  0.00     0.131 H 
ATOM    118  H   NTO d 869     -12.410  19.281 -17.756  0.00  0.00     0.133 H 
ATOM    119  H   NTO d 869     -24.558  14.034 -20.136  0.00  0.00     0.140 HD
ATOM    120  H   NTO d 869     -13.899  17.514 -16.808  0.00  0.00     0.080 H 
ATOM    121  H   NTO d 869     -14.754  17.355 -15.275  0.00  0.00     0.080 H 
ATOM    122  H   NTO d 869      -5.813  20.292 -22.896  0.00  0.00     0.091 H 
ATOM    123  H   NTO d 869     -20.589  17.326 -14.835  0.00  0.00     0.097 H 
ATOM    124  H   NTO d 869     -24.152  19.079 -16.174  0.00  0.00     0.080 H 
ATOM    125  H   NTO d 869     -25.761  19.184 -16.864  0.00  0.00     0.080 H 
ATOM    126  H   NTO d 869     -20.132  23.047 -14.814  0.00  0.00     0.231 HD
ATOM    127  H   NTO d 869      -6.280  22.476 -21.099  0.00  0.00     0.210 HD
ATOM    128  H   NTO d 869     -24.091  13.450 -23.591  0.00  0.00     0.231 HD
ATOM    129  H   NTO d 869     -21.240  16.386 -19.371  0.00  0.00     0.210 HD
ATOM    130  H   NTO d 869     -19.452  16.789 -16.506  0.00  0.00     0.104 H 
ATOM    131  H   NTO d 869      -5.185  18.933 -19.736  0.00  0.00     0.210 HD
ATOM    132  H   NTO d 869      -7.144  22.752 -23.876  0.00  0.00     0.080 H 
ATOM    133  H   NTO d 869      -7.062  21.197 -24.692  0.00  0.00     0.080 H 
ATOM    134  H   NTO d 869     -18.243  22.109 -17.565  0.00  0.00     0.140 HD
ATOM    135  H   NTO d 869     -17.823  18.119 -15.443  0.00  0.00     0.092 H 
ATOM    136  H   NTO d 869      -4.891  17.825 -19.242  0.00  0.00     0.231 HD
ATOM    137  H   NTO d 869     -10.964  17.478 -21.642  0.00  0.00     0.210 HD
ATOM    138  H   NTO d 869     -22.682  18.069 -18.479  0.00  0.00     0.091 H 
ATOM    139  H   NTO d 869      -7.601  15.416 -21.010  0.00  0.00     0.231 HD
ATOM    140  H   NTO d 869      -8.301  21.692 -21.972  0.00  0.00     0.090 H 
ATOM    141  H   NTO d 869      -6.894  20.461 -20.095  0.00  0.00     0.089 H 
ATOM    142  H   NTO d 869     -12.151  16.938 -18.145  0.00  0.00     0.210 HD
ATOM    143  H   NTO d 869     -14.000  20.502 -16.982  0.00  0.00     0.091 H 
ENDROOT
TORSDOF 46
ENDMDL
MODEL 68
REMARK VINA RESULT:      -5.1      4.111     14.071
REMARK  0 active torsions:
REMARK  status: ('A' for Active; 'I' for Inactive)
REMARK       I    between atoms: O4A_2  and  C49_47 
REMARK       I    between atoms: O4A_2  and  S4B_15 
REMARK       I    between atoms: C3F_4  and  N3G_69 
REMARK       I    between atoms: S17_5  and  O16_54 
REMARK       I    between atoms: C5L_6  and  O5M_26 
REMARK       I    between atoms: C4F_7  and  O4G_60 
REMARK       I    between atoms: N1F_9  and  C1E_19 
REMARK       I    between atoms: N1F_9  and  S1G_71 
REMARK       I    between atoms: O5J_11  and  S5H_38 
REMARK       I    between atoms: C3L_12  and  O3M_62 
REMARK       I    between atoms: C29_13  and  O2A_90 
REMARK       I    between atoms: S3B_14  and  O3A_85 
REMARK       I    between atoms: C20_18  and  O1L_72 
REMARK       I    between atoms: O3J_20  and  S3H_80 
REMARK       I    between atoms: C31_23  and  C33_44 
REMARK       I    between atoms: C46_25  and  O47_33 
REMARK       I    between atoms: O5M_26  and  C5N_35 
REMARK       I    between atoms: C51_28  and  C53_48 
REMARK       I    between atoms: C5F_29  and  N5G_43 
REMARK       I    between atoms: C59_30  and  O5A_59 
REMARK       I    between atoms: C21_31  and  C23_64 
REMARK       I    between atoms: C26_32  and  O27_76 
REMARK       I    between atoms: O1J_34  and  S1G_71 
REMARK       I    between atoms: O3K_36  and  S3H_80 
REMARK       I    between atoms: O5I_37  and  S5H_38 
REMARK       I    between atoms: S5H_38  and  O5K_53 
REMARK       I    between atoms: S5H_38  and  N5G_43 
REMARK       I    between atoms: C39_39  and  O3A_85 
REMARK       I    between atoms: C1K_40  and  O1L_72 
REMARK       I    between atoms: C2C_41  and  O2D_45 
REMARK       I    between atoms: C33_44  and  O34_74 
REMARK       I    between atoms: O2D_45  and  C30_91 
REMARK       I    between atoms: C12_46  and  O10_51 
REMARK       I    between atoms: C53_48  and  O54_57 
REMARK       I    between atoms: O3I_50  and  S3H_80 
REMARK       I    between atoms: O16_54  and  C15_68 
REMARK       I    between atoms: C43_56  and  C41_65 
REMARK       I    between atoms: O54_57  and  S55_58 
REMARK       I    between atoms: O4G_60  and  C50_77 
REMARK       I    between atoms: O3M_62  and  C40_70 
REMARK       I    between atoms: O1C_67  and  C1B_86 
REMARK       I    between atoms: C15_68  and  C13_83 
REMARK       I    between atoms: N3G_69  and  S3H_80 
REMARK       I    between atoms: S1G_71  and  O1H_75 
REMARK       I    between atoms: S1G_71  and  O1I_82 
REMARK       I    between atoms: O34_74  and  S35_81 
ROOT
ATOM      1  O42 NTO d 869      -8.674  20.138 -23.276  0.00  0.00    -0.340 OA
ATOM      2  O4A NTO d 869      -7.523  23.100 -25.123  0.00  0.00    -0.244 OA
ATOM      3  O32 NTO d 869     -13.135  22.531 -23.123  0.00  0.00    -0.349 OA
ATOM      4  C3F NTO d 869     -12.453  22.821 -20.832  0.00  0.00     0.083 C 
ATOM      5  S17 NTO d 869     -19.068  15.918 -13.576  0.00  0.00     0.251 S 
ATOM      6  C5L NTO d 869      -3.885  17.392 -24.007  0.00  0.00     0.149 C 
ATOM      7  C4F NTO d 869      -7.732  20.985 -23.951  0.00  0.00     0.161 C 
ATOM      8  O14 NTO d 869     -20.002  16.621 -17.472  0.00  0.00    -0.349 OA
ATOM      9  N1F NTO d 869     -21.349  17.673 -20.739  0.00  0.00    -0.210 NA
ATOM     10  O37 NTO d 869     -17.005  21.093 -25.520  0.00  0.00    -0.572 OA
ATOM     11  O5J NTO d 869      -4.565  14.782 -22.446  0.00  0.00    -0.296 OA
ATOM     12  C3L NTO d 869     -11.990  22.761 -22.287  0.00  0.00     0.150 C 
ATOM     13  C29 NTO d 869     -16.518  18.257 -21.188  0.00  0.00     0.110 C 
ATOM     14  S3B NTO d 869     -12.677  20.636 -18.285  0.00  0.00     0.252 S 
ATOM     15  S4B NTO d 869      -7.534  23.344 -26.533  0.00  0.00     0.252 S 
ATOM     16  O24 NTO d 869     -16.908  20.331 -16.937  0.00  0.00    -0.646 OA
ATOM     17  O45 NTO d 869     -11.223  19.265 -22.096  0.00  0.00    -0.646 OA
ATOM     18  C20 NTO d 869     -18.112  18.516 -19.295  0.00  0.00     0.103 C 
ATOM     19  C1E NTO d 869     -21.400  17.184 -19.356  0.00  0.00     0.081 C 
ATOM     20  O3J NTO d 869     -10.429  25.398 -19.087  0.00  0.00    -0.296 OA
ATOM     21  O38 NTO d 869     -17.667  23.260 -24.576  0.00  0.00    -0.572 OA
ATOM     22  O18 NTO d 869     -19.101  14.454 -13.896  0.00  0.00    -0.572 OA
ATOM     23  C31 NTO d 869     -13.702  21.235 -22.872  0.00  0.00     0.091 C 
ATOM     24  O52 NTO d 869      -3.773  18.711 -23.448  0.00  0.00    -0.349 OA
ATOM     25  C46 NTO d 869      -9.629  22.624 -24.015  0.00  0.00     0.094 C 
ATOM     26  O5M NTO d 869      -3.283  17.293 -25.304  0.00  0.00    -0.364 OA
ATOM     27  O3D NTO d 869     -13.205  20.665 -16.881  0.00  0.00    -0.572 OA
ATOM     28  C51 NTO d 869      -4.584  19.682 -24.131  0.00  0.00     0.091 C 
ATOM     29  C5F NTO d 869      -5.338  16.913 -24.030  0.00  0.00     0.081 C 
ATOM     30  C59 NTO d 869      -6.232  17.933 -24.735  0.00  0.00     0.083 C 
ATOM     31  C21 NTO d 869     -17.629  19.954 -19.179  0.00  0.00     0.152 C 
ATOM     32  C26 NTO d 869     -17.979  18.103 -20.760  0.00  0.00     0.092 C 
ATOM     33  O47 NTO d 869     -10.260  23.641 -24.799  0.00  0.00    -0.390 OA
ATOM     34  O1J NTO d 869     -22.466  17.441 -23.020  0.00  0.00    -0.296 OA
ATOM     35  C5N NTO d 869      -1.876  17.083 -25.147  0.00  0.00     0.007 C 
ATOM     36  O3K NTO d 869     -11.521  25.363 -21.265  0.00  0.00    -0.296 OA
ATOM     37  O5I NTO d 869      -6.816  14.143 -23.170  0.00  0.00    -0.296 OA
ATOM     38  S5H NTO d 869      -5.411  14.403 -23.625  0.00  0.00     0.156 S 
ATOM     39  C39 NTO d 869     -13.027  21.450 -20.471  0.00  0.00     0.108 C 
ATOM     40  C1K NTO d 869     -19.969  17.116 -18.820  0.00  0.00     0.150 C 
ATOM     41  C2C NTO d 869     -16.025  19.681 -20.921  0.00  0.00     0.160 C 
ATOM     42  O19 NTO d 869     -20.119  16.236 -12.554  0.00  0.00    -0.572 OA
ATOM     43  N5G NTO d 869      -5.421  15.615 -24.717  0.00  0.00    -0.210 NA
ATOM     44  C33 NTO d 869     -14.897  21.013 -23.804  0.00  0.00     0.067 C 
ATOM     45  O2D NTO d 869     -14.621  19.748 -21.224  0.00  0.00    -0.348 OA
ATOM     46  C12 NTO d 869     -22.120  17.754 -17.028  0.00  0.00     0.089 C 
ATOM     47  C49 NTO d 869      -8.439  22.055 -24.789  0.00  0.00     0.134 C 
ATOM     48  C53 NTO d 869      -4.393  21.018 -23.411  0.00  0.00     0.067 C 
ATOM     49  O4D NTO d 869      -8.772  24.107 -26.902  0.00  0.00    -0.572 OA
ATOM     50  O3I NTO d 869      -9.303  24.352 -20.995  0.00  0.00    -0.296 OA
ATOM     51  O10 NTO d 869     -22.693  18.793 -16.230  0.00  0.00    -0.390 OA
ATOM     52  O1A NTO d 869     -17.716  16.277 -13.041  0.00  0.00    -0.572 OA
ATOM     53  O5K NTO d 869      -4.844  13.163 -24.250  0.00  0.00    -0.296 OA
ATOM     54  O16 NTO d 869     -19.314  16.671 -14.769  0.00  0.00    -0.254 OA
ATOM     55  O56 NTO d 869      -5.891  22.569 -20.777  0.00  0.00    -0.572 OA
ATOM     56  C43 NTO d 869     -10.859  19.093 -23.281  0.00  0.00     0.206 C 
ATOM     57  O54 NTO d 869      -4.714  20.888 -22.026  0.00  0.00    -0.254 OA
ATOM     58  S55 NTO d 869      -4.552  21.992 -21.128  0.00  0.00     0.251 S 
ATOM     59  O5A NTO d 869      -7.603  17.542 -24.602  0.00  0.00    -0.391 OA
ATOM     60  O4G NTO d 869      -6.850  20.248 -24.810  0.00  0.00    -0.348 OA
ATOM     61  O3C NTO d 869     -11.272  21.162 -18.288  0.00  0.00    -0.572 OA
ATOM     62  O3M NTO d 869     -11.087  21.652 -22.389  0.00  0.00    -0.348 OA
ATOM     63  O44 NTO d 869     -11.197  18.102 -23.980  0.00  0.00    -0.646 OA
ATOM     64  C23 NTO d 869     -17.862  20.414 -17.748  0.00  0.00     0.206 C 
ATOM     65  C41 NTO d 869      -9.963  20.147 -23.914  0.00  0.00     0.152 C 
ATOM     66  O22 NTO d 869     -16.243  20.057 -19.551  0.00  0.00    -0.340 OA
ATOM     67  O1C NTO d 869     -23.568  18.165 -18.922  0.00  0.00    -0.391 OA
ATOM     68  C15 NTO d 869     -20.651  16.951 -15.189  0.00  0.00     0.067 C 
ATOM     69  N3G NTO d 869     -11.314  23.158 -19.958  0.00  0.00    -0.210 NA
ATOM     70  C40 NTO d 869     -10.629  21.504 -23.738  0.00  0.00     0.103 C 
ATOM     71  S1G NTO d 869     -22.491  16.911 -21.617  0.00  0.00     0.156 S 
ATOM     72  O1L NTO d 869     -19.472  18.462 -18.843  0.00  0.00    -0.348 OA
ATOM     73  O57 NTO d 869      -3.716  23.047 -21.788  0.00  0.00    -0.572 OA
ATOM     74  O34 NTO d 869     -15.941  21.959 -23.555  0.00  0.00    -0.254 OA
ATOM     75  O1H NTO d 869     -23.837  17.156 -21.001  0.00  0.00    -0.296 OA
ATOM     76  O27 NTO d 869     -18.374  16.737 -20.920  0.00  0.00    -0.390 OA
ATOM     77  C50 NTO d 869      -6.056  19.302 -24.079  0.00  0.00     0.095 C 
ATOM     78  O3E NTO d 869     -12.674  19.223 -18.789  0.00  0.00    -0.572 OA
ATOM     79  O25 NTO d 869     -19.004  20.835 -17.448  0.00  0.00    -0.646 OA
ATOM     80  S3H NTO d 869     -10.630  24.593 -20.337  0.00  0.00     0.156 S 
ATOM     81  S35 NTO d 869     -17.190  21.876 -24.253  0.00  0.00     0.251 S 
ATOM     82  O1I NTO d 869     -22.202  15.439 -21.633  0.00  0.00    -0.296 OA
ATOM     83  C13 NTO d 869     -20.666  17.549 -16.599  0.00  0.00     0.090 C 
ATOM     84  O58 NTO d 869      -3.868  21.513 -19.883  0.00  0.00    -0.572 OA
ATOM     85  O3A NTO d 869     -13.503  21.455 -19.120  0.00  0.00    -0.247 OA
ATOM     86  C1B NTO d 869     -22.202  18.165 -18.501  0.00  0.00     0.083 C 
ATOM     87  O4C NTO d 869      -7.505  22.038 -27.271  0.00  0.00    -0.572 OA
ATOM     88  O4E NTO d 869      -6.317  24.141 -26.893  0.00  0.00    -0.572 OA
ATOM     89  O36 NTO d 869     -18.210  21.191 -23.393  0.00  0.00    -0.572 OA
ATOM     90  O2A NTO d 869     -16.399  17.962 -22.580  0.00  0.00    -0.388 OA
ATOM     91  C30 NTO d 869     -14.169  21.095 -21.429  0.00  0.00     0.096 C 
ATOM     92  H   NTO d 869     -13.201  23.576 -20.700  0.00  0.00     0.076 H 
ATOM     93  H   NTO d 869      -3.336  16.740 -23.361  0.00  0.00     0.131 H 
ATOM     94  H   NTO d 869      -7.156  21.450 -23.177  0.00  0.00     0.133 H 
ATOM     95  H   NTO d 869     -20.429  17.481 -21.136  0.00  0.00     0.140 HD
ATOM     96  H   NTO d 869      -4.565  14.056 -21.802  0.00  0.00     0.231 HD
ATOM     97  H   NTO d 869     -11.512  23.670 -22.590  0.00  0.00     0.131 H 
ATOM     98  H   NTO d 869     -15.918  17.576 -20.620  0.00  0.00     0.094 H 
ATOM     99  H   NTO d 869     -17.536  17.842 -18.695  0.00  0.00     0.092 H 
ATOM    100  H   NTO d 869     -21.861  16.219 -19.323  0.00  0.00     0.076 H 
ATOM    101  H   NTO d 869     -10.022  26.249 -19.313  0.00  0.00     0.231 HD
ATOM    102  H   NTO d 869     -12.942  20.505 -23.052  0.00  0.00     0.090 H 
ATOM    103  H   NTO d 869      -9.291  23.044 -23.091  0.00  0.00     0.091 H 
ATOM    104  H   NTO d 869      -4.291  19.735 -25.159  0.00  0.00     0.090 H 
ATOM    105  H   NTO d 869      -5.678  16.804 -23.021  0.00  0.00     0.076 H 
ATOM    106  H   NTO d 869      -5.962  17.981 -25.769  0.00  0.00     0.089 H 
ATOM    107  H   NTO d 869     -18.175  20.585 -19.849  0.00  0.00     0.104 H 
ATOM    108  H   NTO d 869     -18.607  18.724 -21.363  0.00  0.00     0.091 H 
ATOM    109  H   NTO d 869     -10.567  23.260 -25.637  0.00  0.00     0.210 HD
ATOM    110  H   NTO d 869     -22.654  18.393 -23.009  0.00  0.00     0.231 HD
ATOM    111  H   NTO d 869      -1.417  17.008 -26.110  0.00  0.00     0.066 H 
ATOM    112  H   NTO d 869      -1.709  16.178 -24.601  0.00  0.00     0.066 H 
ATOM    113  H   NTO d 869      -1.450  17.906 -24.612  0.00  0.00     0.066 H 
ATOM    114  H   NTO d 869     -11.105  26.212 -21.482  0.00  0.00     0.231 HD
ATOM    115  H   NTO d 869      -6.817  13.423 -22.520  0.00  0.00     0.231 HD
ATOM    116  H   NTO d 869     -12.255  20.715 -20.561  0.00  0.00     0.092 H 
ATOM    117  H   NTO d 869     -19.347  16.468 -19.402  0.00  0.00     0.131 H 
ATOM    118  H   NTO d 869     -16.572  20.361 -21.539  0.00  0.00     0.133 H 
ATOM    119  H   NTO d 869      -4.622  15.513 -25.342  0.00  0.00     0.140 HD
ATOM    120  H   NTO d 869     -15.279  20.026 -23.650  0.00  0.00     0.080 H 
ATOM    121  H   NTO d 869     -14.563  21.140 -24.813  0.00  0.00     0.080 H 
ATOM    122  H   NTO d 869     -22.651  16.835 -16.896  0.00  0.00     0.091 H 
ATOM    123  H   NTO d 869      -8.797  21.607 -25.693  0.00  0.00     0.097 H 
ATOM    124  H   NTO d 869      -5.033  21.752 -23.854  0.00  0.00     0.080 H 
ATOM    125  H   NTO d 869      -3.370  21.320 -23.504  0.00  0.00     0.080 H 
ATOM    126  H   NTO d 869      -8.895  25.203 -21.221  0.00  0.00     0.231 HD
ATOM    127  H   NTO d 869     -22.197  19.615 -16.366  0.00  0.00     0.210 HD
ATOM    128  H   NTO d 869      -4.841  12.445 -23.597  0.00  0.00     0.231 HD
ATOM    129  H   NTO d 869      -7.838  17.503 -23.662  0.00  0.00     0.210 HD
ATOM    130  H   NTO d 869      -9.825  19.941 -24.955  0.00  0.00     0.104 H 
ATOM    131  H   NTO d 869     -23.618  18.425 -19.855  0.00  0.00     0.210 HD
ATOM    132  H   NTO d 869     -21.093  17.649 -14.509  0.00  0.00     0.080 H 
ATOM    133  H   NTO d 869     -21.206  16.036 -15.199  0.00  0.00     0.080 H 
ATOM    134  H   NTO d 869     -10.608  22.427 -20.046  0.00  0.00     0.140 HD
ATOM    135  H   NTO d 869     -11.448  21.563 -24.423  0.00  0.00     0.092 H 
ATOM    136  H   NTO d 869     -24.020  18.108 -20.993  0.00  0.00     0.231 HD
ATOM    137  H   NTO d 869     -17.806  16.170 -20.374  0.00  0.00     0.210 HD
ATOM    138  H   NTO d 869      -6.370  19.288 -23.056  0.00  0.00     0.091 H 
ATOM    139  H   NTO d 869     -21.331  15.285 -22.032  0.00  0.00     0.231 HD
ATOM    140  H   NTO d 869     -20.165  18.493 -16.633  0.00  0.00     0.090 H 
ATOM    141  H   NTO d 869     -21.793  19.147 -18.617  0.00  0.00     0.089 H 
ATOM    142  H   NTO d 869     -16.944  18.581 -23.090  0.00  0.00     0.210 HD
ATOM    143  H   NTO d 869     -14.977  21.769 -21.233  0.00  0.00     0.091 H 
ENDROOT
TORSDOF 46
ENDMDL
MODEL 69
REMARK VINA RESULT:      -5.1      3.647     14.346
REMARK  0 active torsions:
REMARK  status: ('A' for Active; 'I' for Inactive)
REMARK       I    between atoms: O4A_2  and  C49_47 
REMARK       I    between atoms: O4A_2  and  S4B_15 
REMARK       I    between atoms: C3F_4  and  N3G_69 
REMARK       I    between atoms: S17_5  and  O16_54 
REMARK       I    between atoms: C5L_6  and  O5M_26 
REMARK       I    between atoms: C4F_7  and  O4G_60 
REMARK       I    between atoms: N1F_9  and  C1E_19 
REMARK       I    between atoms: N1F_9  and  S1G_71 
REMARK       I    between atoms: O5J_11  and  S5H_38 
REMARK       I    between atoms: C3L_12  and  O3M_62 
REMARK       I    between atoms: C29_13  and  O2A_90 
REMARK       I    between atoms: S3B_14  and  O3A_85 
REMARK       I    between atoms: C20_18  and  O1L_72 
REMARK       I    between atoms: O3J_20  and  S3H_80 
REMARK       I    between atoms: C31_23  and  C33_44 
REMARK       I    between atoms: C46_25  and  O47_33 
REMARK       I    between atoms: O5M_26  and  C5N_35 
REMARK       I    between atoms: C51_28  and  C53_48 
REMARK       I    between atoms: C5F_29  and  N5G_43 
REMARK       I    between atoms: C59_30  and  O5A_59 
REMARK       I    between atoms: C21_31  and  C23_64 
REMARK       I    between atoms: C26_32  and  O27_76 
REMARK       I    between atoms: O1J_34  and  S1G_71 
REMARK       I    between atoms: O3K_36  and  S3H_80 
REMARK       I    between atoms: O5I_37  and  S5H_38 
REMARK       I    between atoms: S5H_38  and  O5K_53 
REMARK       I    between atoms: S5H_38  and  N5G_43 
REMARK       I    between atoms: C39_39  and  O3A_85 
REMARK       I    between atoms: C1K_40  and  O1L_72 
REMARK       I    between atoms: C2C_41  and  O2D_45 
REMARK       I    between atoms: C33_44  and  O34_74 
REMARK       I    between atoms: O2D_45  and  C30_91 
REMARK       I    between atoms: C12_46  and  O10_51 
REMARK       I    between atoms: C53_48  and  O54_57 
REMARK       I    between atoms: O3I_50  and  S3H_80 
REMARK       I    between atoms: O16_54  and  C15_68 
REMARK       I    between atoms: C43_56  and  C41_65 
REMARK       I    between atoms: O54_57  and  S55_58 
REMARK       I    between atoms: O4G_60  and  C50_77 
REMARK       I    between atoms: O3M_62  and  C40_70 
REMARK       I    between atoms: O1C_67  and  C1B_86 
REMARK       I    between atoms: C15_68  and  C13_83 
REMARK       I    between atoms: N3G_69  and  S3H_80 
REMARK       I    between atoms: S1G_71  and  O1H_75 
REMARK       I    between atoms: S1G_71  and  O1I_82 
REMARK       I    between atoms: O34_74  and  S35_81 
ROOT
ATOM      1  O42 NTO d 869     -12.202  20.499 -16.576  0.00  0.00    -0.340 OA
ATOM      2  O4A NTO d 869     -10.786  23.382 -14.789  0.00  0.00    -0.244 OA
ATOM      3  O32 NTO d 869     -16.682  22.523 -15.358  0.00  0.00    -0.349 OA
ATOM      4  C3F NTO d 869     -16.659  20.665 -13.826  0.00  0.00     0.083 C 
ATOM      5  S17 NTO d 869     -24.531  12.284 -17.274  0.00  0.00     0.251 S 
ATOM      6  C5L NTO d 869      -7.230  18.696 -18.317  0.00  0.00     0.149 C 
ATOM      7  C4F NTO d 869     -11.169  21.325 -16.018  0.00  0.00     0.161 C 
ATOM      8  O14 NTO d 869     -24.427  16.043 -18.827  0.00  0.00    -0.349 OA
ATOM      9  N1F NTO d 869     -24.912  19.552 -19.852  0.00  0.00    -0.210 NA
ATOM     10  O37 NTO d 869     -19.668  24.470 -18.532  0.00  0.00    -0.572 OA
ATOM     11  O5J NTO d 869      -8.138  16.145 -19.860  0.00  0.00    -0.296 OA
ATOM     12  C3L NTO d 869     -15.820  21.738 -14.519  0.00  0.00     0.150 C 
ATOM     13  C29 NTO d 869     -20.184  19.296 -18.641  0.00  0.00     0.110 C 
ATOM     14  S3B NTO d 869     -17.420  17.444 -14.425  0.00  0.00     0.252 S 
ATOM     15  S4B NTO d 869     -10.434  24.673 -15.295  0.00  0.00     0.252 S 
ATOM     16  O24 NTO d 869     -21.830  16.995 -14.831  0.00  0.00    -0.646 OA
ATOM     17  O45 NTO d 869     -14.914  19.556 -17.214  0.00  0.00    -0.646 OA
ATOM     18  C20 NTO d 869     -22.240  18.190 -17.782  0.00  0.00     0.103 C 
ATOM     19  C1E NTO d 869     -25.301  18.163 -19.577  0.00  0.00     0.081 C 
ATOM     20  O3J NTO d 869     -15.344  20.222 -10.382  0.00  0.00    -0.296 OA
ATOM     21  O38 NTO d 869     -20.694  24.986 -16.363  0.00  0.00    -0.572 OA
ATOM     22  O18 NTO d 869     -24.384  11.768 -18.674  0.00  0.00    -0.572 OA
ATOM     23  C31 NTO d 869     -17.213  21.731 -16.432  0.00  0.00     0.091 C 
ATOM     24  O52 NTO d 869      -7.355  18.924 -16.903  0.00  0.00    -0.349 OA
ATOM     25  C46 NTO d 869     -13.078  22.625 -15.042  0.00  0.00     0.094 C 
ATOM     26  O5M NTO d 869      -6.297  19.591 -18.935  0.00  0.00    -0.364 OA
ATOM     27  O3D NTO d 869     -18.306  16.410 -13.797  0.00  0.00    -0.572 OA
ATOM     28  C51 NTO d 869      -8.012  20.162 -16.590  0.00  0.00     0.091 C 
ATOM     29  C5F NTO d 869      -8.590  18.739 -19.016  0.00  0.00     0.081 C 
ATOM     30  C59 NTO d 869      -9.325  20.039 -18.687  0.00  0.00     0.083 C 
ATOM     31  C21 NTO d 869     -21.898  18.773 -16.419  0.00  0.00     0.152 C 
ATOM     32  C26 NTO d 869     -21.693  19.145 -18.841  0.00  0.00     0.092 C 
ATOM     33  O47 NTO d 869     -13.539  23.937 -14.705  0.00  0.00    -0.390 OA
ATOM     34  O1J NTO d 869     -25.359  21.517 -21.414  0.00  0.00    -0.296 OA
ATOM     35  C5N NTO d 869      -4.973  19.076 -18.758  0.00  0.00     0.007 C 
ATOM     36  O3K NTO d 869     -15.808  22.204 -11.723  0.00  0.00    -0.296 OA
ATOM     37  O5I NTO d 869     -10.067  16.833 -21.202  0.00  0.00    -0.296 OA
ATOM     38  S5H NTO d 869      -8.611  17.074 -20.938  0.00  0.00     0.156 S 
ATOM     39  C39 NTO d 869     -17.222  19.744 -14.910  0.00  0.00     0.108 C 
ATOM     40  C1K NTO d 869     -24.065  17.409 -19.083  0.00  0.00     0.150 C 
ATOM     41  C2C NTO d 869     -19.871  19.745 -17.211  0.00  0.00     0.160 C 
ATOM     42  O19 NTO d 869     -25.835  11.820 -16.697  0.00  0.00    -0.572 OA
ATOM     43  N5G NTO d 869      -8.404  18.623 -20.470  0.00  0.00    -0.210 NA
ATOM     44  C33 NTO d 869     -18.097  22.609 -17.323  0.00  0.00     0.067 C 
ATOM     45  O2D NTO d 869     -18.445  19.758 -17.034  0.00  0.00    -0.348 OA
ATOM     46  C12 NTO d 869     -26.654  16.697 -18.065  0.00  0.00     0.089 C 
ATOM     47  C49 NTO d 869     -11.691  22.724 -15.679  0.00  0.00     0.134 C 
ATOM     48  C53 NTO d 869      -8.106  20.252 -15.065  0.00  0.00     0.067 C 
ATOM     49  O4D NTO d 869     -11.573  25.625 -15.081  0.00  0.00    -0.572 OA
ATOM     50  O3I NTO d 869     -13.684  21.009 -12.004  0.00  0.00    -0.296 OA
ATOM     51  O10 NTO d 869     -27.484  16.711 -16.901  0.00  0.00    -0.390 OA
ATOM     52  O1A NTO d 869     -23.396  11.776 -16.437  0.00  0.00    -0.572 OA
ATOM     53  O5K NTO d 869      -7.820  16.812 -22.185  0.00  0.00    -0.296 OA
ATOM     54  O16 NTO d 869     -24.494  13.716 -17.289  0.00  0.00    -0.254 OA
ATOM     55  O56 NTO d 869     -10.350  19.211 -12.726  0.00  0.00    -0.572 OA
ATOM     56  C43 NTO d 869     -14.235  20.366 -17.885  0.00  0.00     0.206 C 
ATOM     57  O54 NTO d 869      -8.778  19.106 -14.540  0.00  0.00    -0.254 OA
ATOM     58  S55 NTO d 869      -8.933  18.930 -13.127  0.00  0.00     0.251 S 
ATOM     59  O5A NTO d 869     -10.653  19.986 -19.218  0.00  0.00    -0.391 OA
ATOM     60  O4G NTO d 869     -10.044  21.463 -16.898  0.00  0.00    -0.348 OA
ATOM     61  O3C NTO d 869     -16.102  17.456 -13.709  0.00  0.00    -0.572 OA
ATOM     62  O3M NTO d 869     -14.855  21.051 -15.327  0.00  0.00    -0.348 OA
ATOM     63  O44 NTO d 869     -14.310  20.473 -19.137  0.00  0.00    -0.646 OA
ATOM     64  C23 NTO d 869     -22.535  17.889 -15.356  0.00  0.00     0.206 C 
ATOM     65  C41 NTO d 869     -13.271  21.277 -17.142  0.00  0.00     0.152 C 
ATOM     66  O22 NTO d 869     -20.473  18.865 -16.248  0.00  0.00    -0.340 OA
ATOM     67  O1C NTO d 869     -27.563  18.754 -18.956  0.00  0.00    -0.391 OA
ATOM     68  C15 NTO d 869     -25.684  14.471 -17.527  0.00  0.00     0.067 C 
ATOM     69  N3G NTO d 869     -15.820  19.908 -12.879  0.00  0.00    -0.210 NA
ATOM     70  C40 NTO d 869     -14.043  21.991 -16.041  0.00  0.00     0.103 C 
ATOM     71  S1G NTO d 869     -25.727  20.085 -21.158  0.00  0.00     0.156 S 
ATOM     72  O1L NTO d 869     -23.666  18.054 -17.866  0.00  0.00    -0.348 OA
ATOM     73  O57 NTO d 869      -8.018  19.876 -12.407  0.00  0.00    -0.572 OA
ATOM     74  O34 NTO d 869     -19.227  23.115 -16.605  0.00  0.00    -0.254 OA
ATOM     75  O1H NTO d 869     -27.200  19.971 -20.906  0.00  0.00    -0.296 OA
ATOM     76  O27 NTO d 869     -21.944  18.620 -20.148  0.00  0.00    -0.390 OA
ATOM     77  C50 NTO d 869      -9.418  20.201 -17.171  0.00  0.00     0.095 C 
ATOM     78  O3E NTO d 869     -17.193  17.099 -15.868  0.00  0.00    -0.572 OA
ATOM     79  O25 NTO d 869     -23.739  18.092 -15.074  0.00  0.00    -0.646 OA
ATOM     80  S3H NTO d 869     -15.151  20.855 -11.729  0.00  0.00     0.156 S 
ATOM     81  S35 NTO d 869     -20.236  23.886 -17.272  0.00  0.00     0.251 S 
ATOM     82  O1I NTO d 869     -25.351  19.252 -22.349  0.00  0.00    -0.296 OA
ATOM     83  C13 NTO d 869     -25.358  15.952 -17.737  0.00  0.00     0.090 C 
ATOM     84  O58 NTO d 869      -8.579  17.518 -12.769  0.00  0.00    -0.572 OA
ATOM     85  O3A NTO d 869     -18.042  18.729 -14.319  0.00  0.00    -0.247 OA
ATOM     86  C1B NTO d 869     -26.363  18.143 -18.477  0.00  0.00     0.083 C 
ATOM     87  O4C NTO d 869     -10.127  24.572 -16.760  0.00  0.00    -0.572 OA
ATOM     88  O4E NTO d 869      -9.218  25.160 -14.568  0.00  0.00    -0.572 OA
ATOM     89  O36 NTO d 869     -21.403  23.010 -17.614  0.00  0.00    -0.572 OA
ATOM     90  O2A NTO d 869     -19.678  20.258 -19.567  0.00  0.00    -0.388 OA
ATOM     91  C30 NTO d 869     -18.040  20.562 -15.915  0.00  0.00     0.096 C 
ATOM     92  H   NTO d 869     -17.461  21.107 -13.271  0.00  0.00     0.076 H 
ATOM     93  H   NTO d 869      -6.834  17.709 -18.432  0.00  0.00     0.131 H 
ATOM     94  H   NTO d 869     -10.852  20.827 -15.125  0.00  0.00     0.133 H 
ATOM     95  H   NTO d 869     -23.909  19.596 -20.033  0.00  0.00     0.140 HD
ATOM     96  H   NTO d 869      -8.265  15.227 -20.145  0.00  0.00     0.231 HD
ATOM     97  H   NTO d 869     -15.337  22.382 -13.814  0.00  0.00     0.131 H 
ATOM     98  H   NTO d 869     -19.717  18.348 -18.810  0.00  0.00     0.094 H 
ATOM     99  H   NTO d 869     -21.806  17.224 -17.934  0.00  0.00     0.092 H 
ATOM    100  H   NTO d 869     -25.693  17.707 -20.462  0.00  0.00     0.076 H 
ATOM    101  H   NTO d 869     -14.946  20.786  -9.700  0.00  0.00     0.231 HD
ATOM    102  H   NTO d 869     -16.388  21.340 -16.989  0.00  0.00     0.090 H 
ATOM    103  H   NTO d 869     -13.028  22.026 -14.158  0.00  0.00     0.091 H 
ATOM    104  H   NTO d 869      -7.458  20.978 -17.005  0.00  0.00     0.090 H 
ATOM    105  H   NTO d 869      -9.180  17.918 -18.666  0.00  0.00     0.076 H 
ATOM    106  H   NTO d 869      -8.790  20.861 -19.115  0.00  0.00     0.089 H 
ATOM    107  H   NTO d 869     -22.282  19.768 -16.332  0.00  0.00     0.104 H 
ATOM    108  H   NTO d 869     -22.175  20.096 -18.745  0.00  0.00     0.091 H 
ATOM    109  H   NTO d 869     -13.585  24.480 -15.508  0.00  0.00     0.210 HD
ATOM    110  H   NTO d 869     -25.602  22.055 -20.645  0.00  0.00     0.231 HD
ATOM    111  H   NTO d 869      -4.268  19.738 -19.217  0.00  0.00     0.066 H 
ATOM    112  H   NTO d 869      -4.902  18.110 -19.211  0.00  0.00     0.066 H 
ATOM    113  H   NTO d 869      -4.759  18.996 -17.712  0.00  0.00     0.066 H 
ATOM    114  H   NTO d 869     -15.403  22.757 -11.037  0.00  0.00     0.231 HD
ATOM    115  H   NTO d 869     -10.197  15.913 -21.481  0.00  0.00     0.231 HD
ATOM    116  H   NTO d 869     -16.409  19.273 -15.423  0.00  0.00     0.092 H 
ATOM    117  H   NTO d 869     -23.271  17.418 -19.800  0.00  0.00     0.131 H 
ATOM    118  H   NTO d 869     -20.274  20.724 -17.059  0.00  0.00     0.133 H 
ATOM    119  H   NTO d 869      -7.461  18.927 -20.715  0.00  0.00     0.140 HD
ATOM    120  H   NTO d 869     -18.444  22.027 -18.151  0.00  0.00     0.080 H 
ATOM    121  H   NTO d 869     -17.514  23.441 -17.659  0.00  0.00     0.080 H 
ATOM    122  H   NTO d 869     -27.142  16.198 -18.876  0.00  0.00     0.091 H 
ATOM    123  H   NTO d 869     -11.764  23.295 -16.581  0.00  0.00     0.097 H 
ATOM    124  H   NTO d 869      -8.649  21.133 -14.796  0.00  0.00     0.080 H 
ATOM    125  H   NTO d 869      -7.117  20.291 -14.658  0.00  0.00     0.080 H 
ATOM    126  H   NTO d 869     -13.285  21.572 -11.322  0.00  0.00     0.231 HD
ATOM    127  H   NTO d 869     -27.022  17.168 -16.180  0.00  0.00     0.210 HD
ATOM    128  H   NTO d 869      -7.947  15.890 -22.460  0.00  0.00     0.231 HD
ATOM    129  H   NTO d 869     -11.129  19.239 -18.823  0.00  0.00     0.210 HD
ATOM    130  H   NTO d 869     -12.846  21.995 -17.812  0.00  0.00     0.104 H 
ATOM    131  H   NTO d 869     -27.378  19.669 -19.217  0.00  0.00     0.210 HD
ATOM    132  H   NTO d 869     -26.336  14.372 -16.683  0.00  0.00     0.080 H 
ATOM    133  H   NTO d 869     -26.157  14.096 -18.410  0.00  0.00     0.080 H 
ATOM    134  H   NTO d 869     -15.072  19.450 -13.401  0.00  0.00     0.140 HD
ATOM    135  H   NTO d 869     -14.651  22.743 -16.496  0.00  0.00     0.092 H 
ATOM    136  H   NTO d 869     -27.439  20.512 -20.136  0.00  0.00     0.231 HD
ATOM    137  H   NTO d 869     -21.509  17.758 -20.239  0.00  0.00     0.210 HD
ATOM    138  H   NTO d 869      -9.993  19.415 -16.729  0.00  0.00     0.091 H 
ATOM    139  H   NTO d 869     -24.397  19.328 -22.508  0.00  0.00     0.231 HD
ATOM    140  H   NTO d 869     -24.926  16.390 -16.861  0.00  0.00     0.090 H 
ATOM    141  H   NTO d 869     -26.001  18.686 -17.629  0.00  0.00     0.089 H 
ATOM    142  H   NTO d 869     -20.104  21.115 -19.410  0.00  0.00     0.210 HD
ATOM    143  H   NTO d 869     -18.912  20.919 -15.407  0.00  0.00     0.091 H 
ENDROOT
TORSDOF 46
ENDMDL
MODEL 70
REMARK VINA RESULT:      -5.1      3.893     14.273
REMARK  0 active torsions:
REMARK  status: ('A' for Active; 'I' for Inactive)
REMARK       I    between atoms: O4A_2  and  C49_47 
REMARK       I    between atoms: O4A_2  and  S4B_15 
REMARK       I    between atoms: C3F_4  and  N3G_69 
REMARK       I    between atoms: S17_5  and  O16_54 
REMARK       I    between atoms: C5L_6  and  O5M_26 
REMARK       I    between atoms: C4F_7  and  O4G_60 
REMARK       I    between atoms: N1F_9  and  C1E_19 
REMARK       I    between atoms: N1F_9  and  S1G_71 
REMARK       I    between atoms: O5J_11  and  S5H_38 
REMARK       I    between atoms: C3L_12  and  O3M_62 
REMARK       I    between atoms: C29_13  and  O2A_90 
REMARK       I    between atoms: S3B_14  and  O3A_85 
REMARK       I    between atoms: C20_18  and  O1L_72 
REMARK       I    between atoms: O3J_20  and  S3H_80 
REMARK       I    between atoms: C31_23  and  C33_44 
REMARK       I    between atoms: C46_25  and  O47_33 
REMARK       I    between atoms: O5M_26  and  C5N_35 
REMARK       I    between atoms: C51_28  and  C53_48 
REMARK       I    between atoms: C5F_29  and  N5G_43 
REMARK       I    between atoms: C59_30  and  O5A_59 
REMARK       I    between atoms: C21_31  and  C23_64 
REMARK       I    between atoms: C26_32  and  O27_76 
REMARK       I    between atoms: O1J_34  and  S1G_71 
REMARK       I    between atoms: O3K_36  and  S3H_80 
REMARK       I    between atoms: O5I_37  and  S5H_38 
REMARK       I    between atoms: S5H_38  and  O5K_53 
REMARK       I    between atoms: S5H_38  and  N5G_43 
REMARK       I    between atoms: C39_39  and  O3A_85 
REMARK       I    between atoms: C1K_40  and  O1L_72 
REMARK       I    between atoms: C2C_41  and  O2D_45 
REMARK       I    between atoms: C33_44  and  O34_74 
REMARK       I    between atoms: O2D_45  and  C30_91 
REMARK       I    between atoms: C12_46  and  O10_51 
REMARK       I    between atoms: C53_48  and  O54_57 
REMARK       I    between atoms: O3I_50  and  S3H_80 
REMARK       I    between atoms: O16_54  and  C15_68 
REMARK       I    between atoms: C43_56  and  C41_65 
REMARK       I    between atoms: O54_57  and  S55_58 
REMARK       I    between atoms: O4G_60  and  C50_77 
REMARK       I    between atoms: O3M_62  and  C40_70 
REMARK       I    between atoms: O1C_67  and  C1B_86 
REMARK       I    between atoms: C15_68  and  C13_83 
REMARK       I    between atoms: N3G_69  and  S3H_80 
REMARK       I    between atoms: S1G_71  and  O1H_75 
REMARK       I    between atoms: S1G_71  and  O1I_82 
REMARK       I    between atoms: O34_74  and  S35_81 
ROOT
ATOM      1  O42 NTO d 869      -9.685  20.596 -18.346  0.00  0.00    -0.340 OA
ATOM      2  O4A NTO d 869      -6.486  19.013 -19.223  0.00  0.00    -0.244 OA
ATOM      3  O32 NTO d 869     -11.506  18.077 -22.345  0.00  0.00    -0.349 OA
ATOM      4  C3F NTO d 869     -11.465  20.302 -23.265  0.00  0.00     0.083 C 
ATOM      5  S17 NTO d 869     -22.624  24.577 -24.402  0.00  0.00     0.251 S 
ATOM      6  C5L NTO d 869      -7.682  22.853 -13.666  0.00  0.00     0.149 C 
ATOM      7  C4F NTO d 869      -8.280  20.319 -18.241  0.00  0.00     0.161 C 
ATOM      8  O14 NTO d 869     -21.782  20.670 -23.639  0.00  0.00    -0.349 OA
ATOM      9  N1F NTO d 869     -21.203  17.029 -23.617  0.00  0.00    -0.210 NA
ATOM     10  O37 NTO d 869     -14.562  14.426 -22.018  0.00  0.00    -0.572 OA
ATOM     11  O5J NTO d 869     -10.237  24.355 -12.705  0.00  0.00    -0.296 OA
ATOM     12  C3L NTO d 869     -10.758  19.304 -22.351  0.00  0.00     0.150 C 
ATOM     13  C29 NTO d 869     -17.178  18.899 -21.569  0.00  0.00     0.110 C 
ATOM     14  S3B NTO d 869     -13.698  22.784 -22.850  0.00  0.00     0.252 S 
ATOM     15  S4B NTO d 869      -5.948  17.762 -18.785  0.00  0.00     0.252 S 
ATOM     16  O24 NTO d 869     -17.362  21.917 -25.227  0.00  0.00    -0.646 OA
ATOM     17  O45 NTO d 869     -12.423  20.522 -19.419  0.00  0.00    -0.646 OA
ATOM     18  C20 NTO d 869     -18.712  19.677 -23.366  0.00  0.00     0.103 C 
ATOM     19  C1E NTO d 869     -21.930  18.276 -23.887  0.00  0.00     0.081 C 
ATOM     20  O3J NTO d 869      -8.869  22.275 -25.041  0.00  0.00    -0.296 OA
ATOM     21  O38 NTO d 869     -13.964  14.483 -24.397  0.00  0.00    -0.572 OA
ATOM     22  O18 NTO d 869     -23.469  24.573 -23.164  0.00  0.00    -0.572 OA
ATOM     23  C31 NTO d 869     -12.796  18.266 -21.743  0.00  0.00     0.091 C 
ATOM     24  O52 NTO d 869      -6.936  23.126 -14.864  0.00  0.00    -0.349 OA
ATOM     25  C46 NTO d 869      -8.632  19.017 -20.355  0.00  0.00     0.094 C 
ATOM     26  O5M NTO d 869      -6.940  22.064 -12.726  0.00  0.00    -0.364 OA
ATOM     27  O3D NTO d 869     -14.459  23.712 -23.750  0.00  0.00    -0.572 OA
ATOM     28  C51 NTO d 869      -6.736  21.960 -15.679  0.00  0.00     0.091 C 
ATOM     29  C5F NTO d 869      -9.037  22.216 -13.981  0.00  0.00     0.081 C 
ATOM     30  C59 NTO d 869      -8.861  20.980 -14.864  0.00  0.00     0.083 C 
ATOM     31  C21 NTO d 869     -17.498  19.732 -24.281  0.00  0.00     0.152 C 
ATOM     32  C26 NTO d 869     -18.463  18.578 -22.336  0.00  0.00     0.092 C 
ATOM     33  O47 NTO d 869      -8.244  17.844 -21.077  0.00  0.00    -0.390 OA
ATOM     34  O1J NTO d 869     -21.528  14.589 -22.952  0.00  0.00    -0.296 OA
ATOM     35  C5N NTO d 869      -6.085  22.927 -11.970  0.00  0.00     0.007 C 
ATOM     36  O3K NTO d 869      -9.083  19.896 -24.559  0.00  0.00    -0.296 OA
ATOM     37  O5I NTO d 869     -12.080  22.762 -12.964  0.00  0.00    -0.296 OA
ATOM     38  S5H NTO d 869     -10.763  23.012 -12.292  0.00  0.00     0.156 S 
ATOM     39  C39 NTO d 869     -12.839  20.595 -22.658  0.00  0.00     0.108 C 
ATOM     40  C1K NTO d 869     -21.075  19.444 -23.397  0.00  0.00     0.150 C 
ATOM     41  C2C NTO d 869     -16.006  19.090 -22.536  0.00  0.00     0.160 C 
ATOM     42  O19 NTO d 869     -23.481  24.870 -25.598  0.00  0.00    -0.572 OA
ATOM     43  N5G NTO d 869      -9.712  21.843 -12.729  0.00  0.00    -0.210 NA
ATOM     44  C33 NTO d 869     -13.548  16.932 -21.724  0.00  0.00     0.067 C 
ATOM     45  O2D NTO d 869     -14.853  19.506 -21.785  0.00  0.00    -0.348 OA
ATOM     46  C12 NTO d 869     -22.753  19.791 -25.701  0.00  0.00     0.089 C 
ATOM     47  C49 NTO d 869      -7.899  19.053 -19.014  0.00  0.00     0.134 C 
ATOM     48  C53 NTO d 869      -5.966  22.405 -16.925  0.00  0.00     0.067 C 
ATOM     49  O4D NTO d 869      -6.277  16.694 -19.786  0.00  0.00    -0.572 OA
ATOM     50  O3I NTO d 869      -8.163  21.408 -22.861  0.00  0.00    -0.296 OA
ATOM     51  O10 NTO d 869     -22.749  19.987 -27.117  0.00  0.00    -0.390 OA
ATOM     52  O1A NTO d 869     -21.560  25.623 -24.273  0.00  0.00    -0.572 OA
ATOM     53  O5K NTO d 869     -10.944  23.000 -10.803  0.00  0.00    -0.296 OA
ATOM     54  O16 NTO d 869     -22.003  23.296 -24.558  0.00  0.00    -0.254 OA
ATOM     55  O56 NTO d 869      -6.834  23.610 -19.988  0.00  0.00    -0.572 OA
ATOM     56  C43 NTO d 869     -11.932  19.726 -18.586  0.00  0.00     0.206 C 
ATOM     57  O54 NTO d 869      -6.669  23.451 -17.596  0.00  0.00    -0.254 OA
ATOM     58  S55 NTO d 869      -6.115  24.079 -18.758  0.00  0.00     0.251 S 
ATOM     59  O5A NTO d 869     -10.144  20.498 -15.277  0.00  0.00    -0.391 OA
ATOM     60  O4G NTO d 869      -7.853  20.164 -16.881  0.00  0.00    -0.348 OA
ATOM     61  O3C NTO d 869     -12.342  23.366 -22.583  0.00  0.00    -0.572 OA
ATOM     62  O3M NTO d 869     -10.758  19.875 -21.035  0.00  0.00    -0.348 OA
ATOM     63  O44 NTO d 869     -12.600  19.159 -17.683  0.00  0.00    -0.646 OA
ATOM     64  C23 NTO d 869     -17.782  20.746 -25.379  0.00  0.00     0.206 C 
ATOM     65  C41 NTO d 869     -10.445  19.421 -18.679  0.00  0.00     0.152 C 
ATOM     66  O22 NTO d 869     -16.316  20.074 -23.536  0.00  0.00    -0.340 OA
ATOM     67  O1C NTO d 869     -23.028  17.393 -25.853  0.00  0.00    -0.391 OA
ATOM     68  C15 NTO d 869     -22.690  22.230 -25.216  0.00  0.00     0.067 C 
ATOM     69  N3G NTO d 869     -10.666  21.537 -23.371  0.00  0.00    -0.210 NA
ATOM     70  C40 NTO d 869     -10.137  18.981 -20.103  0.00  0.00     0.103 C 
ATOM     71  S1G NTO d 869     -22.267  15.872 -23.188  0.00  0.00     0.156 S 
ATOM     72  O1L NTO d 869     -19.868  19.406 -24.172  0.00  0.00    -0.348 OA
ATOM     73  O57 NTO d 869      -4.663  23.722 -18.868  0.00  0.00    -0.572 OA
ATOM     74  O34 NTO d 869     -13.794  16.448 -23.048  0.00  0.00    -0.254 OA
ATOM     75  O1H NTO d 869     -23.272  15.690 -24.286  0.00  0.00    -0.296 OA
ATOM     76  O27 NTO d 869     -19.556  18.514 -21.415  0.00  0.00    -0.390 OA
ATOM     77  C50 NTO d 869      -8.064  21.358 -16.112  0.00  0.00     0.095 C 
ATOM     78  O3E NTO d 869     -14.434  22.631 -21.552  0.00  0.00    -0.572 OA
ATOM     79  O25 NTO d 869     -18.440  20.359 -26.374  0.00  0.00    -0.646 OA
ATOM     80  S3H NTO d 869      -9.168  21.271 -23.967  0.00  0.00     0.156 S 
ATOM     81  S35 NTO d 869     -14.566  15.260 -23.265  0.00  0.00     0.251 S 
ATOM     82  O1I NTO d 869     -22.966  16.287 -21.926  0.00  0.00    -0.296 OA
ATOM     83  C13 NTO d 869     -21.936  20.908 -25.047  0.00  0.00     0.090 C 
ATOM     84  O58 NTO d 869      -6.259  25.565 -18.627  0.00  0.00    -0.572 OA
ATOM     85  O3A NTO d 869     -13.561  21.510 -23.490  0.00  0.00    -0.247 OA
ATOM     86  C1B NTO d 869     -22.146  18.420 -25.394  0.00  0.00     0.083 C 
ATOM     87  O4C NTO d 869      -6.533  17.403 -17.450  0.00  0.00    -0.572 OA
ATOM     88  O4E NTO d 869      -4.462  17.897 -18.652  0.00  0.00    -0.572 OA
ATOM     89  O36 NTO d 869     -15.978  15.625 -23.613  0.00  0.00    -0.572 OA
ATOM     90  O2A NTO d 869     -16.886  17.831 -20.667  0.00  0.00    -0.388 OA
ATOM     91  C30 NTO d 869     -13.628  19.291 -22.502  0.00  0.00     0.096 C 
ATOM     92  H   NTO d 869     -11.580  19.902 -24.251  0.00  0.00     0.076 H 
ATOM     93  H   NTO d 869      -7.865  23.798 -13.199  0.00  0.00     0.131 H 
ATOM     94  H   NTO d 869      -7.786  21.168 -18.666  0.00  0.00     0.133 H 
ATOM     95  H   NTO d 869     -20.538  17.180 -22.858  0.00  0.00     0.140 HD
ATOM     96  H   NTO d 869     -10.868  25.044 -12.442  0.00  0.00     0.231 HD
ATOM     97  H   NTO d 869      -9.759  19.103 -22.678  0.00  0.00     0.131 H 
ATOM     98  H   NTO d 869     -17.321  19.807 -21.022  0.00  0.00     0.094 H 
ATOM     99  H   NTO d 869     -18.877  20.600 -22.851  0.00  0.00     0.092 H 
ATOM    100  H   NTO d 869     -22.877  18.266 -23.388  0.00  0.00     0.076 H 
ATOM    101  H   NTO d 869      -7.980  22.117 -25.393  0.00  0.00     0.231 HD
ATOM    102  H   NTO d 869     -12.643  18.627 -20.747  0.00  0.00     0.090 H 
ATOM    103  H   NTO d 869      -8.382  19.886 -20.926  0.00  0.00     0.091 H 
ATOM    104  H   NTO d 869      -6.201  21.219 -15.122  0.00  0.00     0.090 H 
ATOM    105  H   NTO d 869      -9.635  22.928 -14.510  0.00  0.00     0.076 H 
ATOM    106  H   NTO d 869      -8.344  20.224 -14.310  0.00  0.00     0.089 H 
ATOM    107  H   NTO d 869     -17.318  18.773 -24.719  0.00  0.00     0.104 H 
ATOM    108  H   NTO d 869     -18.369  17.636 -22.836  0.00  0.00     0.091 H 
ATOM    109  H   NTO d 869      -8.471  17.056 -20.558  0.00  0.00     0.210 HD
ATOM    110  H   NTO d 869     -21.076  14.321 -23.768  0.00  0.00     0.231 HD
ATOM    111  H   NTO d 869      -5.527  22.347 -11.265  0.00  0.00     0.066 H 
ATOM    112  H   NTO d 869      -6.677  23.649 -11.448  0.00  0.00     0.066 H 
ATOM    113  H   NTO d 869      -5.411  23.430 -12.632  0.00  0.00     0.066 H 
ATOM    114  H   NTO d 869      -8.190  19.750 -24.909  0.00  0.00     0.231 HD
ATOM    115  H   NTO d 869     -12.710  23.455 -12.708  0.00  0.00     0.231 HD
ATOM    116  H   NTO d 869     -12.705  21.040 -21.694  0.00  0.00     0.092 H 
ATOM    117  H   NTO d 869     -20.860  19.381 -22.351  0.00  0.00     0.131 H 
ATOM    118  H   NTO d 869     -15.812  18.164 -23.034  0.00  0.00     0.133 H 
ATOM    119  H   NTO d 869      -9.016  21.723 -11.993  0.00  0.00     0.140 HD
ATOM    120  H   NTO d 869     -14.485  17.068 -21.225  0.00  0.00     0.080 H 
ATOM    121  H   NTO d 869     -12.944  16.213 -21.211  0.00  0.00     0.080 H 
ATOM    122  H   NTO d 869     -23.750  19.823 -25.314  0.00  0.00     0.091 H 
ATOM    123  H   NTO d 869      -8.187  18.196 -18.440  0.00  0.00     0.097 H 
ATOM    124  H   NTO d 869      -5.855  21.573 -17.587  0.00  0.00     0.080 H 
ATOM    125  H   NTO d 869      -5.004  22.769 -16.627  0.00  0.00     0.080 H 
ATOM    126  H   NTO d 869      -7.273  21.250 -23.213  0.00  0.00     0.231 HD
ATOM    127  H   NTO d 869     -21.837  19.954 -27.445  0.00  0.00     0.210 HD
ATOM    128  H   NTO d 869     -11.570  23.696 -10.548  0.00  0.00     0.231 HD
ATOM    129  H   NTO d 869     -10.603  21.190 -15.778  0.00  0.00     0.210 HD
ATOM    130  H   NTO d 869     -10.181  18.644 -17.993  0.00  0.00     0.104 H 
ATOM    131  H   NTO d 869     -22.643  16.524 -25.658  0.00  0.00     0.210 HD
ATOM    132  H   NTO d 869     -22.770  22.456 -26.259  0.00  0.00     0.080 H 
ATOM    133  H   NTO d 869     -23.662  22.128 -24.780  0.00  0.00     0.080 H 
ATOM    134  H   NTO d 869     -10.580  21.950 -22.442  0.00  0.00     0.140 HD
ATOM    135  H   NTO d 869     -10.510  17.987 -20.231  0.00  0.00     0.092 H 
ATOM    136  H   NTO d 869     -22.817  15.422 -25.100  0.00  0.00     0.231 HD
ATOM    137  H   NTO d 869     -19.645  19.366 -20.959  0.00  0.00     0.210 HD
ATOM    138  H   NTO d 869      -8.588  22.076 -16.708  0.00  0.00     0.091 H 
ATOM    139  H   NTO d 869     -22.313  16.404 -21.219  0.00  0.00     0.231 HD
ATOM    140  H   NTO d 869     -20.972  20.940 -25.511  0.00  0.00     0.090 H 
ATOM    141  H   NTO d 869     -21.204  18.330 -25.894  0.00  0.00     0.089 H 
ATOM    142  H   NTO d 869     -16.758  17.010 -21.168  0.00  0.00     0.210 HD
ATOM    143  H   NTO d 869     -13.855  18.931 -23.484  0.00  0.00     0.091 H 
ENDROOT
TORSDOF 46
ENDMDL
MODEL 71
REMARK VINA RESULT:      -5.1      4.102     14.512
REMARK  0 active torsions:
REMARK  status: ('A' for Active; 'I' for Inactive)
REMARK       I    between atoms: O4A_2  and  C49_47 
REMARK       I    between atoms: O4A_2  and  S4B_15 
REMARK       I    between atoms: C3F_4  and  N3G_69 
REMARK       I    between atoms: S17_5  and  O16_54 
REMARK       I    between atoms: C5L_6  and  O5M_26 
REMARK       I    between atoms: C4F_7  and  O4G_60 
REMARK       I    between atoms: N1F_9  and  C1E_19 
REMARK       I    between atoms: N1F_9  and  S1G_71 
REMARK       I    between atoms: O5J_11  and  S5H_38 
REMARK       I    between atoms: C3L_12  and  O3M_62 
REMARK       I    between atoms: C29_13  and  O2A_90 
REMARK       I    between atoms: S3B_14  and  O3A_85 
REMARK       I    between atoms: C20_18  and  O1L_72 
REMARK       I    between atoms: O3J_20  and  S3H_80 
REMARK       I    between atoms: C31_23  and  C33_44 
REMARK       I    between atoms: C46_25  and  O47_33 
REMARK       I    between atoms: O5M_26  and  C5N_35 
REMARK       I    between atoms: C51_28  and  C53_48 
REMARK       I    between atoms: C5F_29  and  N5G_43 
REMARK       I    between atoms: C59_30  and  O5A_59 
REMARK       I    between atoms: C21_31  and  C23_64 
REMARK       I    between atoms: C26_32  and  O27_76 
REMARK       I    between atoms: O1J_34  and  S1G_71 
REMARK       I    between atoms: O3K_36  and  S3H_80 
REMARK       I    between atoms: O5I_37  and  S5H_38 
REMARK       I    between atoms: S5H_38  and  O5K_53 
REMARK       I    between atoms: S5H_38  and  N5G_43 
REMARK       I    between atoms: C39_39  and  O3A_85 
REMARK       I    between atoms: C1K_40  and  O1L_72 
REMARK       I    between atoms: C2C_41  and  O2D_45 
REMARK       I    between atoms: C33_44  and  O34_74 
REMARK       I    between atoms: O2D_45  and  C30_91 
REMARK       I    between atoms: C12_46  and  O10_51 
REMARK       I    between atoms: C53_48  and  O54_57 
REMARK       I    between atoms: O3I_50  and  S3H_80 
REMARK       I    between atoms: O16_54  and  C15_68 
REMARK       I    between atoms: C43_56  and  C41_65 
REMARK       I    between atoms: O54_57  and  S55_58 
REMARK       I    between atoms: O4G_60  and  C50_77 
REMARK       I    between atoms: O3M_62  and  C40_70 
REMARK       I    between atoms: O1C_67  and  C1B_86 
REMARK       I    between atoms: C15_68  and  C13_83 
REMARK       I    between atoms: N3G_69  and  S3H_80 
REMARK       I    between atoms: S1G_71  and  O1H_75 
REMARK       I    between atoms: S1G_71  and  O1I_82 
REMARK       I    between atoms: O34_74  and  S35_81 
ROOT
ATOM      1  O42 NTO d 869     -12.360  19.978 -21.680  0.00  0.00    -0.340 OA
ATOM      2  O4A NTO d 869     -10.272  18.821 -18.886  0.00  0.00    -0.244 OA
ATOM      3  O32 NTO d 869     -16.222  19.317 -18.470  0.00  0.00    -0.349 OA
ATOM      4  C3F NTO d 869     -16.580  17.422 -19.913  0.00  0.00     0.083 C 
ATOM      5  S17 NTO d 869     -26.255  19.159 -26.802  0.00  0.00     0.251 S 
ATOM      6  C5L NTO d 869      -7.984  21.188 -24.904  0.00  0.00     0.149 C 
ATOM      7  C4F NTO d 869     -11.150  19.589 -21.014  0.00  0.00     0.161 C 
ATOM      8  O14 NTO d 869     -25.340  21.479 -23.588  0.00  0.00    -0.349 OA
ATOM      9  N1F NTO d 869     -25.041  23.242 -20.363  0.00  0.00    -0.210 NA
ATOM     10  O37 NTO d 869     -18.776  22.896 -16.613  0.00  0.00    -0.572 OA
ATOM     11  O5J NTO d 869      -9.496  22.167 -27.447  0.00  0.00    -0.296 OA
ATOM     12  C3L NTO d 869     -15.538  18.311 -19.235  0.00  0.00     0.150 C 
ATOM     13  C29 NTO d 869     -20.463  21.905 -21.432  0.00  0.00     0.110 C 
ATOM     14  S3B NTO d 869     -18.073  17.333 -22.926  0.00  0.00     0.252 S 
ATOM     15  S4B NTO d 869      -9.649  19.585 -17.849  0.00  0.00     0.252 S 
ATOM     16  O24 NTO d 869     -22.480  17.726 -22.427  0.00  0.00    -0.646 OA
ATOM     17  O45 NTO d 869     -15.234  20.457 -22.090  0.00  0.00    -0.646 OA
ATOM     18  C20 NTO d 869     -22.691  20.872 -21.827  0.00  0.00     0.103 C 
ATOM     19  C1E NTO d 869     -25.728  22.684 -21.534  0.00  0.00     0.081 C 
ATOM     20  O3J NTO d 869     -15.300  13.937 -19.901  0.00  0.00    -0.296 OA
ATOM     21  O38 NTO d 869     -19.593  20.911 -15.425  0.00  0.00    -0.572 OA
ATOM     22  O18 NTO d 869     -26.271  20.413 -27.625  0.00  0.00    -0.572 OA
ATOM     23  C31 NTO d 869     -16.951  20.208 -19.330  0.00  0.00     0.091 C 
ATOM     24  O52 NTO d 869      -8.014  19.859 -24.358  0.00  0.00    -0.349 OA
ATOM     25  C46 NTO d 869     -12.682  18.955 -19.132  0.00  0.00     0.094 C 
ATOM     26  O5M NTO d 869      -6.890  21.964 -24.400  0.00  0.00    -0.364 OA
ATOM     27  O3D NTO d 869     -19.154  16.517 -23.571  0.00  0.00    -0.572 OA
ATOM     28  C51 NTO d 869      -8.361  19.832 -22.963  0.00  0.00     0.091 C 
ATOM     29  C5F NTO d 869      -9.319  21.909 -24.700  0.00  0.00     0.081 C 
ATOM     30  C59 NTO d 869      -9.728  21.882 -23.227  0.00  0.00     0.083 C 
ATOM     31  C21 NTO d 869     -22.186  19.659 -21.062  0.00  0.00     0.152 C 
ATOM     32  C26 NTO d 869     -21.972  22.100 -21.271  0.00  0.00     0.092 C 
ATOM     33  O47 NTO d 869     -12.821  18.917 -17.709  0.00  0.00    -0.390 OA
ATOM     34  O1J NTO d 869     -25.072  25.198 -18.728  0.00  0.00    -0.296 OA
ATOM     35  C5N NTO d 869      -5.715  21.653 -25.154  0.00  0.00     0.007 C 
ATOM     36  O3K NTO d 869     -15.338  15.680 -18.199  0.00  0.00    -0.296 OA
ATOM     37  O5I NTO d 869     -11.256  23.666 -26.637  0.00  0.00    -0.296 OA
ATOM     38  S5H NTO d 869      -9.776  23.429 -26.686  0.00  0.00     0.156 S 
ATOM     39  C39 NTO d 869     -17.369  18.295 -20.890  0.00  0.00     0.108 C 
ATOM     40  C1K NTO d 869     -24.684  22.015 -22.428  0.00  0.00     0.150 C 
ATOM     41  C2C NTO d 869     -20.014  20.599 -20.772  0.00  0.00     0.160 C 
ATOM     42  O19 NTO d 869     -27.613  18.524 -26.821  0.00  0.00    -0.572 OA
ATOM     43  N5G NTO d 869      -9.206  23.300 -25.163  0.00  0.00    -0.210 NA
ATOM     44  C33 NTO d 869     -17.637  21.284 -18.483  0.00  0.00     0.067 C 
ATOM     45  O2D NTO d 869     -18.618  20.398 -21.050  0.00  0.00    -0.348 OA
ATOM     46  C12 NTO d 869     -27.336  20.921 -22.293  0.00  0.00     0.089 C 
ATOM     47  C49 NTO d 869     -11.329  19.568 -19.493  0.00  0.00     0.134 C 
ATOM     48  C53 NTO d 869      -8.387  18.364 -22.532  0.00  0.00     0.067 C 
ATOM     49  O4D NTO d 869     -10.534  19.604 -16.637  0.00  0.00    -0.572 OA
ATOM     50  O3I NTO d 869     -13.552  15.654 -19.880  0.00  0.00    -0.296 OA
ATOM     51  O10 NTO d 869     -28.106  19.805 -21.841  0.00  0.00    -0.390 OA
ATOM     52  O1A NTO d 869     -25.243  18.209 -27.367  0.00  0.00    -0.572 OA
ATOM     53  O5K NTO d 869      -9.103  24.574 -27.383  0.00  0.00    -0.296 OA
ATOM     54  O16 NTO d 869     -25.893  19.480 -25.454  0.00  0.00    -0.254 OA
ATOM     55  O56 NTO d 869     -10.740  15.904 -22.507  0.00  0.00    -0.572 OA
ATOM     56  C43 NTO d 869     -14.407  21.271 -21.620  0.00  0.00     0.206 C 
ATOM     57  O54 NTO d 869      -9.288  17.620 -23.354  0.00  0.00    -0.254 OA
ATOM     58  S55 NTO d 869      -9.437  16.206 -23.184  0.00  0.00     0.251 S 
ATOM     59  O5A NTO d 869     -11.048  22.416 -23.085  0.00  0.00    -0.391 OA
ATOM     60  O4G NTO d 869     -10.050  20.455 -21.328  0.00  0.00    -0.348 OA
ATOM     61  O3C NTO d 869     -16.767  16.609 -23.063  0.00  0.00    -0.572 OA
ATOM     62  O3M NTO d 869     -14.780  18.933 -20.281  0.00  0.00    -0.348 OA
ATOM     63  O44 NTO d 869     -14.492  22.518 -21.767  0.00  0.00    -0.646 OA
ATOM     64  C23 NTO d 869     -22.976  18.446 -21.528  0.00  0.00     0.206 C 
ATOM     65  C41 NTO d 869     -13.239  20.721 -20.816  0.00  0.00     0.152 C 
ATOM     66  O22 NTO d 869     -20.772  19.482 -21.265  0.00  0.00    -0.340 OA
ATOM     67  O1C NTO d 869     -27.776  22.252 -20.322  0.00  0.00    -0.391 OA
ATOM     68  C15 NTO d 869     -26.885  19.899 -24.515  0.00  0.00     0.067 C 
ATOM     69  N3G NTO d 869     -15.909  16.318 -20.623  0.00  0.00    -0.210 NA
ATOM     70  C40 NTO d 869     -13.796  19.815 -19.727  0.00  0.00     0.103 C 
ATOM     71  S1G NTO d 869     -25.750  24.649 -19.948  0.00  0.00     0.156 S 
ATOM     72  O1L NTO d 869     -24.112  20.955 -21.648  0.00  0.00    -0.348 OA
ATOM     73  O57 NTO d 869      -8.310  15.687 -22.342  0.00  0.00    -0.572 OA
ATOM     74  O34 NTO d 869     -18.600  20.716 -17.590  0.00  0.00    -0.254 OA
ATOM     75  O1H NTO d 869     -27.203  24.409 -19.664  0.00  0.00    -0.296 OA
ATOM     76  O27 NTO d 869     -22.374  23.269 -21.991  0.00  0.00    -0.390 OA
ATOM     77  C50 NTO d 869      -9.736  20.437 -22.728  0.00  0.00     0.095 C 
ATOM     78  O3E NTO d 869     -17.974  18.664 -23.613  0.00  0.00    -0.572 OA
ATOM     79  O25 NTO d 869     -24.094  18.239 -21.000  0.00  0.00    -0.646 OA
ATOM     80  S3H NTO d 869     -15.008  15.384 -19.631  0.00  0.00     0.156 S 
ATOM     81  S35 NTO d 869     -19.425  21.553 -16.769  0.00  0.00     0.251 S 
ATOM     82  O1I NTO d 869     -25.610  25.625 -21.080  0.00  0.00    -0.296 OA
ATOM     83  C13 NTO d 869     -26.235  20.415 -23.228  0.00  0.00     0.090 C 
ATOM     84  O58 NTO d 869      -9.405  15.546 -24.530  0.00  0.00    -0.572 OA
ATOM     85  O3A NTO d 869     -18.382  17.518 -21.540  0.00  0.00    -0.247 OA
ATOM     86  C1B NTO d 869     -26.734  21.628 -21.075  0.00  0.00     0.083 C 
ATOM     87  O4C NTO d 869      -9.416  20.988 -18.327  0.00  0.00    -0.572 OA
ATOM     88  O4E NTO d 869      -8.334  18.953 -17.510  0.00  0.00    -0.572 OA
ATOM     89  O36 NTO d 869     -20.771  21.724 -17.406  0.00  0.00    -0.572 OA
ATOM     90  O2A NTO d 869     -19.777  23.006 -20.832  0.00  0.00    -0.388 OA
ATOM     91  C30 NTO d 869     -18.008  19.469 -20.140  0.00  0.00     0.096 C 
ATOM     92  H   NTO d 869     -17.242  16.992 -19.191  0.00  0.00     0.076 H 
ATOM     93  H   NTO d 869      -7.828  21.081 -25.957  0.00  0.00     0.131 H 
ATOM     94  H   NTO d 869     -10.929  18.604 -21.368  0.00  0.00     0.133 H 
ATOM     95  H   NTO d 869     -24.060  23.407 -20.590  0.00  0.00     0.140 HD
ATOM     96  H   NTO d 869      -9.838  22.252 -28.351  0.00  0.00     0.231 HD
ATOM     97  H   NTO d 869     -14.900  17.750 -18.584  0.00  0.00     0.131 H 
ATOM     98  H   NTO d 869     -20.230  21.858 -22.475  0.00  0.00     0.094 H 
ATOM     99  H   NTO d 869     -22.494  20.805 -22.877  0.00  0.00     0.092 H 
ATOM    100  H   NTO d 869     -26.240  23.459 -22.066  0.00  0.00     0.076 H 
ATOM    101  H   NTO d 869     -14.765  13.383 -19.312  0.00  0.00     0.231 HD
ATOM    102  H   NTO d 869     -16.253  20.650 -20.009  0.00  0.00     0.090 H 
ATOM    103  H   NTO d 869     -12.744  17.962 -19.525  0.00  0.00     0.091 H 
ATOM    104  H   NTO d 869      -7.647  20.401 -22.404  0.00  0.00     0.090 H 
ATOM    105  H   NTO d 869     -10.071  21.403 -25.269  0.00  0.00     0.076 H 
ATOM    106  H   NTO d 869      -9.032  22.465 -22.660  0.00  0.00     0.089 H 
ATOM    107  H   NTO d 869     -22.330  19.795 -20.010  0.00  0.00     0.104 H 
ATOM    108  H   NTO d 869     -22.221  22.221 -20.238  0.00  0.00     0.091 H 
ATOM    109  H   NTO d 869     -12.765  19.818 -17.354  0.00  0.00     0.210 HD
ATOM    110  H   NTO d 869     -25.164  24.567 -17.996  0.00  0.00     0.231 HD
ATOM    111  H   NTO d 869      -4.891  22.228 -24.786  0.00  0.00     0.066 H 
ATOM    112  H   NTO d 869      -5.879  21.887 -26.185  0.00  0.00     0.066 H 
ATOM    113  H   NTO d 869      -5.494  20.610 -25.057  0.00  0.00     0.066 H 
ATOM    114  H   NTO d 869     -14.797  15.120 -17.620  0.00  0.00     0.231 HD
ATOM    115  H   NTO d 869     -11.600  23.744 -27.541  0.00  0.00     0.231 HD
ATOM    116  H   NTO d 869     -16.701  18.678 -21.633  0.00  0.00     0.092 H 
ATOM    117  H   NTO d 869     -23.930  22.700 -22.755  0.00  0.00     0.131 H 
ATOM    118  H   NTO d 869     -20.178  20.668 -19.717  0.00  0.00     0.133 H 
ATOM    119  H   NTO d 869      -8.227  23.584 -25.143  0.00  0.00     0.140 HD
ATOM    120  H   NTO d 869     -18.131  21.975 -19.133  0.00  0.00     0.080 H 
ATOM    121  H   NTO d 869     -16.889  21.779 -17.899  0.00  0.00     0.080 H 
ATOM    122  H   NTO d 869     -27.948  21.617 -22.828  0.00  0.00     0.091 H 
ATOM    123  H   NTO d 869     -11.296  20.573 -19.126  0.00  0.00     0.097 H 
ATOM    124  H   NTO d 869      -8.706  18.302 -21.513  0.00  0.00     0.080 H 
ATOM    125  H   NTO d 869      -7.404  17.954 -22.635  0.00  0.00     0.080 H 
ATOM    126  H   NTO d 869     -13.016  15.100 -19.292  0.00  0.00     0.231 HD
ATOM    127  H   NTO d 869     -27.532  19.190 -21.360  0.00  0.00     0.210 HD
ATOM    128  H   NTO d 869      -9.444  24.648 -28.288  0.00  0.00     0.231 HD
ATOM    129  H   NTO d 869     -11.670  21.881 -23.602  0.00  0.00     0.210 HD
ATOM    130  H   NTO d 869     -12.681  21.520 -20.375  0.00  0.00     0.104 H 
ATOM    131  H   NTO d 869     -27.395  22.699 -19.550  0.00  0.00     0.210 HD
ATOM    132  H   NTO d 869     -27.517  19.068 -24.279  0.00  0.00     0.080 H 
ATOM    133  H   NTO d 869     -27.457  20.691 -24.951  0.00  0.00     0.080 H 
ATOM    134  H   NTO d 869     -15.300  16.714 -21.340  0.00  0.00     0.140 HD
ATOM    135  H   NTO d 869     -14.229  20.433 -18.970  0.00  0.00     0.092 H 
ATOM    136  H   NTO d 869     -27.289  23.778 -18.932  0.00  0.00     0.231 HD
ATOM    137  H   NTO d 869     -22.151  23.164 -22.930  0.00  0.00     0.210 HD
ATOM    138  H   NTO d 869     -10.463  19.849 -23.248  0.00  0.00     0.091 H 
ATOM    139  H   NTO d 869     -24.669  25.777 -21.260  0.00  0.00     0.231 HD
ATOM    140  H   NTO d 869     -25.690  19.644 -22.724  0.00  0.00     0.090 H 
ATOM    141  H   NTO d 869     -26.233  20.909 -20.461  0.00  0.00     0.089 H 
ATOM    142  H   NTO d 869     -19.992  23.044 -19.887  0.00  0.00     0.210 HD
ATOM    143  H   NTO d 869     -18.760  19.069 -19.493  0.00  0.00     0.091 H 
ENDROOT
TORSDOF 46
ENDMDL
MODEL 72
REMARK VINA RESULT:      -4.9      3.723     14.609
REMARK  0 active torsions:
REMARK  status: ('A' for Active; 'I' for Inactive)
REMARK       I    between atoms: O4A_2  and  C49_47 
REMARK       I    between atoms: O4A_2  and  S4B_15 
REMARK       I    between atoms: C3F_4  and  N3G_69 
REMARK       I    between atoms: S17_5  and  O16_54 
REMARK       I    between atoms: C5L_6  and  O5M_26 
REMARK       I    between atoms: C4F_7  and  O4G_60 
REMARK       I    between atoms: N1F_9  and  C1E_19 
REMARK       I    between atoms: N1F_9  and  S1G_71 
REMARK       I    between atoms: O5J_11  and  S5H_38 
REMARK       I    between atoms: C3L_12  and  O3M_62 
REMARK       I    between atoms: C29_13  and  O2A_90 
REMARK       I    between atoms: S3B_14  and  O3A_85 
REMARK       I    between atoms: C20_18  and  O1L_72 
REMARK       I    between atoms: O3J_20  and  S3H_80 
REMARK       I    between atoms: C31_23  and  C33_44 
REMARK       I    between atoms: C46_25  and  O47_33 
REMARK       I    between atoms: O5M_26  and  C5N_35 
REMARK       I    between atoms: C51_28  and  C53_48 
REMARK       I    between atoms: C5F_29  and  N5G_43 
REMARK       I    between atoms: C59_30  and  O5A_59 
REMARK       I    between atoms: C21_31  and  C23_64 
REMARK       I    between atoms: C26_32  and  O27_76 
REMARK       I    between atoms: O1J_34  and  S1G_71 
REMARK       I    between atoms: O3K_36  and  S3H_80 
REMARK       I    between atoms: O5I_37  and  S5H_38 
REMARK       I    between atoms: S5H_38  and  O5K_53 
REMARK       I    between atoms: S5H_38  and  N5G_43 
REMARK       I    between atoms: C39_39  and  O3A_85 
REMARK       I    between atoms: C1K_40  and  O1L_72 
REMARK       I    between atoms: C2C_41  and  O2D_45 
REMARK       I    between atoms: C33_44  and  O34_74 
REMARK       I    between atoms: O2D_45  and  C30_91 
REMARK       I    between atoms: C12_46  and  O10_51 
REMARK       I    between atoms: C53_48  and  O54_57 
REMARK       I    between atoms: O3I_50  and  S3H_80 
REMARK       I    between atoms: O16_54  and  C15_68 
REMARK       I    between atoms: C43_56  and  C41_65 
REMARK       I    between atoms: O54_57  and  S55_58 
REMARK       I    between atoms: O4G_60  and  C50_77 
REMARK       I    between atoms: O3M_62  and  C40_70 
REMARK       I    between atoms: O1C_67  and  C1B_86 
REMARK       I    between atoms: C15_68  and  C13_83 
REMARK       I    between atoms: N3G_69  and  S3H_80 
REMARK       I    between atoms: S1G_71  and  O1H_75 
REMARK       I    between atoms: S1G_71  and  O1I_82 
REMARK       I    between atoms: O34_74  and  S35_81 
ROOT
ATOM      1  O42 NTO d 869      -8.518  20.524 -17.486  0.00  0.00    -0.340 OA
ATOM      2  O4A NTO d 869      -6.425  19.153 -20.179  0.00  0.00    -0.244 OA
ATOM      3  O32 NTO d 869     -12.349  18.321 -19.961  0.00  0.00    -0.349 OA
ATOM      4  C3F NTO d 869     -12.792  20.622 -20.516  0.00  0.00     0.083 C 
ATOM      5  S17 NTO d 869     -22.510  24.554 -14.671  0.00  0.00     0.251 S 
ATOM      6  C5L NTO d 869      -4.155  22.410 -14.584  0.00  0.00     0.149 C 
ATOM      7  C4F NTO d 869      -7.311  20.292 -18.227  0.00  0.00     0.161 C 
ATOM      8  O14 NTO d 869     -21.469  20.629 -14.912  0.00  0.00    -0.349 OA
ATOM      9  N1F NTO d 869     -21.060  17.026 -15.582  0.00  0.00    -0.210 NA
ATOM     10  O37 NTO d 869     -14.752  14.542 -18.313  0.00  0.00    -0.572 OA
ATOM     11  O5J NTO d 869      -5.673  23.716 -12.196  0.00  0.00    -0.296 OA
ATOM     12  C3L NTO d 869     -11.711  19.571 -20.271  0.00  0.00     0.150 C 
ATOM     13  C29 NTO d 869     -16.547  18.849 -16.017  0.00  0.00     0.110 C 
ATOM     14  S3B NTO d 869     -14.334  22.967 -18.662  0.00  0.00     0.252 S 
ATOM     15  S4B NTO d 869      -5.762  17.888 -20.250  0.00  0.00     0.252 S 
ATOM     16  O24 NTO d 869     -18.717  22.187 -18.602  0.00  0.00    -0.646 OA
ATOM     17  O45 NTO d 869     -11.380  20.445 -16.811  0.00  0.00    -0.646 OA
ATOM     18  C20 NTO d 869     -18.814  19.733 -16.535  0.00  0.00     0.103 C 
ATOM     19  C1E NTO d 869     -21.785  18.264 -15.266  0.00  0.00     0.081 C 
ATOM     20  O3J NTO d 869     -11.628  22.850 -23.249  0.00  0.00    -0.296 OA
ATOM     21  O38 NTO d 869     -15.616  14.843 -20.590  0.00  0.00    -0.572 OA
ATOM     22  O18 NTO d 869     -22.498  24.403 -13.180  0.00  0.00    -0.572 OA
ATOM     23  C31 NTO d 869     -13.061  18.403 -18.716  0.00  0.00     0.091 C 
ATOM     24  O52 NTO d 869      -4.220  22.821 -15.959  0.00  0.00    -0.349 OA
ATOM     25  C46 NTO d 869      -8.833  19.181 -19.881  0.00  0.00     0.094 C 
ATOM     26  O5M NTO d 869      -3.028  21.566 -14.317  0.00  0.00    -0.364 OA
ATOM     27  O3D NTO d 869     -15.451  23.946 -18.872  0.00  0.00    -0.572 OA
ATOM     28  C51 NTO d 869      -4.546  21.745 -16.854  0.00  0.00     0.091 C 
ATOM     29  C5F NTO d 869      -5.461  21.753 -14.132  0.00  0.00     0.081 C 
ATOM     30  C59 NTO d 869      -5.848  20.613 -15.075  0.00  0.00     0.083 C 
ATOM     31  C21 NTO d 869     -18.337  19.919 -17.967  0.00  0.00     0.152 C 
ATOM     32  C26 NTO d 869     -18.046  18.552 -15.944  0.00  0.00     0.092 C 
ATOM     33  O47 NTO d 869      -8.951  18.096 -20.806  0.00  0.00    -0.390 OA
ATOM     34  O1J NTO d 869     -21.001  14.524 -15.094  0.00  0.00    -0.296 OA
ATOM     35  C5N NTO d 869      -1.875  22.386 -14.101  0.00  0.00     0.007 C 
ATOM     36  O3K NTO d 869     -11.581  20.430 -22.969  0.00  0.00    -0.296 OA
ATOM     37  O5I NTO d 869      -7.369  22.085 -11.516  0.00  0.00    -0.296 OA
ATOM     38  S5H NTO d 869      -5.899  22.322 -11.693  0.00  0.00     0.156 S 
ATOM     39  C39 NTO d 869     -13.567  20.805 -19.210  0.00  0.00     0.108 C 
ATOM     40  C1K NTO d 869     -20.777  19.413 -15.238  0.00  0.00     0.150 C 
ATOM     41  C2C NTO d 869     -16.131  19.175 -17.455  0.00  0.00     0.160 C 
ATOM     42  O19 NTO d 869     -23.889  24.924 -15.131  0.00  0.00    -0.572 OA
ATOM     43  N5G NTO d 869      -5.310  21.240 -12.762  0.00  0.00    -0.210 NA
ATOM     44  C33 NTO d 869     -13.697  17.046 -18.404  0.00  0.00     0.067 C 
ATOM     45  O2D NTO d 869     -14.747  19.563 -17.458  0.00  0.00    -0.348 OA
ATOM     46  C12 NTO d 869     -23.462  19.909 -16.129  0.00  0.00     0.089 C 
ATOM     47  C49 NTO d 869      -7.466  19.119 -19.199  0.00  0.00     0.134 C 
ATOM     48  C53 NTO d 869      -4.614  22.334 -18.265  0.00  0.00     0.067 C 
ATOM     49  O4D NTO d 869      -6.626  16.907 -20.985  0.00  0.00    -0.572 OA
ATOM     50  O3I NTO d 869      -9.824  21.811 -21.957  0.00  0.00    -0.296 OA
ATOM     51  O10 NTO d 869     -24.261  20.236 -17.268  0.00  0.00    -0.390 OA
ATOM     52  O1A NTO d 869     -21.540  25.624 -15.068  0.00  0.00    -0.572 OA
ATOM     53  O5K NTO d 869      -5.199  22.164 -10.375  0.00  0.00    -0.296 OA
ATOM     54  O16 NTO d 869     -22.117  23.318 -15.278  0.00  0.00    -0.254 OA
ATOM     55  O56 NTO d 869      -7.047  23.785 -20.152  0.00  0.00    -0.572 OA
ATOM     56  C43 NTO d 869     -10.520  19.595 -16.488  0.00  0.00     0.206 C 
ATOM     57  O54 NTO d 869      -5.552  23.410 -18.309  0.00  0.00    -0.254 OA
ATOM     58  S55 NTO d 869      -5.745  24.164 -19.512  0.00  0.00     0.251 S 
ATOM     59  O5A NTO d 869      -7.147  20.123 -14.729  0.00  0.00    -0.391 OA
ATOM     60  O4G NTO d 869      -6.187  20.027 -17.375  0.00  0.00    -0.348 OA
ATOM     61  O3C NTO d 869     -13.056  23.573 -19.158  0.00  0.00    -0.572 OA
ATOM     62  O3M NTO d 869     -10.948  20.016 -19.140  0.00  0.00    -0.348 OA
ATOM     63  O44 NTO d 869     -10.565  18.921 -15.426  0.00  0.00    -0.646 OA
ATOM     64  C23 NTO d 869     -19.175  21.019 -18.602  0.00  0.00     0.206 C 
ATOM     65  C41 NTO d 869      -9.358  19.357 -17.440  0.00  0.00     0.152 C 
ATOM     66  O22 NTO d 869     -16.934  20.235 -17.998  0.00  0.00    -0.340 OA
ATOM     67  O1C NTO d 869     -23.826  17.527 -16.332  0.00  0.00    -0.391 OA
ATOM     68  C15 NTO d 869     -23.080  22.292 -15.529  0.00  0.00     0.067 C 
ATOM     69  N3G NTO d 869     -12.169  21.891 -20.936  0.00  0.00    -0.210 NA
ATOM     70  C40 NTO d 869      -9.927  19.064 -18.821  0.00  0.00     0.103 C 
ATOM     71  S1G NTO d 869     -21.716  15.795 -14.740  0.00  0.00     0.156 S 
ATOM     72  O1L NTO d 869     -20.229  19.494 -16.561  0.00  0.00    -0.348 OA
ATOM     73  O57 NTO d 869      -4.623  23.875 -20.463  0.00  0.00    -0.572 OA
ATOM     74  O34 NTO d 869     -14.664  16.679 -19.393  0.00  0.00    -0.254 OA
ATOM     75  O1H NTO d 869     -23.171  15.677 -15.082  0.00  0.00    -0.296 OA
ATOM     76  O27 NTO d 869     -18.420  18.361 -14.576  0.00  0.00    -0.390 OA
ATOM     77  C50 NTO d 869      -5.897  21.135 -16.510  0.00  0.00     0.095 C 
ATOM     78  O3E NTO d 869     -14.202  22.666 -17.198  0.00  0.00    -0.572 OA
ATOM     79  O25 NTO d 869     -20.290  20.702 -19.078  0.00  0.00    -0.646 OA
ATOM     80  S3H NTO d 869     -11.284  21.740 -22.301  0.00  0.00     0.156 S 
ATOM     81  S35 NTO d 869     -15.448  15.487 -19.247  0.00  0.00     0.251 S 
ATOM     82  O1I NTO d 869     -21.561  16.063 -13.271  0.00  0.00    -0.296 OA
ATOM     83  C13 NTO d 869     -22.393  20.990 -15.951  0.00  0.00     0.090 C 
ATOM     84  O58 NTO d 869      -5.756  25.625 -19.176  0.00  0.00    -0.572 OA
ATOM     85  O3A NTO d 869     -14.615  21.765 -19.388  0.00  0.00    -0.247 OA
ATOM     86  C1B NTO d 869     -22.818  18.539 -16.358  0.00  0.00     0.083 C 
ATOM     87  O4C NTO d 869      -5.489  17.384 -18.863  0.00  0.00    -0.572 OA
ATOM     88  O4E NTO d 869      -4.462  18.067 -20.974  0.00  0.00    -0.572 OA
ATOM     89  O36 NTO d 869     -16.798  15.829 -18.691  0.00  0.00    -0.572 OA
ATOM     90  O2A NTO d 869     -15.816  17.714 -15.553  0.00  0.00    -0.388 OA
ATOM     91  C30 NTO d 869     -14.154  19.462 -18.762  0.00  0.00     0.096 C 
ATOM     92  H   NTO d 869     -13.457  20.311 -21.295  0.00  0.00     0.076 H 
ATOM     93  H   NTO d 869      -4.019  23.299 -14.005  0.00  0.00     0.131 H 
ATOM     94  H   NTO d 869      -7.129  21.195 -18.772  0.00  0.00     0.133 H 
ATOM     95  H   NTO d 869     -20.079  17.131 -15.326  0.00  0.00     0.140 HD
ATOM     96  H   NTO d 869      -6.026  24.353 -11.555  0.00  0.00     0.231 HD
ATOM     97  H   NTO d 869     -11.081  19.440 -21.126  0.00  0.00     0.131 H 
ATOM     98  H   NTO d 869     -16.333  19.697 -15.400  0.00  0.00     0.094 H 
ATOM     99  H   NTO d 869     -18.636  20.596 -15.929  0.00  0.00     0.092 H 
ATOM    100  H   NTO d 869     -22.278  18.171 -14.320  0.00  0.00     0.076 H 
ATOM    101  H   NTO d 869     -11.103  22.760 -24.059  0.00  0.00     0.231 HD
ATOM    102  H   NTO d 869     -12.360  18.675 -17.956  0.00  0.00     0.090 H 
ATOM    103  H   NTO d 869      -8.935  20.109 -20.403  0.00  0.00     0.091 H 
ATOM    104  H   NTO d 869      -3.805  20.976 -16.776  0.00  0.00     0.090 H 
ATOM    105  H   NTO d 869      -6.239  22.488 -14.153  0.00  0.00     0.076 H 
ATOM    106  H   NTO d 869      -5.124  19.829 -14.991  0.00  0.00     0.089 H 
ATOM    107  H   NTO d 869     -18.460  19.013 -18.522  0.00  0.00     0.104 H 
ATOM    108  H   NTO d 869     -18.274  17.665 -16.498  0.00  0.00     0.091 H 
ATOM    109  H   NTO d 869      -8.860  17.255 -20.331  0.00  0.00     0.210 HD
ATOM    110  H   NTO d 869     -21.102  14.351 -16.043  0.00  0.00     0.231 HD
ATOM    111  H   NTO d 869      -1.028  21.765 -13.901  0.00  0.00     0.066 H 
ATOM    112  H   NTO d 869      -2.049  23.033 -13.267  0.00  0.00     0.066 H 
ATOM    113  H   NTO d 869      -1.688  22.974 -14.976  0.00  0.00     0.066 H 
ATOM    114  H   NTO d 869     -11.051  20.352 -23.777  0.00  0.00     0.231 HD
ATOM    115  H   NTO d 869      -7.725  22.726 -10.880  0.00  0.00     0.231 HD
ATOM    116  H   NTO d 869     -12.898  21.162 -18.455  0.00  0.00     0.092 H 
ATOM    117  H   NTO d 869     -20.006  19.261 -14.512  0.00  0.00     0.131 H 
ATOM    118  H   NTO d 869     -16.276  18.307 -18.064  0.00  0.00     0.133 H 
ATOM    119  H   NTO d 869      -4.322  21.078 -12.570  0.00  0.00     0.140 HD
ATOM    120  H   NTO d 869     -14.178  17.099 -17.450  0.00  0.00     0.080 H 
ATOM    121  H   NTO d 869     -12.924  16.306 -18.401  0.00  0.00     0.080 H 
ATOM    122  H   NTO d 869     -24.059  19.866 -15.242  0.00  0.00     0.091 H 
ATOM    123  H   NTO d 869      -7.394  18.203 -18.651  0.00  0.00     0.097 H 
ATOM    124  H   NTO d 869      -4.919  21.571 -18.950  0.00  0.00     0.080 H 
ATOM    125  H   NTO d 869      -3.647  22.704 -18.533  0.00  0.00     0.080 H 
ATOM    126  H   NTO d 869      -9.297  21.721 -22.767  0.00  0.00     0.231 HD
ATOM    127  H   NTO d 869     -23.700  20.269 -18.058  0.00  0.00     0.210 HD
ATOM    128  H   NTO d 869      -5.552  22.809  -9.742  0.00  0.00     0.231 HD
ATOM    129  H   NTO d 869      -7.795  20.840 -14.808  0.00  0.00     0.210 HD
ATOM    130  H   NTO d 869      -8.767  18.530 -17.107  0.00  0.00     0.104 H 
ATOM    131  H   NTO d 869     -23.418  16.659 -16.478  0.00  0.00     0.210 HD
ATOM    132  H   NTO d 869     -23.735  22.612 -16.312  0.00  0.00     0.080 H 
ATOM    133  H   NTO d 869     -23.632  22.113 -14.630  0.00  0.00     0.080 H 
ATOM    134  H   NTO d 869     -11.559  22.219 -20.187  0.00  0.00     0.140 HD
ATOM    135  H   NTO d 869     -10.327  18.072 -18.811  0.00  0.00     0.092 H 
ATOM    136  H   NTO d 869     -23.266  15.504 -16.031  0.00  0.00     0.231 HD
ATOM    137  H   NTO d 869     -18.215  19.163 -14.070  0.00  0.00     0.210 HD
ATOM    138  H   NTO d 869      -6.651  21.886 -16.627  0.00  0.00     0.091 H 
ATOM    139  H   NTO d 869     -20.618  16.138 -13.054  0.00  0.00     0.231 HD
ATOM    140  H   NTO d 869     -21.866  21.103 -16.875  0.00  0.00     0.090 H 
ATOM    141  H   NTO d 869     -22.331  18.532 -17.311  0.00  0.00     0.089 H 
ATOM    142  H   NTO d 869     -16.014  16.949 -16.116  0.00  0.00     0.210 HD
ATOM    143  H   NTO d 869     -14.909  19.187 -19.469  0.00  0.00     0.091 H 
ENDROOT
TORSDOF 46
ENDMDL
MODEL 73
REMARK VINA RESULT:      -4.9      3.451      6.906
REMARK  0 active torsions:
REMARK  status: ('A' for Active; 'I' for Inactive)
REMARK       I    between atoms: O4A_2  and  C49_47 
REMARK       I    between atoms: O4A_2  and  S4B_15 
REMARK       I    between atoms: C3F_4  and  N3G_69 
REMARK       I    between atoms: S17_5  and  O16_54 
REMARK       I    between atoms: C5L_6  and  O5M_26 
REMARK       I    between atoms: C4F_7  and  O4G_60 
REMARK       I    between atoms: N1F_9  and  C1E_19 
REMARK       I    between atoms: N1F_9  and  S1G_71 
REMARK       I    between atoms: O5J_11  and  S5H_38 
REMARK       I    between atoms: C3L_12  and  O3M_62 
REMARK       I    between atoms: C29_13  and  O2A_90 
REMARK       I    between atoms: S3B_14  and  O3A_85 
REMARK       I    between atoms: C20_18  and  O1L_72 
REMARK       I    between atoms: O3J_20  and  S3H_80 
REMARK       I    between atoms: C31_23  and  C33_44 
REMARK       I    between atoms: C46_25  and  O47_33 
REMARK       I    between atoms: O5M_26  and  C5N_35 
REMARK       I    between atoms: C51_28  and  C53_48 
REMARK       I    between atoms: C5F_29  and  N5G_43 
REMARK       I    between atoms: C59_30  and  O5A_59 
REMARK       I    between atoms: C21_31  and  C23_64 
REMARK       I    between atoms: C26_32  and  O27_76 
REMARK       I    between atoms: O1J_34  and  S1G_71 
REMARK       I    between atoms: O3K_36  and  S3H_80 
REMARK       I    between atoms: O5I_37  and  S5H_38 
REMARK       I    between atoms: S5H_38  and  O5K_53 
REMARK       I    between atoms: S5H_38  and  N5G_43 
REMARK       I    between atoms: C39_39  and  O3A_85 
REMARK       I    between atoms: C1K_40  and  O1L_72 
REMARK       I    between atoms: C2C_41  and  O2D_45 
REMARK       I    between atoms: C33_44  and  O34_74 
REMARK       I    between atoms: O2D_45  and  C30_91 
REMARK       I    between atoms: C12_46  and  O10_51 
REMARK       I    between atoms: C53_48  and  O54_57 
REMARK       I    between atoms: O3I_50  and  S3H_80 
REMARK       I    between atoms: O16_54  and  C15_68 
REMARK       I    between atoms: C43_56  and  C41_65 
REMARK       I    between atoms: O54_57  and  S55_58 
REMARK       I    between atoms: O4G_60  and  C50_77 
REMARK       I    between atoms: O3M_62  and  C40_70 
REMARK       I    between atoms: O1C_67  and  C1B_86 
REMARK       I    between atoms: C15_68  and  C13_83 
REMARK       I    between atoms: N3G_69  and  S3H_80 
REMARK       I    between atoms: S1G_71  and  O1H_75 
REMARK       I    between atoms: S1G_71  and  O1I_82 
REMARK       I    between atoms: O34_74  and  S35_81 
ROOT
ATOM      1  O42 NTO d 869     -19.105  18.601 -18.305  0.00  0.00    -0.340 OA
ATOM      2  O4A NTO d 869     -20.801  18.437 -15.048  0.00  0.00    -0.244 OA
ATOM      3  O32 NTO d 869     -14.966  19.655 -15.583  0.00  0.00    -0.349 OA
ATOM      4  C3F NTO d 869     -15.404  21.840 -16.496  0.00  0.00     0.083 C 
ATOM      5  S17 NTO d 869      -7.228  24.626 -24.830  0.00  0.00     0.251 S 
ATOM      6  C5L NTO d 869     -23.595  16.888 -21.118  0.00  0.00     0.149 C 
ATOM      7  C4F NTO d 869     -20.212  18.456 -17.402  0.00  0.00     0.161 C 
ATOM      8  O14 NTO d 869      -6.845  21.489 -22.268  0.00  0.00    -0.349 OA
ATOM      9  N1F NTO d 869      -6.020  19.051 -19.629  0.00  0.00    -0.210 NA
ATOM     10  O37 NTO d 869     -11.262  16.680 -15.120  0.00  0.00    -0.572 OA
ATOM     11  O5J NTO d 869     -22.438  16.990 -24.010  0.00  0.00    -0.296 OA
ATOM     12  C3L NTO d 869     -16.024  20.555 -15.949  0.00  0.00     0.150 C 
ATOM     13  C29 NTO d 869     -10.906  19.166 -19.674  0.00  0.00     0.110 C 
ATOM     14  S3B NTO d 869     -14.632  23.032 -19.545  0.00  0.00     0.252 S 
ATOM     15  S4B NTO d 869     -20.983  17.314 -14.181  0.00  0.00     0.252 S 
ATOM     16  O24 NTO d 869     -10.265  23.868 -19.766  0.00  0.00    -0.646 OA
ATOM     17  O45 NTO d 869     -16.351  19.102 -19.209  0.00  0.00    -0.646 OA
ATOM     18  C20 NTO d 869      -9.143  20.876 -20.071  0.00  0.00     0.103 C 
ATOM     19  C1E NTO d 869      -5.752  20.033 -20.687  0.00  0.00     0.081 C 
ATOM     20  O3J NTO d 869     -17.497  24.694 -15.373  0.00  0.00    -0.296 OA
ATOM     21  O38 NTO d 869     -10.751  18.505 -13.561  0.00  0.00    -0.572 OA
ATOM     22  O18 NTO d 869      -7.063  23.649 -25.955  0.00  0.00    -0.572 OA
ATOM     23  C31 NTO d 869     -14.227  19.234 -16.741  0.00  0.00     0.091 C 
ATOM     24  O52 NTO d 869     -23.793  18.010 -20.243  0.00  0.00    -0.349 OA
ATOM     25  C46 NTO d 869     -18.539  19.084 -15.642  0.00  0.00     0.094 C 
ATOM     26  O5M NTO d 869     -24.329  15.730 -20.700  0.00  0.00    -0.364 OA
ATOM     27  O3D NTO d 869     -13.950  24.254 -20.084  0.00  0.00    -0.572 OA
ATOM     28  C51 NTO d 869     -23.186  17.830 -18.953  0.00  0.00     0.091 C 
ATOM     29  C5F NTO d 869     -22.109  16.571 -21.297  0.00  0.00     0.081 C 
ATOM     30  C59 NTO d 869     -21.427  16.392 -19.940  0.00  0.00     0.083 C 
ATOM     31  C21 NTO d 869      -9.772  21.683 -18.946  0.00  0.00     0.152 C 
ATOM     32  C26 NTO d 869      -9.397  19.399 -19.776  0.00  0.00     0.092 C 
ATOM     33  O47 NTO d 869     -18.126  18.847 -14.293  0.00  0.00    -0.390 OA
ATOM     34  O1J NTO d 869      -5.159  16.882 -18.601  0.00  0.00    -0.296 OA
ATOM     35  C5N NTO d 869     -25.674  15.836 -21.178  0.00  0.00     0.007 C 
ATOM     36  O3K NTO d 869     -16.670  22.710 -14.225  0.00  0.00    -0.296 OA
ATOM     37  O5I NTO d 869     -20.228  15.942 -23.878  0.00  0.00    -0.296 OA
ATOM     38  S5H NTO d 869     -21.697  15.733 -23.663  0.00  0.00     0.156 S 
ATOM     39  C39 NTO d 869     -14.636  21.480 -17.769  0.00  0.00     0.108 C 
ATOM     40  C1K NTO d 869      -7.092  20.541 -21.219  0.00  0.00     0.150 C 
ATOM     41  C2C NTO d 869     -11.527  20.101 -18.632  0.00  0.00     0.160 C 
ATOM     42  O19 NTO d 869      -6.110  25.625 -24.859  0.00  0.00    -0.572 OA
ATOM     43  N5G NTO d 869     -21.956  15.347 -22.099  0.00  0.00    -0.210 NA
ATOM     44  C33 NTO d 869     -13.131  18.251 -16.316  0.00  0.00     0.067 C 
ATOM     45  O2D NTO d 869     -12.954  19.933 -18.656  0.00  0.00    -0.348 OA
ATOM     46  C12 NTO d 869      -4.835  22.315 -21.151  0.00  0.00     0.089 C 
ATOM     47  C49 NTO d 869     -19.737  18.192 -15.970  0.00  0.00     0.134 C 
ATOM     48  C53 NTO d 869     -23.446  19.106 -18.149  0.00  0.00     0.067 C 
ATOM     49  O4D NTO d 869     -19.895  17.292 -13.150  0.00  0.00    -0.572 OA
ATOM     50  O3I NTO d 869     -18.709  22.574 -15.582  0.00  0.00    -0.296 OA
ATOM     51  O10 NTO d 869      -4.298  23.481 -20.523  0.00  0.00    -0.390 OA
ATOM     52  O1A NTO d 869      -8.542  25.332 -24.977  0.00  0.00    -0.572 OA
ATOM     53  O5K NTO d 869     -22.185  14.623 -24.546  0.00  0.00    -0.296 OA
ATOM     54  O16 NTO d 869      -7.213  23.923 -23.583  0.00  0.00    -0.254 OA
ATOM     55  O56 NTO d 869     -21.841  22.086 -17.777  0.00  0.00    -0.572 OA
ATOM     56  C43 NTO d 869     -16.830  17.996 -18.870  0.00  0.00     0.206 C 
ATOM     57  O54 NTO d 869     -22.952  20.247 -18.853  0.00  0.00    -0.254 OA
ATOM     58  S55 NTO d 869     -23.135  21.568 -18.329  0.00  0.00     0.251 S 
ATOM     59  O5A NTO d 869     -20.015  16.257 -20.126  0.00  0.00    -0.391 OA
ATOM     60  O4G NTO d 869     -21.097  17.393 -17.787  0.00  0.00    -0.348 OA
ATOM     61  O3C NTO d 869     -16.079  23.347 -19.306  0.00  0.00    -0.572 OA
ATOM     62  O3M NTO d 869     -16.797  19.982 -17.013  0.00  0.00    -0.348 OA
ATOM     63  O44 NTO d 869     -16.463  16.895 -19.358  0.00  0.00    -0.646 OA
ATOM     64  C23 NTO d 869      -9.429  23.149 -19.169  0.00  0.00     0.206 C 
ATOM     65  C41 NTO d 869     -17.909  17.982 -17.799  0.00  0.00     0.152 C 
ATOM     66  O22 NTO d 869     -11.195  21.472 -18.903  0.00  0.00    -0.340 OA
ATOM     67  O1C NTO d 869      -3.677  20.775 -19.689  0.00  0.00    -0.391 OA
ATOM     68  C15 NTO d 869      -5.976  23.622 -22.933  0.00  0.00     0.067 C 
ATOM     69  N3G NTO d 869     -16.465  22.823 -16.785  0.00  0.00    -0.210 NA
ATOM     70  C40 NTO d 869     -17.390  18.749 -16.590  0.00  0.00     0.103 C 
ATOM     71  S1G NTO d 869      -4.908  17.863 -19.708  0.00  0.00     0.156 S 
ATOM     72  O1L NTO d 869      -7.742  21.182 -20.113  0.00  0.00    -0.348 OA
ATOM     73  O57 NTO d 869     -24.160  21.529 -17.235  0.00  0.00    -0.572 OA
ATOM     74  O34 NTO d 869     -12.183  18.869 -15.440  0.00  0.00    -0.254 OA
ATOM     75  O1H NTO d 869      -3.537  18.455 -19.567  0.00  0.00    -0.296 OA
ATOM     76  O27 NTO d 869      -8.867  18.592 -20.831  0.00  0.00    -0.390 OA
ATOM     77  C50 NTO d 869     -21.684  17.626 -19.076  0.00  0.00     0.095 C 
ATOM     78  O3E NTO d 869     -14.529  21.919 -20.546  0.00  0.00    -0.572 OA
ATOM     79  O25 NTO d 869      -8.317  23.557 -18.759  0.00  0.00    -0.646 OA
ATOM     80  S3H NTO d 869     -17.351  23.204 -15.466  0.00  0.00     0.156 S 
ATOM     81  S35 NTO d 869     -11.022  18.155 -14.993  0.00  0.00     0.251 S 
ATOM     82  O1I NTO d 869      -5.024  17.165 -21.031  0.00  0.00    -0.296 OA
ATOM     83  C13 NTO d 869      -6.196  22.665 -21.758  0.00  0.00     0.090 C 
ATOM     84  O58 NTO d 869     -23.609  22.468 -19.430  0.00  0.00    -0.572 OA
ATOM     85  O3A NTO d 869     -14.010  22.647 -18.314  0.00  0.00    -0.247 OA
ATOM     86  C1B NTO d 869      -4.975  21.211 -20.099  0.00  0.00     0.083 C 
ATOM     87  O4C NTO d 869     -20.946  16.047 -14.985  0.00  0.00    -0.572 OA
ATOM     88  O4E NTO d 869     -22.318  17.434 -13.512  0.00  0.00    -0.572 OA
ATOM     89  O36 NTO d 869      -9.836  18.537 -15.828  0.00  0.00    -0.572 OA
ATOM     90  O2A NTO d 869     -11.152  17.808 -19.307  0.00  0.00    -0.388 OA
ATOM     91  C30 NTO d 869     -13.581  20.414 -17.456  0.00  0.00     0.096 C 
ATOM     92  H   NTO d 869     -14.740  22.277 -15.780  0.00  0.00     0.076 H 
ATOM     93  H   NTO d 869     -23.985  17.173 -22.073  0.00  0.00     0.131 H 
ATOM     94  H   NTO d 869     -20.743  19.383 -17.444  0.00  0.00     0.133 H 
ATOM     95  H   NTO d 869      -6.951  18.656 -19.758  0.00  0.00     0.140 HD
ATOM     96  H   NTO d 869     -22.278  17.212 -24.941  0.00  0.00     0.231 HD
ATOM     97  H   NTO d 869     -16.637  20.742 -15.091  0.00  0.00     0.131 H 
ATOM     98  H   NTO d 869     -11.351  19.372 -20.625  0.00  0.00     0.094 H 
ATOM     99  H   NTO d 869      -9.562  21.112 -21.027  0.00  0.00     0.092 H 
ATOM    100  H   NTO d 869      -5.180  19.582 -21.472  0.00  0.00     0.076 H 
ATOM    101  H   NTO d 869     -18.023  24.919 -14.590  0.00  0.00     0.231 HD
ATOM    102  H   NTO d 869     -14.913  18.766 -17.415  0.00  0.00     0.090 H 
ATOM    103  H   NTO d 869     -18.813  20.112 -15.757  0.00  0.00     0.091 H 
ATOM    104  H   NTO d 869     -23.601  16.967 -18.477  0.00  0.00     0.090 H 
ATOM    105  H   NTO d 869     -21.643  17.389 -21.804  0.00  0.00     0.076 H 
ATOM    106  H   NTO d 869     -21.821  15.518 -19.463  0.00  0.00     0.089 H 
ATOM    107  H   NTO d 869      -9.386  21.368 -17.999  0.00  0.00     0.104 H 
ATOM    108  H   NTO d 869      -8.920  19.133 -18.856  0.00  0.00     0.091 H 
ATOM    109  H   NTO d 869     -17.878  17.915 -14.191  0.00  0.00     0.210 HD
ATOM    110  H   NTO d 869      -5.083  17.334 -17.746  0.00  0.00     0.231 HD
ATOM    111  H   NTO d 869     -26.230  14.976 -20.871  0.00  0.00     0.066 H 
ATOM    112  H   NTO d 869     -25.669  15.896 -22.246  0.00  0.00     0.066 H 
ATOM    113  H   NTO d 869     -26.127  16.717 -20.774  0.00  0.00     0.066 H 
ATOM    114  H   NTO d 869     -17.205  22.941 -13.449  0.00  0.00     0.231 HD
ATOM    115  H   NTO d 869     -20.067  16.172 -24.807  0.00  0.00     0.231 HD
ATOM    116  H   NTO d 869     -15.323  21.089 -18.491  0.00  0.00     0.092 H 
ATOM    117  H   NTO d 869      -7.698  19.752 -21.614  0.00  0.00     0.131 H 
ATOM    118  H   NTO d 869     -11.139  19.852 -17.667  0.00  0.00     0.133 H 
ATOM    119  H   NTO d 869     -22.805  14.788 -22.025  0.00  0.00     0.140 HD
ATOM    120  H   NTO d 869     -12.622  17.901 -17.188  0.00  0.00     0.080 H 
ATOM    121  H   NTO d 869     -13.593  17.441 -15.791  0.00  0.00     0.080 H 
ATOM    122  H   NTO d 869      -4.189  21.970 -21.931  0.00  0.00     0.091 H 
ATOM    123  H   NTO d 869     -19.438  17.168 -15.887  0.00  0.00     0.097 H 
ATOM    124  H   NTO d 869     -22.952  19.034 -17.203  0.00  0.00     0.080 H 
ATOM    125  H   NTO d 869     -24.501  19.218 -18.004  0.00  0.00     0.080 H 
ATOM    126  H   NTO d 869     -19.236  22.799 -14.799  0.00  0.00     0.231 HD
ATOM    127  H   NTO d 869      -4.899  23.776 -19.820  0.00  0.00     0.210 HD
ATOM    128  H   NTO d 869     -22.029  14.856 -25.474  0.00  0.00     0.231 HD
ATOM    129  H   NTO d 869     -19.668  17.053 -20.558  0.00  0.00     0.210 HD
ATOM    130  H   NTO d 869     -18.143  16.976 -17.519  0.00  0.00     0.104 H 
ATOM    131  H   NTO d 869      -3.767  20.076 -19.023  0.00  0.00     0.210 HD
ATOM    132  H   NTO d 869      -5.542  24.529 -22.569  0.00  0.00     0.080 H 
ATOM    133  H   NTO d 869      -5.324  23.152 -23.640  0.00  0.00     0.080 H 
ATOM    134  H   NTO d 869     -17.086  22.433 -17.494  0.00  0.00     0.140 HD
ATOM    135  H   NTO d 869     -16.669  18.135 -16.093  0.00  0.00     0.092 H 
ATOM    136  H   NTO d 869      -3.466  18.905 -18.711  0.00  0.00     0.231 HD
ATOM    137  H   NTO d 869      -9.298  18.830 -21.668  0.00  0.00     0.210 HD
ATOM    138  H   NTO d 869     -21.253  18.503 -19.511  0.00  0.00     0.091 H 
ATOM    139  H   NTO d 869      -5.912  16.783 -21.118  0.00  0.00     0.231 HD
ATOM    140  H   NTO d 869      -6.804  23.107 -20.997  0.00  0.00     0.090 H 
ATOM    141  H   NTO d 869      -5.506  21.594 -19.253  0.00  0.00     0.089 H 
ATOM    142  H   NTO d 869     -10.745  17.628 -18.445  0.00  0.00     0.210 HD
ATOM    143  H   NTO d 869     -12.840  20.867 -16.831  0.00  0.00     0.091 H 
ENDROOT
TORSDOF 46
ENDMDL
MODEL 74
REMARK VINA RESULT:      -4.8      3.357     13.958
REMARK  0 active torsions:
REMARK  status: ('A' for Active; 'I' for Inactive)
REMARK       I    between atoms: O4A_2  and  C49_47 
REMARK       I    between atoms: O4A_2  and  S4B_15 
REMARK       I    between atoms: C3F_4  and  N3G_69 
REMARK       I    between atoms: S17_5  and  O16_54 
REMARK       I    between atoms: C5L_6  and  O5M_26 
REMARK       I    between atoms: C4F_7  and  O4G_60 
REMARK       I    between atoms: N1F_9  and  C1E_19 
REMARK       I    between atoms: N1F_9  and  S1G_71 
REMARK       I    between atoms: O5J_11  and  S5H_38 
REMARK       I    between atoms: C3L_12  and  O3M_62 
REMARK       I    between atoms: C29_13  and  O2A_90 
REMARK       I    between atoms: S3B_14  and  O3A_85 
REMARK       I    between atoms: C20_18  and  O1L_72 
REMARK       I    between atoms: O3J_20  and  S3H_80 
REMARK       I    between atoms: C31_23  and  C33_44 
REMARK       I    between atoms: C46_25  and  O47_33 
REMARK       I    between atoms: O5M_26  and  C5N_35 
REMARK       I    between atoms: C51_28  and  C53_48 
REMARK       I    between atoms: C5F_29  and  N5G_43 
REMARK       I    between atoms: C59_30  and  O5A_59 
REMARK       I    between atoms: C21_31  and  C23_64 
REMARK       I    between atoms: C26_32  and  O27_76 
REMARK       I    between atoms: O1J_34  and  S1G_71 
REMARK       I    between atoms: O3K_36  and  S3H_80 
REMARK       I    between atoms: O5I_37  and  S5H_38 
REMARK       I    between atoms: S5H_38  and  O5K_53 
REMARK       I    between atoms: S5H_38  and  N5G_43 
REMARK       I    between atoms: C39_39  and  O3A_85 
REMARK       I    between atoms: C1K_40  and  O1L_72 
REMARK       I    between atoms: C2C_41  and  O2D_45 
REMARK       I    between atoms: C33_44  and  O34_74 
REMARK       I    between atoms: O2D_45  and  C30_91 
REMARK       I    between atoms: C12_46  and  O10_51 
REMARK       I    between atoms: C53_48  and  O54_57 
REMARK       I    between atoms: O3I_50  and  S3H_80 
REMARK       I    between atoms: O16_54  and  C15_68 
REMARK       I    between atoms: C43_56  and  C41_65 
REMARK       I    between atoms: O54_57  and  S55_58 
REMARK       I    between atoms: O4G_60  and  C50_77 
REMARK       I    between atoms: O3M_62  and  C40_70 
REMARK       I    between atoms: O1C_67  and  C1B_86 
REMARK       I    between atoms: C15_68  and  C13_83 
REMARK       I    between atoms: N3G_69  and  S3H_80 
REMARK       I    between atoms: S1G_71  and  O1H_75 
REMARK       I    between atoms: S1G_71  and  O1I_82 
REMARK       I    between atoms: O34_74  and  S35_81 
ROOT
ATOM      1  O42 NTO d 869     -12.343  19.681 -18.810  0.00  0.00    -0.340 OA
ATOM      2  O4A NTO d 869     -10.975  22.490 -16.874  0.00  0.00    -0.244 OA
ATOM      3  O32 NTO d 869     -16.621  22.392 -18.859  0.00  0.00    -0.349 OA
ATOM      4  C3F NTO d 869     -17.252  20.688 -17.278  0.00  0.00     0.083 C 
ATOM      5  S17 NTO d 869     -25.247  13.184 -22.161  0.00  0.00     0.251 S 
ATOM      6  C5L NTO d 869      -7.433  17.077 -19.156  0.00  0.00     0.149 C 
ATOM      7  C4F NTO d 869     -11.361  20.405 -18.054  0.00  0.00     0.161 C 
ATOM      8  O14 NTO d 869     -24.200  16.745 -23.827  0.00  0.00    -0.349 OA
ATOM      9  N1F NTO d 869     -23.882  20.185 -25.116  0.00  0.00    -0.210 NA
ATOM     10  O37 NTO d 869     -18.422  24.443 -22.774  0.00  0.00    -0.572 OA
ATOM     11  O5J NTO d 869      -8.322  14.549 -20.746  0.00  0.00    -0.296 OA
ATOM     12  C3L NTO d 869     -16.117  21.573 -17.792  0.00  0.00     0.150 C 
ATOM     13  C29 NTO d 869     -19.680  19.396 -22.748  0.00  0.00     0.110 C 
ATOM     14  S3B NTO d 869     -18.329  17.560 -17.885  0.00  0.00     0.252 S 
ATOM     15  S4B NTO d 869     -10.319  23.672 -17.340  0.00  0.00     0.252 S 
ATOM     16  O24 NTO d 869     -22.527  17.679 -19.361  0.00  0.00    -0.646 OA
ATOM     17  O45 NTO d 869     -14.933  19.063 -20.060  0.00  0.00    -0.646 OA
ATOM     18  C20 NTO d 869     -22.027  18.658 -22.376  0.00  0.00     0.103 C 
ATOM     19  C1E NTO d 869     -24.533  18.891 -24.878  0.00  0.00     0.081 C 
ATOM     20  O3J NTO d 869     -16.887  20.372 -13.597  0.00  0.00    -0.296 OA
ATOM     21  O38 NTO d 869     -19.848  25.280 -20.961  0.00  0.00    -0.572 OA
ATOM     22  O18 NTO d 869     -24.849  12.533 -23.451  0.00  0.00    -0.572 OA
ATOM     23  C31 NTO d 869     -16.992  21.589 -19.991  0.00  0.00     0.091 C 
ATOM     24  O52 NTO d 869      -7.859  17.441 -17.832  0.00  0.00    -0.349 OA
ATOM     25  C46 NTO d 869     -13.227  22.032 -17.655  0.00  0.00     0.094 C 
ATOM     26  O5M NTO d 869      -6.253  17.780 -19.565  0.00  0.00    -0.364 OA
ATOM     27  O3D NTO d 869     -19.487  16.714 -17.448  0.00  0.00    -0.572 OA
ATOM     28  C51 NTO d 869      -8.375  18.780 -17.757  0.00  0.00     0.091 C 
ATOM     29  C5F NTO d 869      -8.562  17.243 -20.175  0.00  0.00     0.081 C 
ATOM     30  C59 NTO d 869      -9.147  18.654 -20.107  0.00  0.00     0.083 C 
ATOM     31  C21 NTO d 869     -21.938  19.305 -21.003  0.00  0.00     0.152 C 
ATOM     32  C26 NTO d 869     -21.102  19.435 -23.312  0.00  0.00     0.092 C 
ATOM     33  O47 NTO d 869     -13.549  23.418 -17.511  0.00  0.00    -0.390 OA
ATOM     34  O1J NTO d 869     -23.635  22.049 -26.838  0.00  0.00    -0.296 OA
ATOM     35  C5N NTO d 869      -5.106  17.108 -19.036  0.00  0.00     0.007 C 
ATOM     36  O3K NTO d 869     -16.706  22.274 -15.109  0.00  0.00    -0.296 OA
ATOM     37  O5I NTO d 869      -9.743  15.373 -22.562  0.00  0.00    -0.296 OA
ATOM     38  S5H NTO d 869      -8.375  15.436 -21.954  0.00  0.00     0.156 S 
ATOM     39  C39 NTO d 869     -17.671  19.761 -18.420  0.00  0.00     0.108 C 
ATOM     40  C1K NTO d 869     -23.583  18.022 -24.053  0.00  0.00     0.150 C 
ATOM     41  C2C NTO d 869     -19.656  19.922 -21.310  0.00  0.00     0.160 C 
ATOM     42  O19 NTO d 869     -26.707  12.952 -21.907  0.00  0.00    -0.572 OA
ATOM     43  N5G NTO d 869      -8.052  16.977 -21.528  0.00  0.00    -0.210 NA
ATOM     44  C33 NTO d 869     -17.491  22.498 -21.118  0.00  0.00     0.067 C 
ATOM     45  O2D NTO d 869     -18.330  19.756 -20.781  0.00  0.00    -0.348 OA
ATOM     46  C12 NTO d 869     -26.418  17.758 -23.681  0.00  0.00     0.089 C 
ATOM     47  C49 NTO d 869     -11.729  21.886 -17.928  0.00  0.00     0.134 C 
ATOM     48  C53 NTO d 869      -8.818  19.013 -16.310  0.00  0.00     0.067 C 
ATOM     49  O4D NTO d 869     -11.317  24.785 -17.467  0.00  0.00    -0.572 OA
ATOM     50  O3I NTO d 869     -14.785  20.783 -14.788  0.00  0.00    -0.296 OA
ATOM     51  O10 NTO d 869     -27.491  17.986 -22.765  0.00  0.00    -0.390 OA
ATOM     52  O1A NTO d 869     -24.439  12.601 -21.042  0.00  0.00    -0.572 OA
ATOM     53  O5K NTO d 869      -7.356  14.961 -22.948  0.00  0.00    -0.296 OA
ATOM     54  O16 NTO d 869     -24.990  14.591 -22.239  0.00  0.00    -0.254 OA
ATOM     55  O56 NTO d 869     -11.691  18.493 -14.559  0.00  0.00    -0.572 OA
ATOM     56  C43 NTO d 869     -13.997  19.712 -20.579  0.00  0.00     0.206 C 
ATOM     57  O54 NTO d 869      -9.764  18.019 -15.914  0.00  0.00    -0.254 OA
ATOM     58  S55 NTO d 869     -10.279  17.989 -14.577  0.00  0.00     0.251 S 
ATOM     59  O5A NTO d 869     -10.301  18.736 -20.950  0.00  0.00    -0.391 OA
ATOM     60  O4G NTO d 869     -10.050  20.313 -18.630  0.00  0.00    -0.348 OA
ATOM     61  O3C NTO d 869     -17.236  17.456 -16.863  0.00  0.00    -0.572 OA
ATOM     62  O3M NTO d 869     -15.102  20.694 -18.297  0.00  0.00    -0.348 OA
ATOM     63  O44 NTO d 869     -13.751  19.720 -21.813  0.00  0.00    -0.646 OA
ATOM     64  C23 NTO d 869     -22.939  18.612 -20.090  0.00  0.00     0.206 C 
ATOM     65  C41 NTO d 869     -13.112  20.545 -19.665  0.00  0.00     0.152 C 
ATOM     66  O22 NTO d 869     -20.599  19.218 -20.485  0.00  0.00    -0.340 OA
ATOM     67  O1C NTO d 869     -26.760  19.834 -24.875  0.00  0.00    -0.391 OA
ATOM     68  C15 NTO d 869     -25.958  15.477 -22.805  0.00  0.00     0.067 C 
ATOM     69  N3G NTO d 869     -16.791  19.909 -16.114  0.00  0.00    -0.210 NA
ATOM     70  C40 NTO d 869     -14.008  21.449 -18.830  0.00  0.00     0.103 C 
ATOM     71  S1G NTO d 869     -24.267  20.708 -26.610  0.00  0.00     0.156 S 
ATOM     72  O1L NTO d 869     -23.394  18.710 -22.808  0.00  0.00    -0.348 OA
ATOM     73  O57 NTO d 869      -9.431  18.861 -13.700  0.00  0.00    -0.572 OA
ATOM     74  O34 NTO d 869     -18.670  23.213 -20.733  0.00  0.00    -0.254 OA
ATOM     75  O1H NTO d 869     -25.758  20.818 -26.730  0.00  0.00    -0.296 OA
ATOM     76  O27 NTO d 869     -21.108  18.837 -24.611  0.00  0.00    -0.390 OA
ATOM     77  C50 NTO d 869      -9.576  18.958 -18.673  0.00  0.00     0.095 C 
ATOM     78  O3E NTO d 869     -17.817  17.063 -19.206  0.00  0.00    -0.572 OA
ATOM     79  O25 NTO d 869     -24.131  18.999 -20.130  0.00  0.00    -0.646 OA
ATOM     80  S3H NTO d 869     -16.282  20.853 -14.882  0.00  0.00     0.156 S 
ATOM     81  S35 NTO d 869     -19.359  24.052 -21.669  0.00  0.00     0.251 S 
ATOM     82  O1I NTO d 869     -23.748  19.731 -27.625  0.00  0.00    -0.296 OA
ATOM     83  C13 NTO d 869     -25.368  16.876 -23.002  0.00  0.00     0.090 C 
ATOM     84  O58 NTO d 869     -10.241  16.579 -14.071  0.00  0.00    -0.572 OA
ATOM     85  O3A NTO d 869     -18.754  18.922 -18.003  0.00  0.00    -0.247 OA
ATOM     86  C1B NTO d 869     -25.819  19.110 -24.080  0.00  0.00     0.083 C 
ATOM     87  O4C NTO d 869      -9.687  23.404 -18.674  0.00  0.00    -0.572 OA
ATOM     88  O4E NTO d 869      -9.254  24.051 -16.357  0.00  0.00    -0.572 OA
ATOM     89  O36 NTO d 869     -20.529  23.316 -22.248  0.00  0.00    -0.572 OA
ATOM     90  O2A NTO d 869     -18.825  20.197 -23.565  0.00  0.00    -0.388 OA
ATOM     91  C30 NTO d 869     -18.088  20.592 -19.638  0.00  0.00     0.096 C 
ATOM     92  H   NTO d 869     -18.086  21.281 -16.965  0.00  0.00     0.076 H 
ATOM     93  H   NTO d 869      -7.177  16.039 -19.118  0.00  0.00     0.131 H 
ATOM     94  H   NTO d 869     -11.348  19.948 -17.086  0.00  0.00     0.133 H 
ATOM     95  H   NTO d 869     -22.871  20.076 -25.043  0.00  0.00     0.140 HD
ATOM     96  H   NTO d 869      -8.515  13.634 -21.008  0.00  0.00     0.231 HD
ATOM     97  H   NTO d 869     -15.725  22.204 -17.021  0.00  0.00     0.131 H 
ATOM     98  H   NTO d 869     -19.337  18.383 -22.746  0.00  0.00     0.094 H 
ATOM     99  H   NTO d 869     -21.722  17.633 -22.365  0.00  0.00     0.092 H 
ATOM    100  H   NTO d 869     -24.765  18.417 -25.809  0.00  0.00     0.076 H 
ATOM    101  H   NTO d 869     -16.584  20.933 -12.866  0.00  0.00     0.231 HD
ATOM    102  H   NTO d 869     -16.127  21.043 -20.302  0.00  0.00     0.090 H 
ATOM    103  H   NTO d 869     -13.483  21.510 -16.757  0.00  0.00     0.091 H 
ATOM    104  H   NTO d 869      -7.619  19.474 -18.060  0.00  0.00     0.090 H 
ATOM    105  H   NTO d 869      -9.338  16.544 -19.943  0.00  0.00     0.076 H 
ATOM    106  H   NTO d 869      -8.406  19.356 -20.429  0.00  0.00     0.089 H 
ATOM    107  H   NTO d 869     -22.176  20.347 -21.065  0.00  0.00     0.104 H 
ATOM    108  H   NTO d 869     -21.442  20.447 -23.388  0.00  0.00     0.091 H 
ATOM    109  H   NTO d 869     -13.317  23.890 -18.327  0.00  0.00     0.210 HD
ATOM    110  H   NTO d 869     -23.970  22.680 -26.182  0.00  0.00     0.231 HD
ATOM    111  H   NTO d 869      -4.219  17.626 -19.336  0.00  0.00     0.066 H 
ATOM    112  H   NTO d 869      -5.076  16.105 -19.407  0.00  0.00     0.066 H 
ATOM    113  H   NTO d 869      -5.164  17.091 -17.967  0.00  0.00     0.066 H 
ATOM    114  H   NTO d 869     -16.399  22.824 -14.372  0.00  0.00     0.231 HD
ATOM    115  H   NTO d 869      -9.941  14.458 -22.818  0.00  0.00     0.231 HD
ATOM    116  H   NTO d 869     -16.840  19.142 -18.688  0.00  0.00     0.092 H 
ATOM    117  H   NTO d 869     -22.647  17.861 -24.547  0.00  0.00     0.131 H 
ATOM    118  H   NTO d 869     -19.929  20.956 -21.312  0.00  0.00     0.133 H 
ATOM    119  H   NTO d 869      -7.043  17.128 -21.544  0.00  0.00     0.140 HD
ATOM    120  H   NTO d 869     -17.713  21.899 -21.975  0.00  0.00     0.080 H 
ATOM    121  H   NTO d 869     -16.724  23.211 -21.338  0.00  0.00     0.080 H 
ATOM    122  H   NTO d 869     -26.767  17.262 -24.562  0.00  0.00     0.091 H 
ATOM    123  H   NTO d 869     -11.495  22.381 -18.847  0.00  0.00     0.097 H 
ATOM    124  H   NTO d 869      -9.268  19.980 -16.231  0.00  0.00     0.080 H 
ATOM    125  H   NTO d 869      -7.962  18.953 -15.671  0.00  0.00     0.080 H 
ATOM    126  H   NTO d 869     -14.481  21.343 -14.057  0.00  0.00     0.231 HD
ATOM    127  H   NTO d 869     -27.153  18.436 -21.976  0.00  0.00     0.210 HD
ATOM    128  H   NTO d 869      -7.552  14.045 -23.199  0.00  0.00     0.231 HD
ATOM    129  H   NTO d 869     -10.966  18.097 -20.651  0.00  0.00     0.210 HD
ATOM    130  H   NTO d 869     -12.434  21.138 -20.243  0.00  0.00     0.104 H 
ATOM    131  H   NTO d 869     -26.380  20.690 -25.127  0.00  0.00     0.210 HD
ATOM    132  H   NTO d 869     -26.800  15.541 -22.148  0.00  0.00     0.080 H 
ATOM    133  H   NTO d 869     -26.256  15.094 -23.759  0.00  0.00     0.080 H 
ATOM    134  H   NTO d 869     -16.018  19.311 -16.408  0.00  0.00     0.140 HD
ATOM    135  H   NTO d 869     -14.367  22.235 -19.461  0.00  0.00     0.092 H 
ATOM    136  H   NTO d 869     -26.089  21.450 -26.073  0.00  0.00     0.231 HD
ATOM    137  H   NTO d 869     -20.801  17.919 -24.547  0.00  0.00     0.210 HD
ATOM    138  H   NTO d 869     -10.354  18.299 -18.350  0.00  0.00     0.091 H 
ATOM    139  H   NTO d 869     -22.784  19.664 -27.544  0.00  0.00     0.231 HD
ATOM    140  H   NTO d 869     -25.098  17.326 -22.069  0.00  0.00     0.090 H 
ATOM    141  H   NTO d 869     -25.593  19.671 -23.197  0.00  0.00     0.089 H 
ATOM    142  H   NTO d 869     -19.141  21.114 -23.563  0.00  0.00     0.210 HD
ATOM    143  H   NTO d 869     -18.991  21.106 -19.385  0.00  0.00     0.091 H 
ENDROOT
TORSDOF 46
ENDMDL
MODEL 75
REMARK VINA RESULT:      -4.8      3.993      5.180
REMARK  0 active torsions:
REMARK  status: ('A' for Active; 'I' for Inactive)
REMARK       I    between atoms: O4A_2  and  C49_47 
REMARK       I    between atoms: O4A_2  and  S4B_15 
REMARK       I    between atoms: C3F_4  and  N3G_69 
REMARK       I    between atoms: S17_5  and  O16_54 
REMARK       I    between atoms: C5L_6  and  O5M_26 
REMARK       I    between atoms: C4F_7  and  O4G_60 
REMARK       I    between atoms: N1F_9  and  C1E_19 
REMARK       I    between atoms: N1F_9  and  S1G_71 
REMARK       I    between atoms: O5J_11  and  S5H_38 
REMARK       I    between atoms: C3L_12  and  O3M_62 
REMARK       I    between atoms: C29_13  and  O2A_90 
REMARK       I    between atoms: S3B_14  and  O3A_85 
REMARK       I    between atoms: C20_18  and  O1L_72 
REMARK       I    between atoms: O3J_20  and  S3H_80 
REMARK       I    between atoms: C31_23  and  C33_44 
REMARK       I    between atoms: C46_25  and  O47_33 
REMARK       I    between atoms: O5M_26  and  C5N_35 
REMARK       I    between atoms: C51_28  and  C53_48 
REMARK       I    between atoms: C5F_29  and  N5G_43 
REMARK       I    between atoms: C59_30  and  O5A_59 
REMARK       I    between atoms: C21_31  and  C23_64 
REMARK       I    between atoms: C26_32  and  O27_76 
REMARK       I    between atoms: O1J_34  and  S1G_71 
REMARK       I    between atoms: O3K_36  and  S3H_80 
REMARK       I    between atoms: O5I_37  and  S5H_38 
REMARK       I    between atoms: S5H_38  and  O5K_53 
REMARK       I    between atoms: S5H_38  and  N5G_43 
REMARK       I    between atoms: C39_39  and  O3A_85 
REMARK       I    between atoms: C1K_40  and  O1L_72 
REMARK       I    between atoms: C2C_41  and  O2D_45 
REMARK       I    between atoms: C33_44  and  O34_74 
REMARK       I    between atoms: O2D_45  and  C30_91 
REMARK       I    between atoms: C12_46  and  O10_51 
REMARK       I    between atoms: C53_48  and  O54_57 
REMARK       I    between atoms: O3I_50  and  S3H_80 
REMARK       I    between atoms: O16_54  and  C15_68 
REMARK       I    between atoms: C43_56  and  C41_65 
REMARK       I    between atoms: O54_57  and  S55_58 
REMARK       I    between atoms: O4G_60  and  C50_77 
REMARK       I    between atoms: O3M_62  and  C40_70 
REMARK       I    between atoms: O1C_67  and  C1B_86 
REMARK       I    between atoms: C15_68  and  C13_83 
REMARK       I    between atoms: N3G_69  and  S3H_80 
REMARK       I    between atoms: S1G_71  and  O1H_75 
REMARK       I    between atoms: S1G_71  and  O1I_82 
REMARK       I    between atoms: O34_74  and  S35_81 
ROOT
ATOM      1  O42 NTO d 869     -21.332  17.964 -21.252  0.00  0.00    -0.340 OA
ATOM      2  O4A NTO d 869     -22.087  19.441 -24.531  0.00  0.00    -0.244 OA
ATOM      3  O32 NTO d 869     -17.557  21.339 -21.111  0.00  0.00    -0.349 OA
ATOM      4  C3F NTO d 869     -16.282  19.337 -21.517  0.00  0.00     0.083 C 
ATOM      5  S17 NTO d 869     -10.123  16.218 -11.698  0.00  0.00     0.251 S 
ATOM      6  C5L NTO d 869     -25.843  14.700 -21.294  0.00  0.00     0.149 C 
ATOM      7  C4F NTO d 869     -22.018  18.109 -22.504  0.00  0.00     0.161 C 
ATOM      8  O14 NTO d 869     -11.942  19.828 -12.156  0.00  0.00    -0.349 OA
ATOM      9  N1F NTO d 869     -12.938  23.342 -12.661  0.00  0.00    -0.210 NA
ATOM     10  O37 NTO d 869     -17.446  25.078 -18.146  0.00  0.00    -0.572 OA
ATOM     11  O5J NTO d 869     -25.425  13.238 -18.574  0.00  0.00    -0.296 OA
ATOM     12  C3L NTO d 869     -17.583  20.084 -21.809  0.00  0.00     0.150 C 
ATOM     13  C29 NTO d 869     -15.927  20.813 -15.586  0.00  0.00     0.110 C 
ATOM     14  S3B NTO d 869     -15.291  16.998 -19.312  0.00  0.00     0.252 S 
ATOM     15  S4B NTO d 869     -22.947  20.539 -24.849  0.00  0.00     0.252 S 
ATOM     16  O24 NTO d 869     -11.935  18.582 -16.853  0.00  0.00    -0.646 OA
ATOM     17  O45 NTO d 869     -19.337  18.451 -19.144  0.00  0.00    -0.646 OA
ATOM     18  C20 NTO d 869     -13.562  20.515 -14.874  0.00  0.00     0.103 C 
ATOM     19  C1E NTO d 869     -12.159  22.230 -12.103  0.00  0.00     0.081 C 
ATOM     20  O3J NTO d 869     -15.261  17.555 -24.610  0.00  0.00    -0.296 OA
ATOM     21  O38 NTO d 869     -15.518  25.437 -19.621  0.00  0.00    -0.572 OA
ATOM     22  O18 NTO d 869     -10.918  16.046 -10.439  0.00  0.00    -0.572 OA
ATOM     23  C31 NTO d 869     -17.570  21.136 -19.689  0.00  0.00     0.091 C 
ATOM     24  O52 NTO d 869     -24.991  14.609 -22.448  0.00  0.00    -0.349 OA
ATOM     25  C46 NTO d 869     -20.249  19.818 -22.993  0.00  0.00     0.094 C 
ATOM     26  O5M NTO d 869     -27.135  15.234 -21.609  0.00  0.00    -0.364 OA
ATOM     27  O3D NTO d 869     -13.998  16.321 -18.966  0.00  0.00    -0.572 OA
ATOM     28  C51 NTO d 869     -24.574  15.892 -22.942  0.00  0.00     0.091 C 
ATOM     29  C5F NTO d 869     -25.176  15.486 -20.164  0.00  0.00     0.081 C 
ATOM     30  C59 NTO d 869     -24.703  16.853 -20.662  0.00  0.00     0.083 C 
ATOM     31  C21 NTO d 869     -13.189  20.547 -16.348  0.00  0.00     0.152 C 
ATOM     32  C26 NTO d 869     -14.814  21.373 -14.698  0.00  0.00     0.092 C 
ATOM     33  O47 NTO d 869     -19.991  21.076 -23.624  0.00  0.00    -0.390 OA
ATOM     34  O1J NTO d 869     -13.920  25.625 -12.090  0.00  0.00    -0.296 OA
ATOM     35  C5N NTO d 869     -27.963  14.179 -22.108  0.00  0.00     0.007 C 
ATOM     36  O3K NTO d 869     -16.107  19.805 -24.213  0.00  0.00    -0.296 OA
ATOM     37  O5I NTO d 869     -24.820  14.985 -16.968  0.00  0.00    -0.296 OA
ATOM     38  S5H NTO d 869     -25.875  14.511 -17.922  0.00  0.00     0.156 S 
ATOM     39  C39 NTO d 869     -16.245  19.037 -20.018  0.00  0.00     0.108 C 
ATOM     40  C1K NTO d 869     -12.684  20.927 -12.708  0.00  0.00     0.150 C 
ATOM     41  C2C NTO d 869     -15.462  20.725 -17.042  0.00  0.00     0.160 C 
ATOM     42  O19 NTO d 869      -8.658  16.228 -11.375  0.00  0.00    -0.572 OA
ATOM     43  N5G NTO d 869     -26.124  15.659 -19.054  0.00  0.00    -0.210 NA
ATOM     44  C33 NTO d 869     -17.577  22.494 -18.981  0.00  0.00     0.067 C 
ATOM     45  O2D NTO d 869     -16.491  20.085 -17.816  0.00  0.00    -0.348 OA
ATOM     46  C12 NTO d 869      -9.896  21.160 -12.057  0.00  0.00     0.089 C 
ATOM     47  C49 NTO d 869     -21.730  19.468 -23.148  0.00  0.00     0.134 C 
ATOM     48  C53 NTO d 869     -23.652  15.639 -24.138  0.00  0.00     0.067 C 
ATOM     49  O4D NTO d 869     -22.141  21.802 -24.929  0.00  0.00    -0.572 OA
ATOM     50  O3I NTO d 869     -17.674  17.929 -24.411  0.00  0.00    -0.296 OA
ATOM     51  O10 NTO d 869      -8.581  21.243 -12.611  0.00  0.00    -0.390 OA
ATOM     52  O1A NTO d 869     -10.427  15.089 -12.635  0.00  0.00    -0.572 OA
ATOM     53  O5K NTO d 869     -27.151  14.249 -17.177  0.00  0.00    -0.296 OA
ATOM     54  O16 NTO d 869     -10.485  17.455 -12.324  0.00  0.00    -0.254 OA
ATOM     55  O56 NTO d 869     -20.311  15.118 -24.533  0.00  0.00    -0.572 OA
ATOM     56  C43 NTO d 869     -20.440  19.031 -19.269  0.00  0.00     0.206 C 
ATOM     57  O54 NTO d 869     -22.562  14.799 -23.756  0.00  0.00    -0.254 OA
ATOM     58  S55 NTO d 869     -21.596  14.367 -24.721  0.00  0.00     0.251 S 
ATOM     59  O5A NTO d 869     -23.943  17.501 -19.637  0.00  0.00    -0.391 OA
ATOM     60  O4G NTO d 869     -23.439  17.965 -22.369  0.00  0.00    -0.348 OA
ATOM     61  O3C NTO d 869     -15.927  16.275 -20.461  0.00  0.00    -0.572 OA
ATOM     62  O3M NTO d 869     -18.649  19.271 -21.301  0.00  0.00    -0.348 OA
ATOM     63  O44 NTO d 869     -21.118  19.461 -18.299  0.00  0.00    -0.646 OA
ATOM     64  C23 NTO d 869     -11.880  19.789 -16.518  0.00  0.00     0.206 C 
ATOM     65  C41 NTO d 869     -20.986  19.235 -20.673  0.00  0.00     0.152 C 
ATOM     66  O22 NTO d 869     -14.239  19.979 -17.151  0.00  0.00    -0.340 OA
ATOM     67  O1C NTO d 869     -10.152  23.557 -11.849  0.00  0.00    -0.391 OA
ATOM     68  C15 NTO d 869      -9.851  18.677 -11.940  0.00  0.00     0.067 C 
ATOM     69  N3G NTO d 869     -16.234  18.090 -22.302  0.00  0.00    -0.210 NA
ATOM     70  C40 NTO d 869     -19.911  19.918 -21.507  0.00  0.00     0.103 C 
ATOM     71  S1G NTO d 869     -13.159  24.471 -11.507  0.00  0.00     0.156 S 
ATOM     72  O1L NTO d 869     -12.452  21.023 -14.120  0.00  0.00    -0.348 OA
ATOM     73  O57 NTO d 869     -22.123  14.628 -26.100  0.00  0.00    -0.572 OA
ATOM     74  O34 NTO d 869     -16.391  23.241 -19.266  0.00  0.00    -0.254 OA
ATOM     75  O1H NTO d 869     -11.825  24.938 -11.006  0.00  0.00    -0.296 OA
ATOM     76  O27 NTO d 869     -15.240  21.339 -13.333  0.00  0.00    -0.390 OA
ATOM     77  C50 NTO d 869     -23.803  16.665 -21.883  0.00  0.00     0.095 C 
ATOM     78  O3E NTO d 869     -16.213  16.952 -18.130  0.00  0.00    -0.572 OA
ATOM     79  O25 NTO d 869     -10.814  20.409 -16.296  0.00  0.00    -0.646 OA
ATOM     80  S3H NTO d 869     -16.323  18.352 -23.912  0.00  0.00     0.156 S 
ATOM     81  S35 NTO d 869     -16.148  24.504 -18.632  0.00  0.00     0.251 S 
ATOM     82  O1I NTO d 869     -13.944  23.874 -10.376  0.00  0.00    -0.296 OA
ATOM     83  C13 NTO d 869     -10.565  19.880 -12.562  0.00  0.00     0.090 C 
ATOM     84  O58 NTO d 869     -21.351  12.899 -24.545  0.00  0.00    -0.572 OA
ATOM     85  O3A NTO d 869     -15.031  18.357 -19.680  0.00  0.00    -0.247 OA
ATOM     86  C1B NTO d 869     -10.689  22.397 -12.489  0.00  0.00     0.083 C 
ATOM     87  O4C NTO d 869     -24.001  20.677 -23.791  0.00  0.00    -0.572 OA
ATOM     88  O4E NTO d 869     -23.604  20.270 -26.169  0.00  0.00    -0.572 OA
ATOM     89  O36 NTO d 869     -15.222  24.320 -17.468  0.00  0.00    -0.572 OA
ATOM     90  O2A NTO d 869     -17.073  21.662 -15.500  0.00  0.00    -0.388 OA
ATOM     91  C30 NTO d 869     -16.356  20.342 -19.223  0.00  0.00     0.096 C 
ATOM     92  H   NTO d 869     -15.433  19.929 -21.792  0.00  0.00     0.076 H 
ATOM     93  H   NTO d 869     -25.998  13.699 -20.950  0.00  0.00     0.131 H 
ATOM     94  H   NTO d 869     -21.647  17.324 -23.129  0.00  0.00     0.133 H 
ATOM     95  H   NTO d 869     -13.844  22.998 -12.980  0.00  0.00     0.140 HD
ATOM     96  H   NTO d 869     -25.279  12.561 -17.895  0.00  0.00     0.231 HD
ATOM     97  H   NTO d 869     -17.709  20.268 -22.856  0.00  0.00     0.131 H 
ATOM     98  H   NTO d 869     -16.177  19.830 -15.247  0.00  0.00     0.094 H 
ATOM     99  H   NTO d 869     -13.772  19.525 -14.527  0.00  0.00     0.092 H 
ATOM    100  H   NTO d 869     -12.250  22.215 -11.036  0.00  0.00     0.076 H 
ATOM    101  H   NTO d 869     -15.314  17.711 -25.566  0.00  0.00     0.231 HD
ATOM    102  H   NTO d 869     -18.450  20.579 -19.446  0.00  0.00     0.090 H 
ATOM    103  H   NTO d 869     -19.649  19.059 -23.449  0.00  0.00     0.091 H 
ATOM    104  H   NTO d 869     -25.433  16.468 -23.215  0.00  0.00     0.090 H 
ATOM    105  H   NTO d 869     -24.324  14.937 -19.822  0.00  0.00     0.076 H 
ATOM    106  H   NTO d 869     -25.556  17.446 -20.919  0.00  0.00     0.089 H 
ATOM    107  H   NTO d 869     -13.061  21.556 -16.679  0.00  0.00     0.104 H 
ATOM    108  H   NTO d 869     -14.595  22.384 -14.974  0.00  0.00     0.091 H 
ATOM    109  H   NTO d 869     -20.535  21.764 -23.209  0.00  0.00     0.210 HD
ATOM    110  H   NTO d 869     -13.412  26.011 -12.821  0.00  0.00     0.231 HD
ATOM    111  H   NTO d 869     -28.932  14.568 -22.346  0.00  0.00     0.066 H 
ATOM    112  H   NTO d 869     -28.058  13.416 -21.364  0.00  0.00     0.066 H 
ATOM    113  H   NTO d 869     -27.519  13.764 -22.989  0.00  0.00     0.066 H 
ATOM    114  H   NTO d 869     -16.162  19.948 -25.171  0.00  0.00     0.231 HD
ATOM    115  H   NTO d 869     -24.668  14.306 -16.292  0.00  0.00     0.231 HD
ATOM    116  H   NTO d 869     -17.072  18.406 -19.769  0.00  0.00     0.092 H 
ATOM    117  H   NTO d 869     -13.721  20.771 -12.499  0.00  0.00     0.131 H 
ATOM    118  H   NTO d 869     -15.279  21.712 -17.410  0.00  0.00     0.133 H 
ATOM    119  H   NTO d 869     -27.077  15.583 -19.409  0.00  0.00     0.140 HD
ATOM    120  H   NTO d 869     -17.643  22.335 -17.925  0.00  0.00     0.080 H 
ATOM    121  H   NTO d 869     -18.419  23.052 -19.335  0.00  0.00     0.080 H 
ATOM    122  H   NTO d 869      -9.859  21.130 -10.988  0.00  0.00     0.091 H 
ATOM    123  H   NTO d 869     -22.315  20.217 -22.655  0.00  0.00     0.097 H 
ATOM    124  H   NTO d 869     -23.270  16.573 -24.492  0.00  0.00     0.080 H 
ATOM    125  H   NTO d 869     -24.211  15.153 -24.911  0.00  0.00     0.080 H 
ATOM    126  H   NTO d 869     -17.728  18.084 -25.366  0.00  0.00     0.231 HD
ATOM    127  H   NTO d 869      -8.639  21.269 -13.578  0.00  0.00     0.210 HD
ATOM    128  H   NTO d 869     -26.998  13.566 -16.506  0.00  0.00     0.231 HD
ATOM    129  H   NTO d 869     -23.173  16.956 -19.412  0.00  0.00     0.210 HD
ATOM    130  H   NTO d 869     -21.866  19.843 -20.646  0.00  0.00     0.104 H 
ATOM    131  H   NTO d 869     -10.655  24.340 -12.123  0.00  0.00     0.210 HD
ATOM    132  H   NTO d 869      -8.834  18.663 -12.272  0.00  0.00     0.080 H 
ATOM    133  H   NTO d 869      -9.895  18.766 -10.875  0.00  0.00     0.080 H 
ATOM    134  H   NTO d 869     -17.019  17.500 -22.024  0.00  0.00     0.140 HD
ATOM    135  H   NTO d 869     -19.861  20.944 -21.208  0.00  0.00     0.092 H 
ATOM    136  H   NTO d 869     -11.321  25.323 -11.740  0.00  0.00     0.231 HD
ATOM    137  H   NTO d 869     -15.440  20.425 -13.079  0.00  0.00     0.210 HD
ATOM    138  H   NTO d 869     -22.918  16.117 -21.635  0.00  0.00     0.091 H 
ATOM    139  H   NTO d 869     -14.806  23.574 -10.704  0.00  0.00     0.231 HD
ATOM    140  H   NTO d 869     -10.507  19.866 -13.631  0.00  0.00     0.090 H 
ATOM    141  H   NTO d 869     -10.616  22.511 -13.550  0.00  0.00     0.089 H 
ATOM    142  H   NTO d 869     -16.840  22.552 -15.808  0.00  0.00     0.210 HD
ATOM    143  H   NTO d 869     -15.460  20.901 -19.392  0.00  0.00     0.091 H 
ENDROOT
TORSDOF 46
ENDMDL
MODEL 76
REMARK VINA RESULT:      -4.8      3.686      6.382
REMARK  0 active torsions:
REMARK  status: ('A' for Active; 'I' for Inactive)
REMARK       I    between atoms: O4A_2  and  C49_47 
REMARK       I    between atoms: O4A_2  and  S4B_15 
REMARK       I    between atoms: C3F_4  and  N3G_69 
REMARK       I    between atoms: S17_5  and  O16_54 
REMARK       I    between atoms: C5L_6  and  O5M_26 
REMARK       I    between atoms: C4F_7  and  O4G_60 
REMARK       I    between atoms: N1F_9  and  C1E_19 
REMARK       I    between atoms: N1F_9  and  S1G_71 
REMARK       I    between atoms: O5J_11  and  S5H_38 
REMARK       I    between atoms: C3L_12  and  O3M_62 
REMARK       I    between atoms: C29_13  and  O2A_90 
REMARK       I    between atoms: S3B_14  and  O3A_85 
REMARK       I    between atoms: C20_18  and  O1L_72 
REMARK       I    between atoms: O3J_20  and  S3H_80 
REMARK       I    between atoms: C31_23  and  C33_44 
REMARK       I    between atoms: C46_25  and  O47_33 
REMARK       I    between atoms: O5M_26  and  C5N_35 
REMARK       I    between atoms: C51_28  and  C53_48 
REMARK       I    between atoms: C5F_29  and  N5G_43 
REMARK       I    between atoms: C59_30  and  O5A_59 
REMARK       I    between atoms: C21_31  and  C23_64 
REMARK       I    between atoms: C26_32  and  O27_76 
REMARK       I    between atoms: O1J_34  and  S1G_71 
REMARK       I    between atoms: O3K_36  and  S3H_80 
REMARK       I    between atoms: O5I_37  and  S5H_38 
REMARK       I    between atoms: S5H_38  and  O5K_53 
REMARK       I    between atoms: S5H_38  and  N5G_43 
REMARK       I    between atoms: C39_39  and  O3A_85 
REMARK       I    between atoms: C1K_40  and  O1L_72 
REMARK       I    between atoms: C2C_41  and  O2D_45 
REMARK       I    between atoms: C33_44  and  O34_74 
REMARK       I    between atoms: O2D_45  and  C30_91 
REMARK       I    between atoms: C12_46  and  O10_51 
REMARK       I    between atoms: C53_48  and  O54_57 
REMARK       I    between atoms: O3I_50  and  S3H_80 
REMARK       I    between atoms: O16_54  and  C15_68 
REMARK       I    between atoms: C43_56  and  C41_65 
REMARK       I    between atoms: O54_57  and  S55_58 
REMARK       I    between atoms: O4G_60  and  C50_77 
REMARK       I    between atoms: O3M_62  and  C40_70 
REMARK       I    between atoms: O1C_67  and  C1B_86 
REMARK       I    between atoms: C15_68  and  C13_83 
REMARK       I    between atoms: N3G_69  and  S3H_80 
REMARK       I    between atoms: S1G_71  and  O1H_75 
REMARK       I    between atoms: S1G_71  and  O1I_82 
REMARK       I    between atoms: O34_74  and  S35_81 
ROOT
ATOM      1  O42 NTO d 869     -21.299  18.418 -20.229  0.00  0.00    -0.340 OA
ATOM      2  O4A NTO d 869     -24.218  18.900 -18.047  0.00  0.00    -0.244 OA
ATOM      3  O32 NTO d 869     -18.687  20.524 -16.435  0.00  0.00    -0.349 OA
ATOM      4  C3F NTO d 869     -18.665  22.358 -17.995  0.00  0.00     0.083 C 
ATOM      5  S17 NTO d 869      -7.686  23.789 -22.632  0.00  0.00     0.251 S 
ATOM      6  C5L NTO d 869     -24.199  15.619 -24.072  0.00  0.00     0.149 C 
ATOM      7  C4F NTO d 869     -22.686  18.391 -19.860  0.00  0.00     0.161 C 
ATOM      8  O14 NTO d 869      -8.472  21.442 -19.404  0.00  0.00    -0.349 OA
ATOM      9  N1F NTO d 869      -8.881  19.832 -16.112  0.00  0.00    -0.210 NA
ATOM     10  O37 NTO d 869     -15.574  18.143 -13.710  0.00  0.00    -0.572 OA
ATOM     11  O5J NTO d 869     -21.925  15.114 -26.141  0.00  0.00    -0.296 OA
ATOM     12  C3L NTO d 869     -19.477  21.194 -17.431  0.00  0.00     0.150 C 
ATOM     13  C29 NTO d 869     -13.285  19.443 -18.196  0.00  0.00     0.110 C 
ATOM     14  S3B NTO d 869     -16.655  22.827 -20.652  0.00  0.00     0.252 S 
ATOM     15  S4B NTO d 869     -24.767  18.014 -17.067  0.00  0.00     0.252 S 
ATOM     16  O24 NTO d 869     -12.594  24.014 -19.269  0.00  0.00    -0.646 OA
ATOM     17  O45 NTO d 869     -18.414  18.951 -20.017  0.00  0.00    -0.646 OA
ATOM     18  C20 NTO d 869     -11.493  21.168 -18.272  0.00  0.00     0.103 C 
ATOM     19  C1E NTO d 869      -8.174  20.541 -17.186  0.00  0.00     0.081 C 
ATOM     20  O3J NTO d 869     -20.992  25.177 -18.642  0.00  0.00    -0.296 OA
ATOM     21  O38 NTO d 869     -15.744  20.340 -12.630  0.00  0.00    -0.572 OA
ATOM     22  O18 NTO d 869      -7.075  22.585 -23.282  0.00  0.00    -0.572 OA
ATOM     23  C31 NTO d 869     -17.534  19.905 -17.026  0.00  0.00     0.091 C 
ATOM     24  O52 NTO d 869     -24.733  16.898 -23.691  0.00  0.00    -0.349 OA
ATOM     25  C46 NTO d 869     -21.907  19.602 -17.806  0.00  0.00     0.094 C 
ATOM     26  O5M NTO d 869     -25.059  14.534 -23.700  0.00  0.00    -0.364 OA
ATOM     27  O3D NTO d 869     -15.790  23.938 -21.168  0.00  0.00    -0.572 OA
ATOM     28  C51 NTO d 869     -24.733  17.106 -22.269  0.00  0.00     0.091 C 
ATOM     29  C5F NTO d 869     -22.783  15.417 -23.530  0.00  0.00     0.081 C 
ATOM     30  C59 NTO d 869     -22.743  15.650 -22.019  0.00  0.00     0.083 C 
ATOM     31  C21 NTO d 869     -12.528  22.162 -17.767  0.00  0.00     0.152 C 
ATOM     32  C26 NTO d 869     -11.872  19.793 -17.725  0.00  0.00     0.092 C 
ATOM     33  O47 NTO d 869     -22.108  19.750 -16.398  0.00  0.00    -0.390 OA
ATOM     34  O1J NTO d 869      -8.569  18.084 -14.282  0.00  0.00    -0.296 OA
ATOM     35  C5N NTO d 869     -26.073  14.383 -24.699  0.00  0.00     0.007 C 
ATOM     36  O3K NTO d 869     -20.760  23.634 -16.771  0.00  0.00    -0.296 OA
ATOM     37  O5I NTO d 869     -19.995  14.359 -24.835  0.00  0.00    -0.296 OA
ATOM     38  S5H NTO d 869     -21.420  14.064 -25.197  0.00  0.00     0.156 S 
ATOM     39  C39 NTO d 869     -17.435  21.772 -18.691  0.00  0.00     0.108 C 
ATOM     40  C1K NTO d 869      -9.155  20.764 -18.338  0.00  0.00     0.150 C 
ATOM     41  C2C NTO d 869     -14.274  20.540 -17.793  0.00  0.00     0.160 C 
ATOM     42  O19 NTO d 869      -6.646  24.856 -22.464  0.00  0.00    -0.572 OA
ATOM     43  N5G NTO d 869     -22.323  14.055 -23.838  0.00  0.00    -0.210 NA
ATOM     44  C33 NTO d 869     -16.737  19.173 -15.942  0.00  0.00     0.067 C 
ATOM     45  O2D NTO d 869     -15.560  20.230 -18.357  0.00  0.00    -0.348 OA
ATOM     46  C12 NTO d 869      -7.113  22.717 -17.823  0.00  0.00     0.089 C 
ATOM     47  C49 NTO d 869     -22.867  18.540 -18.346  0.00  0.00     0.134 C 
ATOM     48  C53 NTO d 869     -25.289  18.509 -22.017  0.00  0.00     0.067 C 
ATOM     49  O4D NTO d 869     -24.218  18.358 -15.714  0.00  0.00    -0.572 OA
ATOM     50  O3I NTO d 869     -22.033  22.962 -18.757  0.00  0.00    -0.296 OA
ATOM     51  O10 NTO d 869      -6.875  24.050 -17.366  0.00  0.00    -0.390 OA
ATOM     52  O1A NTO d 869      -8.803  24.302 -23.490  0.00  0.00    -0.572 OA
ATOM     53  O5K NTO d 869     -21.505  12.726 -25.870  0.00  0.00    -0.296 OA
ATOM     54  O16 NTO d 869      -8.211  23.423 -21.351  0.00  0.00    -0.254 OA
ATOM     55  O56 NTO d 869     -23.948  21.633 -21.828  0.00  0.00    -0.572 OA
ATOM     56  C43 NTO d 869     -19.008  17.922 -19.622  0.00  0.00     0.206 C 
ATOM     57  O54 NTO d 869     -24.526  19.483 -22.731  0.00  0.00    -0.254 OA
ATOM     58  S55 NTO d 869     -24.894  20.867 -22.705  0.00  0.00     0.251 S 
ATOM     59  O5A NTO d 869     -21.387  15.616 -21.564  0.00  0.00    -0.391 OA
ATOM     60  O4G NTO d 869     -23.340  17.184 -20.276  0.00  0.00    -0.348 OA
ATOM     61  O3C NTO d 869     -18.062  23.044 -21.124  0.00  0.00    -0.572 OA
ATOM     62  O3M NTO d 869     -19.735  20.301 -18.523  0.00  0.00    -0.348 OA
ATOM     63  O44 NTO d 869     -18.486  16.777 -19.602  0.00  0.00    -0.646 OA
ATOM     64  C23 NTO d 869     -12.100  23.553 -18.212  0.00  0.00     0.206 C 
ATOM     65  C41 NTO d 869     -20.440  18.067 -19.130  0.00  0.00     0.152 C 
ATOM     66  O22 NTO d 869     -13.838  21.827 -18.259  0.00  0.00    -0.340 OA
ATOM     67  O1C NTO d 869      -6.707  21.712 -15.661  0.00  0.00    -0.391 OA
ATOM     68  C15 NTO d 869      -7.371  23.418 -20.195  0.00  0.00     0.067 C 
ATOM     69  N3G NTO d 869     -19.487  23.127 -18.947  0.00  0.00    -0.210 NA
ATOM     70  C40 NTO d 869     -20.470  19.158 -18.069  0.00  0.00     0.103 C 
ATOM     71  S1G NTO d 869      -7.858  18.779 -15.405  0.00  0.00     0.156 S 
ATOM     72  O1L NTO d 869     -10.203  21.592 -17.813  0.00  0.00    -0.348 OA
ATOM     73  O57 NTO d 869     -26.286  20.998 -22.163  0.00  0.00    -0.572 OA
ATOM     74  O34 NTO d 869     -16.239  20.080 -14.954  0.00  0.00    -0.254 OA
ATOM     75  O1H NTO d 869      -6.667  19.522 -14.876  0.00  0.00    -0.296 OA
ATOM     76  O27 NTO d 869     -10.957  18.806 -18.210  0.00  0.00    -0.390 OA
ATOM     77  C50 NTO d 869     -23.323  17.028 -21.702  0.00  0.00     0.095 C 
ATOM     78  O3E NTO d 869     -16.155  21.515 -21.183  0.00  0.00    -0.572 OA
ATOM     79  O25 NTO d 869     -11.260  24.159 -17.506  0.00  0.00    -0.646 OA
ATOM     80  S3H NTO d 869     -20.843  23.733 -18.265  0.00  0.00     0.156 S 
ATOM     81  S35 NTO d 869     -15.388  19.620 -13.896  0.00  0.00     0.251 S 
ATOM     82  O1I NTO d 869      -7.413  17.766 -16.419  0.00  0.00    -0.296 OA
ATOM     83  C13 NTO d 869      -8.083  22.767 -19.006  0.00  0.00     0.090 C 
ATOM     84  O58 NTO d 869     -24.842  21.413 -24.099  0.00  0.00    -0.572 OA
ATOM     85  O3A NTO d 869     -16.619  22.823 -19.221  0.00  0.00    -0.247 OA
ATOM     86  C1B NTO d 869      -7.702  21.900 -16.670  0.00  0.00     0.083 C 
ATOM     87  O4C NTO d 869     -24.412  16.598 -17.413  0.00  0.00    -0.572 OA
ATOM     88  O4E NTO d 869     -26.258  18.163 -17.066  0.00  0.00    -0.572 OA
ATOM     89  O36 NTO d 869     -13.955  19.900 -14.236  0.00  0.00    -0.572 OA
ATOM     90  O2A NTO d 869     -13.683  18.201 -17.613  0.00  0.00    -0.388 OA
ATOM     91  C30 NTO d 869     -16.628  20.928 -17.699  0.00  0.00     0.096 C 
ATOM     92  H   NTO d 869     -18.359  23.024 -17.215  0.00  0.00     0.076 H 
ATOM     93  H   NTO d 869     -24.144  15.617 -25.140  0.00  0.00     0.131 H 
ATOM     94  H   NTO d 869     -23.135  19.221 -20.364  0.00  0.00     0.133 H 
ATOM     95  H   NTO d 869      -9.675  19.325 -16.503  0.00  0.00     0.140 HD
ATOM     96  H   NTO d 869     -21.383  15.113 -26.946  0.00  0.00     0.231 HD
ATOM     97  H   NTO d 869     -20.392  21.526 -16.986  0.00  0.00     0.131 H 
ATOM     98  H   NTO d 869     -13.282  19.360 -19.262  0.00  0.00     0.094 H 
ATOM     99  H   NTO d 869     -11.464  21.116 -19.341  0.00  0.00     0.092 H 
ATOM    100  H   NTO d 869      -7.331  19.969 -17.514  0.00  0.00     0.076 H 
ATOM    101  H   NTO d 869     -21.797  25.536 -18.237  0.00  0.00     0.231 HD
ATOM    102  H   NTO d 869     -17.877  19.217 -17.771  0.00  0.00     0.090 H 
ATOM    103  H   NTO d 869     -22.091  20.536 -18.294  0.00  0.00     0.091 H 
ATOM    104  H   NTO d 869     -25.323  16.350 -21.795  0.00  0.00     0.090 H 
ATOM    105  H   NTO d 869     -22.133  16.127 -23.999  0.00  0.00     0.076 H 
ATOM    106  H   NTO d 869     -23.315  14.888 -21.533  0.00  0.00     0.089 H 
ATOM    107  H   NTO d 869     -12.584  22.132 -16.699  0.00  0.00     0.104 H 
ATOM    108  H   NTO d 869     -11.833  19.813 -16.655  0.00  0.00     0.091 H 
ATOM    109  H   NTO d 869     -21.941  18.902 -15.957  0.00  0.00     0.210 HD
ATOM    110  H   NTO d 869      -8.856  18.739 -13.627  0.00  0.00     0.231 HD
ATOM    111  H   NTO d 869     -26.720  13.574 -24.430  0.00  0.00     0.066 H 
ATOM    112  H   NTO d 869     -25.615  14.175 -25.643  0.00  0.00     0.066 H 
ATOM    113  H   NTO d 869     -26.641  15.287 -24.769  0.00  0.00     0.066 H 
ATOM    114  H   NTO d 869     -21.569  23.996 -16.378  0.00  0.00     0.231 HD
ATOM    115  H   NTO d 869     -19.453  14.365 -25.640  0.00  0.00     0.231 HD
ATOM    116  H   NTO d 869     -17.757  21.147 -19.499  0.00  0.00     0.092 H 
ATOM    117  H   NTO d 869      -9.548  19.846 -18.721  0.00  0.00     0.131 H 
ATOM    118  H   NTO d 869     -14.335  20.579 -16.726  0.00  0.00     0.133 H 
ATOM    119  H   NTO d 869     -23.132  13.449 -23.975  0.00  0.00     0.140 HD
ATOM    120  H   NTO d 869     -15.911  18.669 -16.398  0.00  0.00     0.080 H 
ATOM    121  H   NTO d 869     -17.390  18.476 -15.459  0.00  0.00     0.080 H 
ATOM    122  H   NTO d 869      -6.203  22.255 -18.144  0.00  0.00     0.091 H 
ATOM    123  H   NTO d 869     -22.647  17.604 -17.877  0.00  0.00     0.097 H 
ATOM    124  H   NTO d 869     -25.243  18.724 -20.970  0.00  0.00     0.080 H 
ATOM    125  H   NTO d 869     -26.304  18.547 -22.355  0.00  0.00     0.080 H 
ATOM    126  H   NTO d 869     -22.839  23.321 -18.353  0.00  0.00     0.231 HD
ATOM    127  H   NTO d 869      -7.712  24.448 -17.081  0.00  0.00     0.210 HD
ATOM    128  H   NTO d 869     -20.967  12.736 -26.677  0.00  0.00     0.231 HD
ATOM    129  H   NTO d 869     -20.878  16.310 -22.010  0.00  0.00     0.210 HD
ATOM    130  H   NTO d 869     -20.786  17.144 -18.714  0.00  0.00     0.104 H 
ATOM    131  H   NTO d 869      -7.081  21.195 -14.930  0.00  0.00     0.210 HD
ATOM    132  H   NTO d 869      -7.118  24.427 -19.942  0.00  0.00     0.080 H 
ATOM    133  H   NTO d 869      -6.488  22.855 -20.416  0.00  0.00     0.080 H 
ATOM    134  H   NTO d 869     -19.756  22.513 -19.717  0.00  0.00     0.140 HD
ATOM    135  H   NTO d 869     -20.037  18.763 -17.175  0.00  0.00     0.092 H 
ATOM    136  H   NTO d 869      -6.959  20.175 -14.221  0.00  0.00     0.231 HD
ATOM    137  H   NTO d 869     -10.988  18.784 -19.180  0.00  0.00     0.210 HD
ATOM    138  H   NTO d 869     -22.735  17.809 -22.138  0.00  0.00     0.091 H 
ATOM    139  H   NTO d 869      -8.186  17.288 -16.758  0.00  0.00     0.231 HD
ATOM    140  H   NTO d 869      -8.949  23.321 -18.712  0.00  0.00     0.090 H 
ATOM    141  H   NTO d 869      -8.535  22.427 -16.253  0.00  0.00     0.089 H 
ATOM    142  H   NTO d 869     -13.683  18.282 -16.647  0.00  0.00     0.210 HD
ATOM    143  H   NTO d 869     -16.214  21.594 -16.971  0.00  0.00     0.091 H 
ENDROOT
TORSDOF 46
ENDMDL
MODEL 77
REMARK VINA RESULT:      -4.8      3.772     14.243
REMARK  0 active torsions:
REMARK  status: ('A' for Active; 'I' for Inactive)
REMARK       I    between atoms: O4A_2  and  C49_47 
REMARK       I    between atoms: O4A_2  and  S4B_15 
REMARK       I    between atoms: C3F_4  and  N3G_69 
REMARK       I    between atoms: S17_5  and  O16_54 
REMARK       I    between atoms: C5L_6  and  O5M_26 
REMARK       I    between atoms: C4F_7  and  O4G_60 
REMARK       I    between atoms: N1F_9  and  C1E_19 
REMARK       I    between atoms: N1F_9  and  S1G_71 
REMARK       I    between atoms: O5J_11  and  S5H_38 
REMARK       I    between atoms: C3L_12  and  O3M_62 
REMARK       I    between atoms: C29_13  and  O2A_90 
REMARK       I    between atoms: S3B_14  and  O3A_85 
REMARK       I    between atoms: C20_18  and  O1L_72 
REMARK       I    between atoms: O3J_20  and  S3H_80 
REMARK       I    between atoms: C31_23  and  C33_44 
REMARK       I    between atoms: C46_25  and  O47_33 
REMARK       I    between atoms: O5M_26  and  C5N_35 
REMARK       I    between atoms: C51_28  and  C53_48 
REMARK       I    between atoms: C5F_29  and  N5G_43 
REMARK       I    between atoms: C59_30  and  O5A_59 
REMARK       I    between atoms: C21_31  and  C23_64 
REMARK       I    between atoms: C26_32  and  O27_76 
REMARK       I    between atoms: O1J_34  and  S1G_71 
REMARK       I    between atoms: O3K_36  and  S3H_80 
REMARK       I    between atoms: O5I_37  and  S5H_38 
REMARK       I    between atoms: S5H_38  and  O5K_53 
REMARK       I    between atoms: S5H_38  and  N5G_43 
REMARK       I    between atoms: C39_39  and  O3A_85 
REMARK       I    between atoms: C1K_40  and  O1L_72 
REMARK       I    between atoms: C2C_41  and  O2D_45 
REMARK       I    between atoms: C33_44  and  O34_74 
REMARK       I    between atoms: O2D_45  and  C30_91 
REMARK       I    between atoms: C12_46  and  O10_51 
REMARK       I    between atoms: C53_48  and  O54_57 
REMARK       I    between atoms: O3I_50  and  S3H_80 
REMARK       I    between atoms: O16_54  and  C15_68 
REMARK       I    between atoms: C43_56  and  C41_65 
REMARK       I    between atoms: O54_57  and  S55_58 
REMARK       I    between atoms: O4G_60  and  C50_77 
REMARK       I    between atoms: O3M_62  and  C40_70 
REMARK       I    between atoms: O1C_67  and  C1B_86 
REMARK       I    between atoms: C15_68  and  C13_83 
REMARK       I    between atoms: N3G_69  and  S3H_80 
REMARK       I    between atoms: S1G_71  and  O1H_75 
REMARK       I    between atoms: S1G_71  and  O1I_82 
REMARK       I    between atoms: O34_74  and  S35_81 
ROOT
ATOM      1  O42 NTO d 869     -11.077  21.955 -20.094  0.00  0.00    -0.340 OA
ATOM      2  O4A NTO d 869      -9.054  22.963 -17.195  0.00  0.00    -0.244 OA
ATOM      3  O32 NTO d 869     -14.758  21.219 -16.693  0.00  0.00    -0.349 OA
ATOM      4  C3F NTO d 869     -14.202  18.926 -17.176  0.00  0.00     0.083 C 
ATOM      5  S17 NTO d 869     -22.927  13.754 -23.596  0.00  0.00     0.251 S 
ATOM      6  C5L NTO d 869      -7.127  23.339 -23.767  0.00  0.00     0.149 C 
ATOM      7  C4F NTO d 869      -9.897  22.380 -19.394  0.00  0.00     0.161 C 
ATOM      8  O14 NTO d 869     -23.342  17.342 -21.723  0.00  0.00    -0.349 OA
ATOM      9  N1F NTO d 869     -24.113  20.234 -19.569  0.00  0.00    -0.210 NA
ATOM     10  O37 NTO d 869     -18.672  23.933 -16.386  0.00  0.00    -0.572 OA
ATOM     11  O5J NTO d 869      -8.583  22.513 -26.396  0.00  0.00    -0.296 OA
ATOM     12  C3L NTO d 869     -13.660  20.343 -16.998  0.00  0.00     0.150 C 
ATOM     13  C29 NTO d 869     -19.276  20.481 -20.229  0.00  0.00     0.110 C 
ATOM     14  S3B NTO d 869     -15.183  17.034 -19.778  0.00  0.00     0.252 S 
ATOM     15  S4B NTO d 869      -8.893  24.261 -16.615  0.00  0.00     0.252 S 
ATOM     16  O24 NTO d 869     -19.439  15.841 -19.246  0.00  0.00    -0.646 OA
ATOM     17  O45 NTO d 869     -13.849  21.059 -20.504  0.00  0.00    -0.646 OA
ATOM     18  C20 NTO d 869     -20.888  18.598 -20.023  0.00  0.00     0.103 C 
ATOM     19  C1E NTO d 869     -24.395  19.025 -20.353  0.00  0.00     0.081 C 
ATOM     20  O3J NTO d 869     -11.717  16.558 -15.762  0.00  0.00    -0.296 OA
ATOM     21  O38 NTO d 869     -18.817  22.465 -14.425  0.00  0.00    -0.572 OA
ATOM     22  O18 NTO d 869     -23.316  14.443 -24.869  0.00  0.00    -0.572 OA
ATOM     23  C31 NTO d 869     -15.660  21.316 -17.807  0.00  0.00     0.091 C 
ATOM     24  O52 NTO d 869      -6.719  22.456 -22.709  0.00  0.00    -0.349 OA
ATOM     25  C46 NTO d 869     -11.290  22.031 -17.339  0.00  0.00     0.094 C 
ATOM     26  O5M NTO d 869      -6.474  24.612 -23.702  0.00  0.00    -0.364 OA
ATOM     27  O3D NTO d 869     -15.792  15.675 -19.955  0.00  0.00    -0.572 OA
ATOM     28  C51 NTO d 869      -7.194  22.870 -21.417  0.00  0.00     0.091 C 
ATOM     29  C5F NTO d 869      -8.649  23.495 -23.813  0.00  0.00     0.081 C 
ATOM     30  C59 NTO d 869      -9.190  23.918 -22.446  0.00  0.00     0.083 C 
ATOM     31  C21 NTO d 869     -20.059  18.109 -18.846  0.00  0.00     0.152 C 
ATOM     32  C26 NTO d 869     -20.755  20.118 -20.081  0.00  0.00     0.092 C 
ATOM     33  O47 NTO d 869     -11.573  22.529 -16.027  0.00  0.00    -0.390 OA
ATOM     34  O1J NTO d 869     -25.072  22.504 -18.917  0.00  0.00    -0.296 OA
ATOM     35  C5N NTO d 869      -5.187  24.506 -24.318  0.00  0.00     0.007 C 
ATOM     36  O3K NTO d 869     -12.609  18.678 -14.958  0.00  0.00    -0.296 OA
ATOM     37  O5I NTO d 869     -10.860  23.393 -26.199  0.00  0.00    -0.296 OA
ATOM     38  S5H NTO d 869      -9.405  23.755 -26.227  0.00  0.00     0.156 S 
ATOM     39  C39 NTO d 869     -15.140  18.936 -18.384  0.00  0.00     0.108 C 
ATOM     40  C1K NTO d 869     -23.078  18.515 -20.937  0.00  0.00     0.150 C 
ATOM     41  C2C NTO d 869     -18.451  19.851 -19.104  0.00  0.00     0.160 C 
ATOM     42  O19 NTO d 869     -23.934  12.692 -23.267  0.00  0.00    -0.572 OA
ATOM     43  N5G NTO d 869      -9.014  24.496 -24.827  0.00  0.00    -0.210 NA
ATOM     44  C33 NTO d 869     -16.796  22.282 -17.458  0.00  0.00     0.067 C 
ATOM     45  O2D NTO d 869     -17.060  20.116 -19.349  0.00  0.00    -0.348 OA
ATOM     46  C12 NTO d 869     -25.119  16.633 -20.203  0.00  0.00     0.089 C 
ATOM     47  C49 NTO d 869     -10.234  22.918 -18.000  0.00  0.00     0.134 C 
ATOM     48  C53 NTO d 869      -6.717  21.827 -20.404  0.00  0.00     0.067 C 
ATOM     49  O4D NTO d 869      -9.857  24.428 -15.478  0.00  0.00    -0.572 OA
ATOM     50  O3I NTO d 869     -10.759  18.664 -16.568  0.00  0.00    -0.296 OA
ATOM     51  O10 NTO d 869     -25.461  15.598 -19.279  0.00  0.00    -0.390 OA
ATOM     52  O1A NTO d 869     -21.573  13.135 -23.761  0.00  0.00    -0.572 OA
ATOM     53  O5K NTO d 869      -9.134  24.676 -27.379  0.00  0.00    -0.296 OA
ATOM     54  O16 NTO d 869     -22.875  14.713 -22.533  0.00  0.00    -0.254 OA
ATOM     55  O56 NTO d 869      -7.957  18.891 -19.208  0.00  0.00    -0.572 OA
ATOM     56  C43 NTO d 869     -13.451  22.246 -20.471  0.00  0.00     0.206 C 
ATOM     57  O54 NTO d 869      -7.167  20.525 -20.782  0.00  0.00    -0.254 OA
ATOM     58  S55 NTO d 869      -6.792  19.371 -20.021  0.00  0.00     0.251 S 
ATOM     59  O5A NTO d 869     -10.620  23.901 -22.470  0.00  0.00    -0.391 OA
ATOM     60  O4G NTO d 869      -9.174  23.395 -20.106  0.00  0.00    -0.348 OA
ATOM     61  O3C NTO d 869     -13.694  16.890 -19.670  0.00  0.00    -0.572 OA
ATOM     62  O3M NTO d 869     -13.073  20.723 -18.250  0.00  0.00    -0.348 OA
ATOM     63  O44 NTO d 869     -13.981  23.181 -21.127  0.00  0.00    -0.646 OA
ATOM     64  C23 NTO d 869     -20.273  16.609 -18.709  0.00  0.00     0.206 C 
ATOM     65  C41 NTO d 869     -12.266  22.578 -19.577  0.00  0.00     0.152 C 
ATOM     66  O22 NTO d 869     -18.669  18.432 -19.034  0.00  0.00    -0.340 OA
ATOM     67  O1C NTO d 869     -26.259  18.367 -18.959  0.00  0.00    -0.391 OA
ATOM     68  C15 NTO d 869     -24.056  15.055 -21.805  0.00  0.00     0.067 C 
ATOM     69  N3G NTO d 869     -13.086  17.987 -17.388  0.00  0.00    -0.210 NA
ATOM     70  C40 NTO d 869     -12.566  22.061 -18.177  0.00  0.00     0.103 C 
ATOM     71  S1G NTO d 869     -25.343  21.287 -19.750  0.00  0.00     0.156 S 
ATOM     72  O1L NTO d 869     -22.246  18.185 -19.816  0.00  0.00    -0.348 OA
ATOM     73  O57 NTO d 869      -5.661  19.728 -19.104  0.00  0.00    -0.572 OA
ATOM     74  O34 NTO d 869     -17.573  21.804 -16.356  0.00  0.00    -0.254 OA
ATOM     75  O1H NTO d 869     -26.621  20.638 -19.310  0.00  0.00    -0.296 OA
ATOM     76  O27 NTO d 869     -21.479  20.629 -21.204  0.00  0.00    -0.390 OA
ATOM     77  C50 NTO d 869      -8.714  22.928 -21.383  0.00  0.00     0.095 C 
ATOM     78  O3E NTO d 869     -15.510  17.887 -20.968  0.00  0.00    -0.572 OA
ATOM     79  O25 NTO d 869     -21.285  16.219 -18.081  0.00  0.00    -0.646 OA
ATOM     80  S3H NTO d 869     -12.024  17.975 -16.147  0.00  0.00     0.156 S 
ATOM     81  S35 NTO d 869     -18.744  22.509 -15.921  0.00  0.00     0.251 S 
ATOM     82  O1I NTO d 869     -25.447  21.682 -21.194  0.00  0.00    -0.296 OA
ATOM     83  C13 NTO d 869     -23.806  16.262 -20.896  0.00  0.00     0.090 C 
ATOM     84  O58 NTO d 869      -6.355  18.288 -20.960  0.00  0.00    -0.572 OA
ATOM     85  O3A NTO d 869     -15.700  17.634 -18.586  0.00  0.00    -0.247 OA
ATOM     86  C1B NTO d 869     -24.977  17.950 -19.435  0.00  0.00     0.083 C 
ATOM     87  O4C NTO d 869      -9.149  25.312 -17.655  0.00  0.00    -0.572 OA
ATOM     88  O4E NTO d 869      -7.487  24.393 -16.115  0.00  0.00    -0.572 OA
ATOM     89  O36 NTO d 869     -19.970  21.863 -16.494  0.00  0.00    -0.572 OA
ATOM     90  O2A NTO d 869     -19.132  21.902 -20.190  0.00  0.00    -0.388 OA
ATOM     91  C30 NTO d 869     -16.257  19.962 -18.167  0.00  0.00     0.096 C 
ATOM     92  H   NTO d 869     -14.735  18.608 -16.304  0.00  0.00     0.076 H 
ATOM     93  H   NTO d 869      -6.818  22.880 -24.683  0.00  0.00     0.131 H 
ATOM     94  H   NTO d 869      -9.282  21.509 -19.310  0.00  0.00     0.133 H 
ATOM     95  H   NTO d 869     -23.247  20.660 -19.900  0.00  0.00     0.140 HD
ATOM     96  H   NTO d 869      -8.821  22.078 -27.231  0.00  0.00     0.231 HD
ATOM     97  H   NTO d 869     -12.940  20.397 -16.207  0.00  0.00     0.131 H 
ATOM     98  H   NTO d 869     -18.921  20.105 -21.165  0.00  0.00     0.094 H 
ATOM     99  H   NTO d 869     -20.557  18.188 -20.954  0.00  0.00     0.092 H 
ATOM    100  H   NTO d 869     -25.094  19.246 -21.134  0.00  0.00     0.076 H 
ATOM    101  H   NTO d 869     -11.086  16.552 -15.025  0.00  0.00     0.231 HD
ATOM    102  H   NTO d 869     -15.105  21.674 -18.648  0.00  0.00     0.090 H 
ATOM    103  H   NTO d 869     -10.927  21.028 -17.269  0.00  0.00     0.091 H 
ATOM    104  H   NTO d 869      -6.819  23.847 -21.193  0.00  0.00     0.090 H 
ATOM    105  H   NTO d 869      -9.082  22.552 -24.071  0.00  0.00     0.076 H 
ATOM    106  H   NTO d 869      -8.837  24.902 -22.220  0.00  0.00     0.089 H 
ATOM    107  H   NTO d 869     -20.367  18.597 -17.944  0.00  0.00     0.104 H 
ATOM    108  H   NTO d 869     -21.152  20.545 -19.183  0.00  0.00     0.091 H 
ATOM    109  H   NTO d 869     -11.902  23.439 -16.091  0.00  0.00     0.210 HD
ATOM    110  H   NTO d 869     -25.005  22.249 -17.984  0.00  0.00     0.231 HD
ATOM    111  H   NTO d 869      -4.691  25.452 -24.275  0.00  0.00     0.066 H 
ATOM    112  H   NTO d 869      -5.304  24.211 -25.340  0.00  0.00     0.066 H 
ATOM    113  H   NTO d 869      -4.603  23.772 -23.801  0.00  0.00     0.066 H 
ATOM    114  H   NTO d 869     -11.971  18.665 -14.228  0.00  0.00     0.231 HD
ATOM    115  H   NTO d 869     -11.098  22.952 -27.030  0.00  0.00     0.231 HD
ATOM    116  H   NTO d 869     -14.581  19.208 -19.256  0.00  0.00     0.092 H 
ATOM    117  H   NTO d 869     -22.603  19.240 -21.566  0.00  0.00     0.131 H 
ATOM    118  H   NTO d 869     -18.753  20.276 -18.170  0.00  0.00     0.133 H 
ATOM    119  H   NTO d 869      -8.224  25.120 -24.984  0.00  0.00     0.140 HD
ATOM    120  H   NTO d 869     -17.433  22.392 -18.310  0.00  0.00     0.080 H 
ATOM    121  H   NTO d 869     -16.364  23.222 -17.181  0.00  0.00     0.080 H 
ATOM    122  H   NTO d 869     -25.880  16.748 -20.947  0.00  0.00     0.091 H 
ATOM    123  H   NTO d 869     -10.626  23.909 -18.096  0.00  0.00     0.097 H 
ATOM    124  H   NTO d 869      -7.108  22.069 -19.439  0.00  0.00     0.080 H 
ATOM    125  H   NTO d 869      -5.647  21.831 -20.379  0.00  0.00     0.080 H 
ATOM    126  H   NTO d 869     -10.128  18.659 -15.832  0.00  0.00     0.231 HD
ATOM    127  H   NTO d 869     -24.759  15.513 -18.616  0.00  0.00     0.210 HD
ATOM    128  H   NTO d 869      -9.368  24.232 -28.210  0.00  0.00     0.231 HD
ATOM    129  H   NTO d 869     -10.929  23.005 -22.676  0.00  0.00     0.210 HD
ATOM    130  H   NTO d 869     -12.106  23.636 -19.548  0.00  0.00     0.104 H 
ATOM    131  H   NTO d 869     -26.168  19.201 -18.472  0.00  0.00     0.210 HD
ATOM    132  H   NTO d 869     -24.352  14.220 -21.204  0.00  0.00     0.080 H 
ATOM    133  H   NTO d 869     -24.828  15.306 -22.503  0.00  0.00     0.080 H 
ATOM    134  H   NTO d 869     -12.590  18.256 -18.239  0.00  0.00     0.140 HD
ATOM    135  H   NTO d 869     -13.287  22.713 -17.730  0.00  0.00     0.092 H 
ATOM    136  H   NTO d 869     -26.550  20.385 -18.376  0.00  0.00     0.231 HD
ATOM    137  H   NTO d 869     -21.123  20.246 -22.021  0.00  0.00     0.210 HD
ATOM    138  H   NTO d 869      -9.098  21.946 -21.564  0.00  0.00     0.091 H 
ATOM    139  H   NTO d 869     -24.618  22.101 -21.475  0.00  0.00     0.231 HD
ATOM    140  H   NTO d 869     -23.075  16.047 -20.145  0.00  0.00     0.090 H 
ATOM    141  H   NTO d 869     -24.319  17.805 -18.604  0.00  0.00     0.089 H 
ATOM    142  H   NTO d 869     -19.456  22.237 -19.340  0.00  0.00     0.210 HD
ATOM    143  H   NTO d 869     -16.875  19.604 -17.370  0.00  0.00     0.091 H 
ENDROOT
TORSDOF 46
ENDMDL
MODEL 78
REMARK VINA RESULT:      -4.7      3.837     13.759
REMARK  0 active torsions:
REMARK  status: ('A' for Active; 'I' for Inactive)
REMARK       I    between atoms: O4A_2  and  C49_47 
REMARK       I    between atoms: O4A_2  and  S4B_15 
REMARK       I    between atoms: C3F_4  and  N3G_69 
REMARK       I    between atoms: S17_5  and  O16_54 
REMARK       I    between atoms: C5L_6  and  O5M_26 
REMARK       I    between atoms: C4F_7  and  O4G_60 
REMARK       I    between atoms: N1F_9  and  C1E_19 
REMARK       I    between atoms: N1F_9  and  S1G_71 
REMARK       I    between atoms: O5J_11  and  S5H_38 
REMARK       I    between atoms: C3L_12  and  O3M_62 
REMARK       I    between atoms: C29_13  and  O2A_90 
REMARK       I    between atoms: S3B_14  and  O3A_85 
REMARK       I    between atoms: C20_18  and  O1L_72 
REMARK       I    between atoms: O3J_20  and  S3H_80 
REMARK       I    between atoms: C31_23  and  C33_44 
REMARK       I    between atoms: C46_25  and  O47_33 
REMARK       I    between atoms: O5M_26  and  C5N_35 
REMARK       I    between atoms: C51_28  and  C53_48 
REMARK       I    between atoms: C5F_29  and  N5G_43 
REMARK       I    between atoms: C59_30  and  O5A_59 
REMARK       I    between atoms: C21_31  and  C23_64 
REMARK       I    between atoms: C26_32  and  O27_76 
REMARK       I    between atoms: O1J_34  and  S1G_71 
REMARK       I    between atoms: O3K_36  and  S3H_80 
REMARK       I    between atoms: O5I_37  and  S5H_38 
REMARK       I    between atoms: S5H_38  and  O5K_53 
REMARK       I    between atoms: S5H_38  and  N5G_43 
REMARK       I    between atoms: C39_39  and  O3A_85 
REMARK       I    between atoms: C1K_40  and  O1L_72 
REMARK       I    between atoms: C2C_41  and  O2D_45 
REMARK       I    between atoms: C33_44  and  O34_74 
REMARK       I    between atoms: O2D_45  and  C30_91 
REMARK       I    between atoms: C12_46  and  O10_51 
REMARK       I    between atoms: C53_48  and  O54_57 
REMARK       I    between atoms: O3I_50  and  S3H_80 
REMARK       I    between atoms: O16_54  and  C15_68 
REMARK       I    between atoms: C43_56  and  C41_65 
REMARK       I    between atoms: O54_57  and  S55_58 
REMARK       I    between atoms: O4G_60  and  C50_77 
REMARK       I    between atoms: O3M_62  and  C40_70 
REMARK       I    between atoms: O1C_67  and  C1B_86 
REMARK       I    between atoms: C15_68  and  C13_83 
REMARK       I    between atoms: N3G_69  and  S3H_80 
REMARK       I    between atoms: S1G_71  and  O1H_75 
REMARK       I    between atoms: S1G_71  and  O1I_82 
REMARK       I    between atoms: O34_74  and  S35_81 
ROOT
ATOM      1  O42 NTO d 869     -13.171  20.707 -16.798  0.00  0.00    -0.340 OA
ATOM      2  O4A NTO d 869     -13.118  22.491 -13.584  0.00  0.00    -0.244 OA
ATOM      3  O32 NTO d 869     -18.060  22.025 -16.928  0.00  0.00    -0.349 OA
ATOM      4  C3F NTO d 869     -18.297  19.681 -16.428  0.00  0.00     0.083 C 
ATOM      5  S17 NTO d 869     -22.522  13.757 -25.975  0.00  0.00     0.251 S 
ATOM      6  C5L NTO d 869      -7.675  19.815 -16.789  0.00  0.00     0.149 C 
ATOM      7  C4F NTO d 869     -12.608  21.192 -15.570  0.00  0.00     0.161 C 
ATOM      8  O14 NTO d 869     -22.511  17.814 -25.673  0.00  0.00    -0.349 OA
ATOM      9  N1F NTO d 869     -23.192  21.419 -25.298  0.00  0.00    -0.210 NA
ATOM     10  O37 NTO d 869     -19.875  25.200 -19.995  0.00  0.00    -0.572 OA
ATOM     11  O5J NTO d 869      -7.426  18.217 -19.453  0.00  0.00    -0.296 OA
ATOM     12  C3L NTO d 869     -17.466  20.942 -16.195  0.00  0.00     0.150 C 
ATOM     13  C29 NTO d 869     -19.350  20.612 -22.387  0.00  0.00     0.110 C 
ATOM     14  S3B NTO d 869     -18.160  17.063 -18.536  0.00  0.00     0.252 S 
ATOM     15  S4B NTO d 869     -12.839  23.869 -13.323  0.00  0.00     0.252 S 
ATOM     16  O24 NTO d 869     -21.900  16.879 -20.943  0.00  0.00    -0.646 OA
ATOM     17  O45 NTO d 869     -15.198  20.167 -18.861  0.00  0.00    -0.646 OA
ATOM     18  C20 NTO d 869     -21.338  19.258 -23.023  0.00  0.00     0.103 C 
ATOM     19  C1E NTO d 869     -23.396  20.055 -25.802  0.00  0.00     0.081 C 
ATOM     20  O3J NTO d 869     -18.371  17.750 -13.258  0.00  0.00    -0.296 OA
ATOM     21  O38 NTO d 869     -21.740  24.714 -18.477  0.00  0.00    -0.572 OA
ATOM     22  O18 NTO d 869     -21.750  13.911 -27.250  0.00  0.00    -0.572 OA
ATOM     23  C31 NTO d 869     -17.975  21.794 -18.343  0.00  0.00     0.091 C 
ATOM     24  O52 NTO d 869      -8.381  19.396 -15.609  0.00  0.00    -0.349 OA
ATOM     25  C46 NTO d 869     -14.949  21.945 -15.080  0.00  0.00     0.094 C 
ATOM     26  O5M NTO d 869      -6.756  20.883 -16.527  0.00  0.00    -0.364 OA
ATOM     27  O3D NTO d 869     -19.015  15.866 -18.826  0.00  0.00    -0.572 OA
ATOM     28  C51 NTO d 869      -9.323  20.374 -15.140  0.00  0.00     0.091 C 
ATOM     29  C5F NTO d 869      -8.638  20.175 -17.922  0.00  0.00     0.081 C 
ATOM     30  C59 NTO d 869      -9.668  21.202 -17.450  0.00  0.00     0.083 C 
ATOM     31  C21 NTO d 869     -21.668  19.176 -21.540  0.00  0.00     0.152 C 
ATOM     32  C26 NTO d 869     -20.607  20.579 -23.259  0.00  0.00     0.092 C 
ATOM     33  O47 NTO d 869     -15.737  22.977 -14.479  0.00  0.00    -0.390 OA
ATOM     34  O1J NTO d 869     -23.346  23.876 -25.962  0.00  0.00    -0.296 OA
ATOM     35  C5N NTO d 869      -5.536  20.331 -16.021  0.00  0.00     0.007 C 
ATOM     36  O3K NTO d 869     -18.629  20.124 -13.743  0.00  0.00    -0.296 OA
ATOM     37  O5I NTO d 869      -8.770  19.445 -21.091  0.00  0.00    -0.296 OA
ATOM     38  S5H NTO d 869      -7.603  19.531 -20.154  0.00  0.00     0.156 S 
ATOM     39  C39 NTO d 869     -18.213  19.339 -17.917  0.00  0.00     0.108 C 
ATOM     40  C1K NTO d 869     -22.335  19.150 -25.174  0.00  0.00     0.150 C 
ATOM     41  C2C NTO d 869     -19.707  20.381 -20.916  0.00  0.00     0.160 C 
ATOM     42  O19 NTO d 869     -23.839  13.097 -26.257  0.00  0.00    -0.572 OA
ATOM     43  N5G NTO d 869      -7.882  20.712 -19.063  0.00  0.00    -0.210 NA
ATOM     44  C33 NTO d 869     -18.587  22.983 -19.091  0.00  0.00     0.067 C 
ATOM     45  O2D NTO d 869     -18.492  20.300 -20.154  0.00  0.00    -0.348 OA
ATOM     46  C12 NTO d 869     -24.938  18.084 -25.753  0.00  0.00     0.089 C 
ATOM     47  C49 NTO d 869     -13.467  22.302 -14.958  0.00  0.00     0.134 C 
ATOM     48  C53 NTO d 869     -10.018  19.781 -13.913  0.00  0.00     0.067 C 
ATOM     49  O4D NTO d 869     -14.125  24.639 -13.257  0.00  0.00    -0.572 OA
ATOM     50  O3I NTO d 869     -16.384  19.158 -13.536  0.00  0.00    -0.296 OA
ATOM     51  O10 NTO d 869     -26.144  17.589 -25.164  0.00  0.00    -0.390 OA
ATOM     52  O1A NTO d 869     -21.732  12.921 -25.015  0.00  0.00    -0.572 OA
ATOM     53  O5K NTO d 869      -6.355  19.840 -20.927  0.00  0.00    -0.296 OA
ATOM     54  O16 NTO d 869     -22.746  15.048 -25.395  0.00  0.00    -0.254 OA
ATOM     55  O56 NTO d 869     -12.765  17.834 -13.408  0.00  0.00    -0.572 OA
ATOM     56  C43 NTO d 869     -14.472  21.184 -18.784  0.00  0.00     0.206 C 
ATOM     57  O54 NTO d 869     -10.620  18.528 -14.239  0.00  0.00    -0.254 OA
ATOM     58  S55 NTO d 869     -11.278  17.746 -13.235  0.00  0.00     0.251 S 
ATOM     59  O5A NTO d 869     -10.650  21.401 -18.471  0.00  0.00    -0.391 OA
ATOM     60  O4G NTO d 869     -11.275  21.696 -15.741  0.00  0.00    -0.348 OA
ATOM     61  O3C NTO d 869     -17.252  16.746 -17.385  0.00  0.00    -0.572 OA
ATOM     62  O3M NTO d 869     -16.154  20.674 -16.709  0.00  0.00    -0.348 OA
ATOM     63  O44 NTO d 869     -14.071  21.835 -19.784  0.00  0.00    -0.646 OA
ATOM     64  C23 NTO d 869     -22.495  17.920 -21.311  0.00  0.00     0.206 C 
ATOM     65  C41 NTO d 869     -14.058  21.665 -17.402  0.00  0.00     0.152 C 
ATOM     66  O22 NTO d 869     -20.464  19.170 -20.752  0.00  0.00    -0.340 OA
ATOM     67  O1C NTO d 869     -25.788  20.331 -26.037  0.00  0.00    -0.391 OA
ATOM     68  C15 NTO d 869     -23.865  15.841 -25.796  0.00  0.00     0.067 C 
ATOM     69  N3G NTO d 869     -17.770  18.576 -15.607  0.00  0.00    -0.210 NA
ATOM     70  C40 NTO d 869     -15.315  21.825 -16.558  0.00  0.00     0.103 C 
ATOM     71  S1G NTO d 869     -23.516  22.482 -26.489  0.00  0.00     0.156 S 
ATOM     72  O1L NTO d 869     -22.567  19.186 -23.759  0.00  0.00    -0.348 OA
ATOM     73  O57 NTO d 869     -10.906  18.269 -11.879  0.00  0.00    -0.572 OA
ATOM     74  O34 NTO d 869     -19.979  23.130 -18.794  0.00  0.00    -0.254 OA
ATOM     75  O1H NTO d 869     -24.923  22.281 -26.966  0.00  0.00    -0.296 OA
ATOM     76  O27 NTO d 869     -20.228  20.687 -24.634  0.00  0.00    -0.390 OA
ATOM     77  C50 NTO d 869     -10.372  20.678 -16.199  0.00  0.00     0.095 C 
ATOM     78  O3E NTO d 869     -17.330  17.389 -19.743  0.00  0.00    -0.572 OA
ATOM     79  O25 NTO d 869     -23.729  17.987 -21.521  0.00  0.00    -0.646 OA
ATOM     80  S3H NTO d 869     -17.788  18.911 -14.008  0.00  0.00     0.156 S 
ATOM     81  S35 NTO d 869     -20.771  24.125 -19.457  0.00  0.00     0.251 S 
ATOM     82  O1I NTO d 869     -22.560  22.257 -27.625  0.00  0.00    -0.296 OA
ATOM     83  C13 NTO d 869     -23.760  17.259 -25.229  0.00  0.00     0.090 C 
ATOM     84  O58 NTO d 869     -10.840  16.319 -13.361  0.00  0.00    -0.572 OA
ATOM     85  O3A NTO d 869     -18.998  18.174 -18.200  0.00  0.00    -0.247 OA
ATOM     86  C1B NTO d 869     -24.780  19.560 -25.379  0.00  0.00     0.083 C 
ATOM     87  O4C NTO d 869     -11.972  24.424 -14.414  0.00  0.00    -0.572 OA
ATOM     88  O4E NTO d 869     -12.115  23.974 -12.015  0.00  0.00    -0.572 OA
ATOM     89  O36 NTO d 869     -21.531  23.501 -20.588  0.00  0.00    -0.572 OA
ATOM     90  O2A NTO d 869     -18.708  21.880 -22.530  0.00  0.00    -0.388 OA
ATOM     91  C30 NTO d 869     -18.710  20.524 -18.752  0.00  0.00     0.096 C 
ATOM     92  H   NTO d 869     -19.317  19.839 -16.147  0.00  0.00     0.076 H 
ATOM     93  H   NTO d 869      -7.092  18.977 -17.109  0.00  0.00     0.131 H 
ATOM     94  H   NTO d 869     -12.579  20.349 -14.912  0.00  0.00     0.133 H 
ATOM     95  H   NTO d 869     -22.224  21.529 -24.995  0.00  0.00     0.140 HD
ATOM     96  H   NTO d 869      -7.261  17.520 -20.108  0.00  0.00     0.231 HD
ATOM     97  H   NTO d 869     -17.422  21.204 -15.158  0.00  0.00     0.131 H 
ATOM     98  H   NTO d 869     -18.689  19.832 -22.704  0.00  0.00     0.094 H 
ATOM     99  H   NTO d 869     -20.710  18.455 -23.347  0.00  0.00     0.092 H 
ATOM    100  H   NTO d 869     -23.321  20.041 -26.869  0.00  0.00     0.076 H 
ATOM    101  H   NTO d 869     -18.381  17.951 -12.309  0.00  0.00     0.231 HD
ATOM    102  H   NTO d 869     -16.942  21.682 -18.595  0.00  0.00     0.090 H 
ATOM    103  H   NTO d 869     -15.139  21.016 -14.585  0.00  0.00     0.091 H 
ATOM    104  H   NTO d 869      -8.811  21.285 -14.909  0.00  0.00     0.090 H 
ATOM    105  H   NTO d 869      -9.157  19.289 -18.223  0.00  0.00     0.076 H 
ATOM    106  H   NTO d 869      -9.169  22.124 -17.235  0.00  0.00     0.089 H 
ATOM    107  H   NTO d 869     -22.231  20.034 -21.235  0.00  0.00     0.104 H 
ATOM    108  H   NTO d 869     -21.253  21.394 -23.007  0.00  0.00     0.091 H 
ATOM    109  H   NTO d 869     -15.564  23.819 -14.929  0.00  0.00     0.210 HD
ATOM    110  H   NTO d 869     -23.964  24.021 -25.228  0.00  0.00     0.231 HD
ATOM    111  H   NTO d 869      -4.842  21.121 -15.822  0.00  0.00     0.066 H 
ATOM    112  H   NTO d 869      -5.118  19.664 -16.745  0.00  0.00     0.066 H 
ATOM    113  H   NTO d 869      -5.736  19.795 -15.116  0.00  0.00     0.066 H 
ATOM    114  H   NTO d 869     -18.633  20.314 -12.792  0.00  0.00     0.231 HD
ATOM    115  H   NTO d 869      -8.610  18.743 -21.742  0.00  0.00     0.231 HD
ATOM    116  H   NTO d 869     -17.194  19.136 -18.170  0.00  0.00     0.092 H 
ATOM    117  H   NTO d 869     -21.340  19.467 -25.408  0.00  0.00     0.131 H 
ATOM    118  H   NTO d 869     -20.310  21.195 -20.572  0.00  0.00     0.133 H 
ATOM    119  H   NTO d 869      -6.992  21.084 -18.733  0.00  0.00     0.140 HD
ATOM    120  H   NTO d 869     -18.471  22.829 -20.143  0.00  0.00     0.080 H 
ATOM    121  H   NTO d 869     -18.082  23.872 -18.776  0.00  0.00     0.080 H 
ATOM    122  H   NTO d 869     -24.971  17.999 -26.818  0.00  0.00     0.091 H 
ATOM    123  H   NTO d 869     -13.286  23.214 -15.488  0.00  0.00     0.097 H 
ATOM    124  H   NTO d 869     -10.774  20.458 -13.575  0.00  0.00     0.080 H 
ATOM    125  H   NTO d 869      -9.292  19.628 -13.142  0.00  0.00     0.080 H 
ATOM    126  H   NTO d 869     -16.393  19.358 -12.587  0.00  0.00     0.231 HD
ATOM    127  H   NTO d 869     -26.091  17.676 -24.199  0.00  0.00     0.210 HD
ATOM    128  H   NTO d 869      -6.194  19.135 -21.574  0.00  0.00     0.231 HD
ATOM    129  H   NTO d 869     -11.096  20.561 -18.658  0.00  0.00     0.210 HD
ATOM    130  H   NTO d 869     -13.545  22.601 -17.472  0.00  0.00     0.104 H 
ATOM    131  H   NTO d 869     -25.686  21.266 -25.799  0.00  0.00     0.210 HD
ATOM    132  H   NTO d 869     -24.764  15.385 -25.435  0.00  0.00     0.080 H 
ATOM    133  H   NTO d 869     -23.879  15.899 -26.864  0.00  0.00     0.080 H 
ATOM    134  H   NTO d 869     -16.807  18.389 -15.890  0.00  0.00     0.140 HD
ATOM    135  H   NTO d 869     -15.824  22.707 -16.885  0.00  0.00     0.092 H 
ATOM    136  H   NTO d 869     -25.538  22.428 -26.229  0.00  0.00     0.231 HD
ATOM    137  H   NTO d 869     -19.642  19.950 -24.868  0.00  0.00     0.210 HD
ATOM    138  H   NTO d 869     -10.920  19.783 -16.406  0.00  0.00     0.091 H 
ATOM    139  H   NTO d 869     -21.651  22.388 -27.313  0.00  0.00     0.231 HD
ATOM    140  H   NTO d 869     -23.792  17.262 -24.160  0.00  0.00     0.090 H 
ATOM    141  H   NTO d 869     -24.883  19.670 -24.319  0.00  0.00     0.089 H 
ATOM    142  H   NTO d 869     -19.311  22.583 -22.242  0.00  0.00     0.210 HD
ATOM    143  H   NTO d 869     -19.760  20.627 -18.574  0.00  0.00     0.091 H 
ENDROOT
TORSDOF 46
ENDMDL
MODEL 79
REMARK VINA RESULT:      -4.7      4.030     14.192
REMARK  0 active torsions:
REMARK  status: ('A' for Active; 'I' for Inactive)
REMARK       I    between atoms: O4A_2  and  C49_47 
REMARK       I    between atoms: O4A_2  and  S4B_15 
REMARK       I    between atoms: C3F_4  and  N3G_69 
REMARK       I    between atoms: S17_5  and  O16_54 
REMARK       I    between atoms: C5L_6  and  O5M_26 
REMARK       I    between atoms: C4F_7  and  O4G_60 
REMARK       I    between atoms: N1F_9  and  C1E_19 
REMARK       I    between atoms: N1F_9  and  S1G_71 
REMARK       I    between atoms: O5J_11  and  S5H_38 
REMARK       I    between atoms: C3L_12  and  O3M_62 
REMARK       I    between atoms: C29_13  and  O2A_90 
REMARK       I    between atoms: S3B_14  and  O3A_85 
REMARK       I    between atoms: C20_18  and  O1L_72 
REMARK       I    between atoms: O3J_20  and  S3H_80 
REMARK       I    between atoms: C31_23  and  C33_44 
REMARK       I    between atoms: C46_25  and  O47_33 
REMARK       I    between atoms: O5M_26  and  C5N_35 
REMARK       I    between atoms: C51_28  and  C53_48 
REMARK       I    between atoms: C5F_29  and  N5G_43 
REMARK       I    between atoms: C59_30  and  O5A_59 
REMARK       I    between atoms: C21_31  and  C23_64 
REMARK       I    between atoms: C26_32  and  O27_76 
REMARK       I    between atoms: O1J_34  and  S1G_71 
REMARK       I    between atoms: O3K_36  and  S3H_80 
REMARK       I    between atoms: O5I_37  and  S5H_38 
REMARK       I    between atoms: S5H_38  and  O5K_53 
REMARK       I    between atoms: S5H_38  and  N5G_43 
REMARK       I    between atoms: C39_39  and  O3A_85 
REMARK       I    between atoms: C1K_40  and  O1L_72 
REMARK       I    between atoms: C2C_41  and  O2D_45 
REMARK       I    between atoms: C33_44  and  O34_74 
REMARK       I    between atoms: O2D_45  and  C30_91 
REMARK       I    between atoms: C12_46  and  O10_51 
REMARK       I    between atoms: C53_48  and  O54_57 
REMARK       I    between atoms: O3I_50  and  S3H_80 
REMARK       I    between atoms: O16_54  and  C15_68 
REMARK       I    between atoms: C43_56  and  C41_65 
REMARK       I    between atoms: O54_57  and  S55_58 
REMARK       I    between atoms: O4G_60  and  C50_77 
REMARK       I    between atoms: O3M_62  and  C40_70 
REMARK       I    between atoms: O1C_67  and  C1B_86 
REMARK       I    between atoms: C15_68  and  C13_83 
REMARK       I    between atoms: N3G_69  and  S3H_80 
REMARK       I    between atoms: S1G_71  and  O1H_75 
REMARK       I    between atoms: S1G_71  and  O1I_82 
REMARK       I    between atoms: O34_74  and  S35_81 
ROOT
ATOM      1  O42 NTO d 869     -12.895  19.514 -18.823  0.00  0.00    -0.340 OA
ATOM      2  O4A NTO d 869      -9.845  19.119 -20.837  0.00  0.00    -0.244 OA
ATOM      3  O32 NTO d 869     -15.324  19.078 -23.246  0.00  0.00    -0.349 OA
ATOM      4  C3F NTO d 869     -15.616  21.438 -22.867  0.00  0.00     0.083 C 
ATOM      5  S17 NTO d 869     -27.025  23.853 -20.024  0.00  0.00     0.251 S 
ATOM      6  C5L NTO d 869     -10.131  19.416 -13.990  0.00  0.00     0.149 C 
ATOM      7  C4F NTO d 869     -11.483  19.451 -19.078  0.00  0.00     0.161 C 
ATOM      8  O14 NTO d 869     -25.795  20.282 -21.536  0.00  0.00    -0.349 OA
ATOM      9  N1F NTO d 869     -24.989  17.265 -23.497  0.00  0.00    -0.210 NA
ATOM     10  O37 NTO d 869     -18.008  15.316 -24.443  0.00  0.00    -0.572 OA
ATOM     11  O5J NTO d 869     -12.529  19.803 -12.038  0.00  0.00    -0.296 OA
ATOM     12  C3L NTO d 869     -14.674  20.244 -22.717  0.00  0.00     0.150 C 
ATOM     13  C29 NTO d 869     -20.761  18.478 -21.366  0.00  0.00     0.110 C 
ATOM     14  S3B NTO d 869     -17.874  22.984 -20.910  0.00  0.00     0.252 S 
ATOM     15  S4B NTO d 869      -9.150  17.921 -21.196  0.00  0.00     0.252 S 
ATOM     16  O24 NTO d 869     -21.880  22.846 -22.846  0.00  0.00    -0.646 OA
ATOM     17  O45 NTO d 869     -15.783  19.548 -19.380  0.00  0.00    -0.646 OA
ATOM     18  C20 NTO d 869     -22.676  19.793 -22.257  0.00  0.00     0.103 C 
ATOM     19  C1E NTO d 869     -25.835  18.344 -22.972  0.00  0.00     0.081 C 
ATOM     20  O3J NTO d 869     -13.569  24.421 -23.698  0.00  0.00    -0.296 OA
ATOM     21  O38 NTO d 869     -17.911  16.650 -26.500  0.00  0.00    -0.572 OA
ATOM     22  O18 NTO d 869     -27.598  23.095 -18.865  0.00  0.00    -0.572 OA
ATOM     23  C31 NTO d 869     -16.475  18.730 -22.459  0.00  0.00     0.091 C 
ATOM     24  O52 NTO d 869      -9.664  20.366 -14.961  0.00  0.00    -0.349 OA
ATOM     25  C46 NTO d 869     -12.173  19.344 -21.486  0.00  0.00     0.094 C 
ATOM     26  O5M NTO d 869      -9.165  18.394 -13.715  0.00  0.00    -0.364 OA
ATOM     27  O3D NTO d 869     -18.860  24.101 -21.076  0.00  0.00    -0.572 OA
ATOM     28  C51 NTO d 869      -9.559  19.814 -16.284  0.00  0.00     0.091 C 
ATOM     29  C5F NTO d 869     -11.478  18.813 -14.396  0.00  0.00     0.081 C 
ATOM     30  C59 NTO d 869     -11.406  18.232 -15.809  0.00  0.00     0.083 C 
ATOM     31  C21 NTO d 869     -21.680  20.492 -23.169  0.00  0.00     0.152 C 
ATOM     32  C26 NTO d 869     -22.151  18.382 -21.998  0.00  0.00     0.092 C 
ATOM     33  O47 NTO d 869     -11.864  18.768 -22.759  0.00  0.00    -0.390 OA
ATOM     34  O1J NTO d 869     -25.013  14.804 -24.163  0.00  0.00    -0.296 OA
ATOM     35  C5N NTO d 869      -8.231  18.887 -12.749  0.00  0.00     0.007 C 
ATOM     36  O3K NTO d 869     -13.526  22.122 -24.503  0.00  0.00    -0.296 OA
ATOM     37  O5I NTO d 869     -14.279  18.281 -12.827  0.00  0.00    -0.296 OA
ATOM     38  S5H NTO d 869     -12.872  18.370 -12.316  0.00  0.00     0.156 S 
ATOM     39  C39 NTO d 869     -16.853  21.163 -22.010  0.00  0.00     0.108 C 
ATOM     40  C1K NTO d 869     -24.975  19.231 -22.071  0.00  0.00     0.150 C 
ATOM     41  C2C NTO d 869     -19.826  19.312 -22.245  0.00  0.00     0.160 C 
ATOM     42  O19 NTO d 869     -28.125  24.562 -20.758  0.00  0.00    -0.572 OA
ATOM     43  N5G NTO d 869     -11.859  17.762 -13.441  0.00  0.00    -0.210 NA
ATOM     44  C33 NTO d 869     -17.120  17.464 -23.032  0.00  0.00     0.067 C 
ATOM     45  O2D NTO d 869     -18.573  19.477 -21.558  0.00  0.00    -0.348 OA
ATOM     46  C12 NTO d 869     -27.106  20.409 -23.594  0.00  0.00     0.089 C 
ATOM     47  C49 NTO d 869     -11.186  18.821 -20.442  0.00  0.00     0.134 C 
ATOM     48  C53 NTO d 869      -9.089  20.939 -17.208  0.00  0.00     0.067 C 
ATOM     49  O4D NTO d 869      -9.606  17.460 -22.549  0.00  0.00    -0.572 OA
ATOM     50  O3I NTO d 869     -12.379  22.706 -22.415  0.00  0.00    -0.296 OA
ATOM     51  O10 NTO d 869     -27.403  21.284 -24.684  0.00  0.00    -0.390 OA
ATOM     52  O1A NTO d 869     -26.027  24.849 -19.520  0.00  0.00    -0.572 OA
ATOM     53  O5K NTO d 869     -12.745  17.585 -11.044  0.00  0.00    -0.296 OA
ATOM     54  O16 NTO d 869     -26.367  22.940 -20.910  0.00  0.00    -0.254 OA
ATOM     55  O56 NTO d 869     -10.639  23.357 -19.036  0.00  0.00    -0.572 OA
ATOM     56  C43 NTO d 869     -15.083  18.533 -19.162  0.00  0.00     0.206 C 
ATOM     57  O54 NTO d 869      -9.981  22.053 -17.129  0.00  0.00    -0.254 OA
ATOM     58  S55 NTO d 869      -9.716  23.257 -17.858  0.00  0.00     0.251 S 
ATOM     59  O5A NTO d 869     -12.712  17.822 -16.226  0.00  0.00    -0.391 OA
ATOM     60  O4G NTO d 869     -10.778  18.707 -18.073  0.00  0.00    -0.348 OA
ATOM     61  O3C NTO d 869     -16.532  23.563 -20.572  0.00  0.00    -0.572 OA
ATOM     62  O3M NTO d 869     -14.444  20.072 -21.312  0.00  0.00    -0.348 OA
ATOM     63  O44 NTO d 869     -15.515  17.491 -18.603  0.00  0.00    -0.646 OA
ATOM     64  C23 NTO d 869     -22.246  21.858 -23.525  0.00  0.00     0.206 C 
ATOM     65  C41 NTO d 869     -13.629  18.558 -19.609  0.00  0.00     0.152 C 
ATOM     66  O22 NTO d 869     -20.395  20.601 -22.530  0.00  0.00    -0.340 OA
ATOM     67  O1C NTO d 869     -27.251  18.400 -24.933  0.00  0.00    -0.391 OA
ATOM     68  C15 NTO d 869     -27.104  22.252 -21.924  0.00  0.00     0.067 C 
ATOM     69  N3G NTO d 869     -14.937  22.670 -22.425  0.00  0.00    -0.210 NA
ATOM     70  C40 NTO d 869     -13.590  18.945 -21.081  0.00  0.00     0.103 C 
ATOM     71  S1G NTO d 869     -25.867  15.895 -23.589  0.00  0.00     0.156 S 
ATOM     72  O1L NTO d 869     -23.951  19.780 -22.913  0.00  0.00    -0.348 OA
ATOM     73  O57 NTO d 869      -8.297  23.241 -18.341  0.00  0.00    -0.572 OA
ATOM     74  O34 NTO d 869     -17.597  17.676 -24.364  0.00  0.00    -0.254 OA
ATOM     75  O1H NTO d 869     -27.060  16.128 -24.467  0.00  0.00    -0.296 OA
ATOM     76  O27 NTO d 869     -23.028  17.692 -21.102  0.00  0.00    -0.390 OA
ATOM     77  C50 NTO d 869     -10.906  19.305 -16.775  0.00  0.00     0.095 C 
ATOM     78  O3E NTO d 869     -18.318  22.086 -19.792  0.00  0.00    -0.572 OA
ATOM     79  O25 NTO d 869     -23.066  21.921 -24.472  0.00  0.00    -0.646 OA
ATOM     80  S3H NTO d 869     -13.578  22.982 -23.276  0.00  0.00     0.156 S 
ATOM     81  S35 NTO d 869     -18.319  16.649 -25.058  0.00  0.00     0.251 S 
ATOM     82  O1I NTO d 869     -26.319  15.505 -22.212  0.00  0.00    -0.296 OA
ATOM     83  C13 NTO d 869     -26.247  21.163 -22.577  0.00  0.00     0.090 C 
ATOM     84  O58 NTO d 869      -9.927  24.433 -16.953  0.00  0.00    -0.572 OA
ATOM     85  O3A NTO d 869     -17.788  22.242 -22.131  0.00  0.00    -0.247 OA
ATOM     86  C1B NTO d 869     -26.362  19.185 -24.135  0.00  0.00     0.083 C 
ATOM     87  O4C NTO d 869      -9.427  16.854 -20.178  0.00  0.00    -0.572 OA
ATOM     88  O4E NTO d 869      -7.680  18.208 -21.224  0.00  0.00    -0.572 OA
ATOM     89  O36 NTO d 869     -19.793  16.907 -24.961  0.00  0.00    -0.572 OA
ATOM     90  O2A NTO d 869     -20.223  17.165 -21.204  0.00  0.00    -0.388 OA
ATOM     91  C30 NTO d 869     -17.508  19.848 -22.447  0.00  0.00     0.096 C 
ATOM     92  H   NTO d 869     -15.903  21.571 -23.889  0.00  0.00     0.076 H 
ATOM     93  H   NTO d 869     -10.276  19.957 -13.079  0.00  0.00     0.131 H 
ATOM     94  H   NTO d 869     -11.142  20.465 -19.063  0.00  0.00     0.133 H 
ATOM     95  H   NTO d 869     -24.195  17.120 -22.873  0.00  0.00     0.140 HD
ATOM     96  H   NTO d 869     -13.137  20.157 -11.369  0.00  0.00     0.231 HD
ATOM     97  H   NTO d 869     -13.752  20.398 -23.238  0.00  0.00     0.131 H 
ATOM     98  H   NTO d 869     -20.849  18.955 -20.412  0.00  0.00     0.094 H 
ATOM     99  H   NTO d 869     -22.792  20.294 -21.318  0.00  0.00     0.092 H 
ATOM    100  H   NTO d 869     -26.658  17.934 -22.424  0.00  0.00     0.076 H 
ATOM    101  H   NTO d 869     -12.762  24.605 -24.203  0.00  0.00     0.231 HD
ATOM    102  H   NTO d 869     -16.146  18.564 -21.455  0.00  0.00     0.090 H 
ATOM    103  H   NTO d 869     -12.101  20.409 -21.549  0.00  0.00     0.091 H 
ATOM    104  H   NTO d 869      -8.875  18.991 -16.276  0.00  0.00     0.090 H 
ATOM    105  H   NTO d 869     -12.216  19.588 -14.386  0.00  0.00     0.076 H 
ATOM    106  H   NTO d 869     -10.740  17.395 -15.809  0.00  0.00     0.089 H 
ATOM    107  H   NTO d 869     -21.531  19.924 -24.063  0.00  0.00     0.104 H 
ATOM    108  H   NTO d 869     -22.100  17.846 -22.922  0.00  0.00     0.091 H 
ATOM    109  H   NTO d 869     -11.930  17.802 -22.701  0.00  0.00     0.210 HD
ATOM    110  H   NTO d 869     -24.721  15.056 -25.053  0.00  0.00     0.231 HD
ATOM    111  H   NTO d 869      -7.505  18.131 -12.536  0.00  0.00     0.066 H 
ATOM    112  H   NTO d 869      -8.750  19.146 -11.850  0.00  0.00     0.066 H 
ATOM    113  H   NTO d 869      -7.739  19.754 -13.138  0.00  0.00     0.066 H 
ATOM    114  H   NTO d 869     -12.715  22.315 -24.999  0.00  0.00     0.231 HD
ATOM    115  H   NTO d 869     -14.887  18.642 -12.162  0.00  0.00     0.231 HD
ATOM    116  H   NTO d 869     -16.555  21.081 -20.985  0.00  0.00     0.092 H 
ATOM    117  H   NTO d 869     -24.549  18.688 -21.254  0.00  0.00     0.131 H 
ATOM    118  H   NTO d 869     -19.677  18.805 -23.174  0.00  0.00     0.133 H 
ATOM    119  H   NTO d 869     -11.021  17.403 -12.983  0.00  0.00     0.140 HD
ATOM    120  H   NTO d 869     -17.941  17.180 -22.409  0.00  0.00     0.080 H 
ATOM    121  H   NTO d 869     -16.378  16.693 -23.061  0.00  0.00     0.080 H 
ATOM    122  H   NTO d 869     -28.003  20.082 -23.111  0.00  0.00     0.091 H 
ATOM    123  H   NTO d 869     -11.295  17.759 -20.364  0.00  0.00     0.097 H 
ATOM    124  H   NTO d 869      -9.062  20.580 -18.215  0.00  0.00     0.080 H 
ATOM    125  H   NTO d 869      -8.113  21.255 -16.904  0.00  0.00     0.080 H 
ATOM    126  H   NTO d 869     -11.571  22.891 -22.919  0.00  0.00     0.231 HD
ATOM    127  H   NTO d 869     -26.577  21.567 -25.106  0.00  0.00     0.210 HD
ATOM    128  H   NTO d 869     -13.350  17.950 -10.378  0.00  0.00     0.231 HD
ATOM    129  H   NTO d 869     -13.307  18.588 -16.223  0.00  0.00     0.210 HD
ATOM    130  H   NTO d 869     -13.181  17.596 -19.474  0.00  0.00     0.104 H 
ATOM    131  H   NTO d 869     -26.779  17.625 -25.275  0.00  0.00     0.210 HD
ATOM    132  H   NTO d 869     -27.409  22.953 -22.672  0.00  0.00     0.080 H 
ATOM    133  H   NTO d 869     -27.958  21.791 -21.473  0.00  0.00     0.080 H 
ATOM    134  H   NTO d 869     -14.690  22.571 -21.440  0.00  0.00     0.140 HD
ATOM    135  H   NTO d 869     -13.915  18.103 -21.654  0.00  0.00     0.092 H 
ATOM    136  H   NTO d 869     -26.764  16.379 -25.355  0.00  0.00     0.231 HD
ATOM    137  H   NTO d 869     -23.078  18.175 -20.262  0.00  0.00     0.210 HD
ATOM    138  H   NTO d 869     -11.585  20.130 -16.828  0.00  0.00     0.091 H 
ATOM    139  H   NTO d 869     -25.545  15.356 -21.648  0.00  0.00     0.231 HD
ATOM    140  H   NTO d 869     -25.402  21.577 -23.086  0.00  0.00     0.090 H 
ATOM    141  H   NTO d 869     -25.538  19.510 -24.736  0.00  0.00     0.089 H 
ATOM    142  H   NTO d 869     -20.147  16.738 -22.072  0.00  0.00     0.210 HD
ATOM    143  H   NTO d 869     -17.907  19.997 -23.428  0.00  0.00     0.091 H 
ENDROOT
TORSDOF 46
ENDMDL
MODEL 80
REMARK VINA RESULT:      -4.6      4.072     14.087
REMARK  0 active torsions:
REMARK  status: ('A' for Active; 'I' for Inactive)
REMARK       I    between atoms: O4A_2  and  C49_47 
REMARK       I    between atoms: O4A_2  and  S4B_15 
REMARK       I    between atoms: C3F_4  and  N3G_69 
REMARK       I    between atoms: S17_5  and  O16_54 
REMARK       I    between atoms: C5L_6  and  O5M_26 
REMARK       I    between atoms: C4F_7  and  O4G_60 
REMARK       I    between atoms: N1F_9  and  C1E_19 
REMARK       I    between atoms: N1F_9  and  S1G_71 
REMARK       I    between atoms: O5J_11  and  S5H_38 
REMARK       I    between atoms: C3L_12  and  O3M_62 
REMARK       I    between atoms: C29_13  and  O2A_90 
REMARK       I    between atoms: S3B_14  and  O3A_85 
REMARK       I    between atoms: C20_18  and  O1L_72 
REMARK       I    between atoms: O3J_20  and  S3H_80 
REMARK       I    between atoms: C31_23  and  C33_44 
REMARK       I    between atoms: C46_25  and  O47_33 
REMARK       I    between atoms: O5M_26  and  C5N_35 
REMARK       I    between atoms: C51_28  and  C53_48 
REMARK       I    between atoms: C5F_29  and  N5G_43 
REMARK       I    between atoms: C59_30  and  O5A_59 
REMARK       I    between atoms: C21_31  and  C23_64 
REMARK       I    between atoms: C26_32  and  O27_76 
REMARK       I    between atoms: O1J_34  and  S1G_71 
REMARK       I    between atoms: O3K_36  and  S3H_80 
REMARK       I    between atoms: O5I_37  and  S5H_38 
REMARK       I    between atoms: S5H_38  and  O5K_53 
REMARK       I    between atoms: S5H_38  and  N5G_43 
REMARK       I    between atoms: C39_39  and  O3A_85 
REMARK       I    between atoms: C1K_40  and  O1L_72 
REMARK       I    between atoms: C2C_41  and  O2D_45 
REMARK       I    between atoms: C33_44  and  O34_74 
REMARK       I    between atoms: O2D_45  and  C30_91 
REMARK       I    between atoms: C12_46  and  O10_51 
REMARK       I    between atoms: C53_48  and  O54_57 
REMARK       I    between atoms: O3I_50  and  S3H_80 
REMARK       I    between atoms: O16_54  and  C15_68 
REMARK       I    between atoms: C43_56  and  C41_65 
REMARK       I    between atoms: O54_57  and  S55_58 
REMARK       I    between atoms: O4G_60  and  C50_77 
REMARK       I    between atoms: O3M_62  and  C40_70 
REMARK       I    between atoms: O1C_67  and  C1B_86 
REMARK       I    between atoms: C15_68  and  C13_83 
REMARK       I    between atoms: N3G_69  and  S3H_80 
REMARK       I    between atoms: S1G_71  and  O1H_75 
REMARK       I    between atoms: S1G_71  and  O1I_82 
REMARK       I    between atoms: O34_74  and  S35_81 
ROOT
ATOM      1  O42 NTO d 869      -7.855  20.564 -20.734  0.00  0.00    -0.340 OA
ATOM      2  O4A NTO d 869      -6.542  23.905 -21.525  0.00  0.00    -0.244 OA
ATOM      3  O32 NTO d 869     -11.865  23.070 -18.918  0.00  0.00    -0.349 OA
ATOM      4  C3F NTO d 869     -10.852  22.389 -16.842  0.00  0.00     0.083 C 
ATOM      5  S17 NTO d 869     -17.379  13.780 -11.611  0.00  0.00     0.251 S 
ATOM      6  C5L NTO d 869      -3.651  17.933 -23.265  0.00  0.00     0.149 C 
ATOM      7  C4F NTO d 869      -6.898  21.527 -21.201  0.00  0.00     0.161 C 
ATOM      8  O14 NTO d 869     -18.707  16.018 -14.738  0.00  0.00    -0.349 OA
ATOM      9  N1F NTO d 869     -20.307  18.365 -17.089  0.00  0.00    -0.210 NA
ATOM     10  O37 NTO d 869     -16.183  23.003 -20.950  0.00  0.00    -0.572 OA
ATOM     11  O5J NTO d 869      -4.489  14.987 -22.688  0.00  0.00    -0.296 OA
ATOM     12  C3L NTO d 869     -10.599  22.861 -18.273  0.00  0.00     0.150 C 
ATOM     13  C29 NTO d 869     -15.544  18.675 -18.137  0.00  0.00     0.110 C 
ATOM     14  S3B NTO d 869     -11.051  19.412 -15.289  0.00  0.00     0.252 S 
ATOM     15  S4B NTO d 869      -6.704  24.679 -22.717  0.00  0.00     0.252 S 
ATOM     16  O24 NTO d 869     -15.067  18.959 -13.424  0.00  0.00    -0.646 OA
ATOM     17  O45 NTO d 869     -10.326  19.516 -19.529  0.00  0.00    -0.646 OA
ATOM     18  C20 NTO d 869     -16.820  18.309 -16.033  0.00  0.00     0.103 C 
ATOM     19  C1E NTO d 869     -20.245  17.383 -16.000  0.00  0.00     0.081 C 
ATOM     20  O3J NTO d 869      -8.265  23.908 -14.654  0.00  0.00    -0.296 OA
ATOM     21  O38 NTO d 869     -16.395  24.679 -19.170  0.00  0.00    -0.572 OA
ATOM     22  O18 NTO d 869     -17.665  12.564 -12.440  0.00  0.00    -0.572 OA
ATOM     23  C31 NTO d 869     -12.575  21.830 -19.068  0.00  0.00     0.091 C 
ATOM     24  O52 NTO d 869      -3.278  18.917 -22.287  0.00  0.00    -0.349 OA
ATOM     25  C46 NTO d 869      -8.530  23.213 -20.317  0.00  0.00     0.094 C 
ATOM     26  O5M NTO d 869      -3.246  18.297 -24.591  0.00  0.00    -0.364 OA
ATOM     27  O3D NTO d 869     -11.380  18.937 -13.905  0.00  0.00    -0.572 OA
ATOM     28  C51 NTO d 869      -4.023  20.140 -22.407  0.00  0.00     0.091 C 
ATOM     29  C5F NTO d 869      -5.148  17.622 -23.206  0.00  0.00     0.081 C 
ATOM     30  C59 NTO d 869      -5.971  18.907 -23.312  0.00  0.00     0.083 C 
ATOM     31  C21 NTO d 869     -16.124  19.543 -15.480  0.00  0.00     0.152 C 
ATOM     32  C26 NTO d 869     -16.942  18.489 -17.545  0.00  0.00     0.092 C 
ATOM     33  O47 NTO d 869      -9.107  24.503 -20.544  0.00  0.00    -0.390 OA
ATOM     34  O1J NTO d 869     -21.736  19.132 -19.056  0.00  0.00    -0.296 OA
ATOM     35  C5N NTO d 869      -1.876  17.927 -24.775  0.00  0.00     0.007 C 
ATOM     36  O3K NTO d 869      -9.628  24.813 -16.460  0.00  0.00    -0.296 OA
ATOM     37  O5I NTO d 869      -6.884  14.869 -23.186  0.00  0.00    -0.296 OA
ATOM     38  S5H NTO d 869      -5.529  15.168 -23.753  0.00  0.00     0.156 S 
ATOM     39  C39 NTO d 869     -11.565  21.038 -16.919  0.00  0.00     0.108 C 
ATOM     40  C1K NTO d 869     -18.781  16.994 -15.789  0.00  0.00     0.150 C 
ATOM     41  C2C NTO d 869     -14.819  19.838 -17.453  0.00  0.00     0.160 C 
ATOM     42  O19 NTO d 869     -18.229  13.762 -10.375  0.00  0.00    -0.572 OA
ATOM     43  N5G NTO d 869      -5.507  16.706 -24.298  0.00  0.00    -0.210 NA
ATOM     44  C33 NTO d 869     -13.901  22.088 -19.789  0.00  0.00     0.067 C 
ATOM     45  O2D NTO d 869     -13.473  19.900 -17.954  0.00  0.00    -0.348 OA
ATOM     46  C12 NTO d 869     -20.562  17.060 -13.538  0.00  0.00     0.089 C 
ATOM     47  C49 NTO d 869      -7.548  22.892 -21.444  0.00  0.00     0.134 C 
ATOM     48  C53 NTO d 869      -3.547  21.071 -21.289  0.00  0.00     0.067 C 
ATOM     49  O4D NTO d 869      -7.856  25.625 -22.552  0.00  0.00    -0.572 OA
ATOM     50  O3I NTO d 869      -7.563  23.597 -16.981  0.00  0.00    -0.296 OA
ATOM     51  O10 NTO d 869     -20.869  17.751 -12.324  0.00  0.00    -0.390 OA
ATOM     52  O1A NTO d 869     -15.930  13.791 -11.230  0.00  0.00    -0.572 OA
ATOM     53  O5K NTO d 869      -5.234  14.226 -24.883  0.00  0.00    -0.296 OA
ATOM     54  O16 NTO d 869     -17.669  14.956 -12.376  0.00  0.00    -0.254 OA
ATOM     55  O56 NTO d 869      -4.446  21.593 -18.047  0.00  0.00    -0.572 OA
ATOM     56  C43 NTO d 869     -10.149  19.788 -20.738  0.00  0.00     0.206 C 
ATOM     57  O54 NTO d 869      -3.699  20.439 -20.017  0.00  0.00    -0.254 OA
ATOM     58  S55 NTO d 869      -3.262  21.089 -18.818  0.00  0.00     0.251 S 
ATOM     59  O5A NTO d 869      -7.354  18.610 -23.093  0.00  0.00    -0.391 OA
ATOM     60  O4G NTO d 869      -6.253  21.112 -22.414  0.00  0.00    -0.348 OA
ATOM     61  O3C NTO d 869      -9.598  19.780 -15.345  0.00  0.00    -0.572 OA
ATOM     62  O3M NTO d 869      -9.887  21.808 -18.936  0.00  0.00    -0.348 OA
ATOM     63  O44 NTO d 869     -10.716  19.179 -21.683  0.00  0.00    -0.646 OA
ATOM     64  C23 NTO d 869     -16.098  19.428 -13.963  0.00  0.00     0.206 C 
ATOM     65  C41 NTO d 869      -9.203  20.927 -21.084  0.00  0.00     0.152 C 
ATOM     66  O22 NTO d 869     -14.799  19.668 -16.026  0.00  0.00    -0.340 OA
ATOM     67  O1C NTO d 869     -22.172  18.294 -14.857  0.00  0.00    -0.391 OA
ATOM     68  C15 NTO d 869     -18.995  15.487 -12.419  0.00  0.00     0.067 C 
ATOM     69  N3G NTO d 869      -9.571  22.265 -16.122  0.00  0.00    -0.210 NA
ATOM     70  C40 NTO d 869      -9.636  22.160 -20.302  0.00  0.00     0.103 C 
ATOM     71  S1G NTO d 869     -21.653  18.102 -17.969  0.00  0.00     0.156 S 
ATOM     72  O1L NTO d 869     -18.102  18.196 -15.400  0.00  0.00    -0.348 OA
ATOM     73  O57 NTO d 869      -2.377  22.245 -19.177  0.00  0.00    -0.572 OA
ATOM     74  O34 NTO d 869     -14.756  22.946 -19.027  0.00  0.00    -0.254 OA
ATOM     75  O1H NTO d 869     -22.856  18.198 -17.079  0.00  0.00    -0.296 OA
ATOM     76  O27 NTO d 869     -17.548  17.330 -18.127  0.00  0.00    -0.390 OA
ATOM     77  C50 NTO d 869      -5.515  19.893 -22.239  0.00  0.00     0.095 C 
ATOM     78  O3E NTO d 869     -11.319  18.311 -16.273  0.00  0.00    -0.572 OA
ATOM     79  O25 NTO d 869     -17.117  19.793 -13.332  0.00  0.00    -0.646 OA
ATOM     80  S3H NTO d 869      -8.743  23.671 -16.056  0.00  0.00     0.156 S 
ATOM     81  S35 NTO d 869     -16.085  23.244 -19.473  0.00  0.00     0.251 S 
ATOM     82  O1I NTO d 869     -21.584  16.733 -18.580  0.00  0.00    -0.296 OA
ATOM     83  C13 NTO d 869     -19.109  16.585 -13.480  0.00  0.00     0.090 C 
ATOM     84  O58 NTO d 869      -2.496  20.110 -17.981  0.00  0.00    -0.572 OA
ATOM     85  O3A NTO d 869     -11.853  20.556 -15.601  0.00  0.00    -0.247 OA
ATOM     86  C1B NTO d 869     -20.777  18.016 -14.714  0.00  0.00     0.083 C 
ATOM     87  O4C NTO d 869      -6.962  23.765 -23.879  0.00  0.00    -0.572 OA
ATOM     88  O4E NTO d 869      -5.443  25.449 -22.966  0.00  0.00    -0.572 OA
ATOM     89  O36 NTO d 869     -17.071  22.365 -18.762  0.00  0.00    -0.572 OA
ATOM     90  O2A NTO d 869     -15.653  18.937 -19.537  0.00  0.00    -0.388 OA
ATOM     91  C30 NTO d 869     -12.863  21.180 -17.722  0.00  0.00     0.096 C 
ATOM     92  H   NTO d 869     -11.459  23.093 -16.310  0.00  0.00     0.076 H 
ATOM     93  H   NTO d 869      -3.121  17.038 -23.015  0.00  0.00     0.131 H 
ATOM     94  H   NTO d 869      -6.165  21.605 -20.426  0.00  0.00     0.133 H 
ATOM     95  H   NTO d 869     -19.485  18.267 -17.684  0.00  0.00     0.140 HD
ATOM     96  H   NTO d 869      -4.508  14.071 -22.369  0.00  0.00     0.231 HD
ATOM     97  H   NTO d 869     -10.039  23.774 -18.297  0.00  0.00     0.131 H 
ATOM     98  H   NTO d 869     -14.979  17.781 -17.977  0.00  0.00     0.094 H 
ATOM     99  H   NTO d 869     -16.274  17.410 -15.837  0.00  0.00     0.092 H 
ATOM    100  H   NTO d 869     -20.833  16.522 -16.245  0.00  0.00     0.076 H 
ATOM    101  H   NTO d 869      -7.773  24.743 -14.617  0.00  0.00     0.231 HD
ATOM    102  H   NTO d 869     -11.958  21.167 -19.638  0.00  0.00     0.090 H 
ATOM    103  H   NTO d 869      -8.017  23.210 -19.379  0.00  0.00     0.091 H 
ATOM    104  H   NTO d 869      -3.863  20.565 -23.376  0.00  0.00     0.090 H 
ATOM    105  H   NTO d 869      -5.364  17.159 -22.266  0.00  0.00     0.076 H 
ATOM    106  H   NTO d 869      -5.835  19.330 -24.286  0.00  0.00     0.089 H 
ATOM    107  H   NTO d 869     -16.656  20.429 -15.761  0.00  0.00     0.104 H 
ATOM    108  H   NTO d 869     -17.549  19.345 -17.754  0.00  0.00     0.091 H 
ATOM    109  H   NTO d 869      -9.572  24.504 -21.395  0.00  0.00     0.210 HD
ATOM    110  H   NTO d 869     -21.782  20.016 -18.661  0.00  0.00     0.231 HD
ATOM    111  H   NTO d 869      -1.563  18.194 -25.762  0.00  0.00     0.066 H 
ATOM    112  H   NTO d 869      -1.770  16.870 -24.641  0.00  0.00     0.066 H 
ATOM    113  H   NTO d 869      -1.269  18.439 -24.057  0.00  0.00     0.066 H 
ATOM    114  H   NTO d 869      -9.127  25.642 -16.417  0.00  0.00     0.231 HD
ATOM    115  H   NTO d 869      -6.903  13.955 -22.860  0.00  0.00     0.231 HD
ATOM    116  H   NTO d 869     -10.926  20.335 -17.409  0.00  0.00     0.092 H 
ATOM    117  H   NTO d 869     -18.342  16.573 -16.670  0.00  0.00     0.131 H 
ATOM    118  H   NTO d 869     -15.340  20.747 -17.669  0.00  0.00     0.133 H 
ATOM    119  H   NTO d 869      -4.821  16.789 -25.048  0.00  0.00     0.140 HD
ATOM    120  H   NTO d 869     -14.398  21.153 -19.946  0.00  0.00     0.080 H 
ATOM    121  H   NTO d 869     -13.689  22.569 -20.721  0.00  0.00     0.080 H 
ATOM    122  H   NTO d 869     -21.198  16.209 -13.664  0.00  0.00     0.091 H 
ATOM    123  H   NTO d 869      -8.082  22.862 -22.371  0.00  0.00     0.097 H 
ATOM    124  H   NTO d 869      -4.128  21.969 -21.308  0.00  0.00     0.080 H 
ATOM    125  H   NTO d 869      -2.513  21.299 -21.442  0.00  0.00     0.080 H 
ATOM    126  H   NTO d 869      -7.071  24.431 -16.944  0.00  0.00     0.231 HD
ATOM    127  H   NTO d 869     -20.282  18.517 -12.232  0.00  0.00     0.210 HD
ATOM    128  H   NTO d 869      -5.248  13.314 -24.555  0.00  0.00     0.231 HD
ATOM    129  H   NTO d 869      -7.466  18.228 -22.210  0.00  0.00     0.210 HD
ATOM    130  H   NTO d 869      -9.234  21.132 -22.133  0.00  0.00     0.104 H 
ATOM    131  H   NTO d 869     -22.307  18.899 -15.602  0.00  0.00     0.210 HD
ATOM    132  H   NTO d 869     -19.238  15.899 -11.462  0.00  0.00     0.080 H 
ATOM    133  H   NTO d 869     -19.672  14.697 -12.669  0.00  0.00     0.080 H 
ATOM    134  H   NTO d 869      -8.996  21.569 -16.598  0.00  0.00     0.140 HD
ATOM    135  H   NTO d 869     -10.522  22.548 -20.760  0.00  0.00     0.092 H 
ATOM    136  H   NTO d 869     -22.897  19.084 -16.686  0.00  0.00     0.231 HD
ATOM    137  H   NTO d 869     -17.001  16.551 -17.940  0.00  0.00     0.210 HD
ATOM    138  H   NTO d 869      -5.690  19.509 -21.255  0.00  0.00     0.091 H 
ATOM    139  H   NTO d 869     -20.804  16.675 -19.155  0.00  0.00     0.231 HD
ATOM    140  H   NTO d 869     -18.486  17.423 -13.251  0.00  0.00     0.090 H 
ATOM    141  H   NTO d 869     -20.250  18.929 -14.529  0.00  0.00     0.089 H 
ATOM    142  H   NTO d 869     -16.166  19.748 -19.676  0.00  0.00     0.210 HD
ATOM    143  H   NTO d 869     -13.532  21.788 -17.150  0.00  0.00     0.091 H 
ENDROOT
TORSDOF 46
ENDMDL
MODEL 81
REMARK VINA RESULT:      -4.6      3.859      6.865
REMARK  0 active torsions:
REMARK  status: ('A' for Active; 'I' for Inactive)
REMARK       I    between atoms: O4A_2  and  C49_47 
REMARK       I    between atoms: O4A_2  and  S4B_15 
REMARK       I    between atoms: C3F_4  and  N3G_69 
REMARK       I    between atoms: S17_5  and  O16_54 
REMARK       I    between atoms: C5L_6  and  O5M_26 
REMARK       I    between atoms: C4F_7  and  O4G_60 
REMARK       I    between atoms: N1F_9  and  C1E_19 
REMARK       I    between atoms: N1F_9  and  S1G_71 
REMARK       I    between atoms: O5J_11  and  S5H_38 
REMARK       I    between atoms: C3L_12  and  O3M_62 
REMARK       I    between atoms: C29_13  and  O2A_90 
REMARK       I    between atoms: S3B_14  and  O3A_85 
REMARK       I    between atoms: C20_18  and  O1L_72 
REMARK       I    between atoms: O3J_20  and  S3H_80 
REMARK       I    between atoms: C31_23  and  C33_44 
REMARK       I    between atoms: C46_25  and  O47_33 
REMARK       I    between atoms: O5M_26  and  C5N_35 
REMARK       I    between atoms: C51_28  and  C53_48 
REMARK       I    between atoms: C5F_29  and  N5G_43 
REMARK       I    between atoms: C59_30  and  O5A_59 
REMARK       I    between atoms: C21_31  and  C23_64 
REMARK       I    between atoms: C26_32  and  O27_76 
REMARK       I    between atoms: O1J_34  and  S1G_71 
REMARK       I    between atoms: O3K_36  and  S3H_80 
REMARK       I    between atoms: O5I_37  and  S5H_38 
REMARK       I    between atoms: S5H_38  and  O5K_53 
REMARK       I    between atoms: S5H_38  and  N5G_43 
REMARK       I    between atoms: C39_39  and  O3A_85 
REMARK       I    between atoms: C1K_40  and  O1L_72 
REMARK       I    between atoms: C2C_41  and  O2D_45 
REMARK       I    between atoms: C33_44  and  O34_74 
REMARK       I    between atoms: O2D_45  and  C30_91 
REMARK       I    between atoms: C12_46  and  O10_51 
REMARK       I    between atoms: C53_48  and  O54_57 
REMARK       I    between atoms: O3I_50  and  S3H_80 
REMARK       I    between atoms: O16_54  and  C15_68 
REMARK       I    between atoms: C43_56  and  C41_65 
REMARK       I    between atoms: O54_57  and  S55_58 
REMARK       I    between atoms: O4G_60  and  C50_77 
REMARK       I    between atoms: O3M_62  and  C40_70 
REMARK       I    between atoms: O1C_67  and  C1B_86 
REMARK       I    between atoms: C15_68  and  C13_83 
REMARK       I    between atoms: N3G_69  and  S3H_80 
REMARK       I    between atoms: S1G_71  and  O1H_75 
REMARK       I    between atoms: S1G_71  and  O1I_82 
REMARK       I    between atoms: O34_74  and  S35_81 
ROOT
ATOM      1  O42 NTO d 869     -22.619  17.289 -19.769  0.00  0.00    -0.340 OA
ATOM      2  O4A NTO d 869     -25.497  17.373 -17.485  0.00  0.00    -0.244 OA
ATOM      3  O32 NTO d 869     -20.084  19.390 -15.920  0.00  0.00    -0.349 OA
ATOM      4  C3F NTO d 869     -20.274  21.310 -17.362  0.00  0.00     0.083 C 
ATOM      5  S17 NTO d 869      -9.619  24.006 -22.187  0.00  0.00     0.251 S 
ATOM      6  C5L NTO d 869     -25.380  14.477 -23.702  0.00  0.00     0.149 C 
ATOM      7  C4F NTO d 869     -23.985  17.115 -19.366  0.00  0.00     0.161 C 
ATOM      8  O14 NTO d 869     -10.090  21.406 -19.093  0.00  0.00    -0.349 OA
ATOM      9  N1F NTO d 869     -10.249  19.570 -15.900  0.00  0.00    -0.210 NA
ATOM     10  O37 NTO d 869     -16.687  17.141 -13.434  0.00  0.00    -0.572 OA
ATOM     11  O5J NTO d 869     -23.137  14.305 -25.859  0.00  0.00    -0.296 OA
ATOM     12  C3L NTO d 869     -20.961  20.045 -16.850  0.00  0.00     0.150 C 
ATOM     13  C29 NTO d 869     -14.666  18.910 -17.887  0.00  0.00     0.110 C 
ATOM     14  S3B NTO d 869     -18.399  22.118 -20.036  0.00  0.00     0.252 S 
ATOM     15  S4B NTO d 869     -25.934  16.384 -16.548  0.00  0.00     0.252 S 
ATOM     16  O24 NTO d 869     -14.417  23.581 -18.688  0.00  0.00    -0.646 OA
ATOM     17  O45 NTO d 869     -19.787  18.068 -19.600  0.00  0.00    -0.646 OA
ATOM     18  C20 NTO d 869     -13.038  20.792 -17.902  0.00  0.00     0.103 C 
ATOM     19  C1E NTO d 869      -9.643  20.404 -16.945  0.00  0.00     0.081 C 
ATOM     20  O3J NTO d 869     -22.862  23.941 -17.768  0.00  0.00    -0.296 OA
ATOM     21  O38 NTO d 869     -17.016  19.244 -12.213  0.00  0.00    -0.572 OA
ATOM     22  O18 NTO d 869      -8.924  22.903 -22.928  0.00  0.00    -0.572 OA
ATOM     23  C31 NTO d 869     -18.899  18.915 -16.579  0.00  0.00     0.091 C 
ATOM     24  O52 NTO d 869     -26.012  15.677 -23.228  0.00  0.00    -0.349 OA
ATOM     25  C46 NTO d 869     -23.252  18.265 -17.261  0.00  0.00     0.094 C 
ATOM     26  O5M NTO d 869     -26.128  13.298 -23.378  0.00  0.00    -0.364 OA
ATOM     27  O3D NTO d 869     -17.653  23.332 -20.503  0.00  0.00    -0.572 OA
ATOM     28  C51 NTO d 869     -25.985  15.798 -21.796  0.00  0.00     0.091 C 
ATOM     29  C5F NTO d 869     -23.935  14.372 -23.212  0.00  0.00     0.081 C 
ATOM     30  C59 NTO d 869     -23.868  14.516 -21.691  0.00  0.00     0.083 C 
ATOM     31  C21 NTO d 869     -14.139  21.656 -17.309  0.00  0.00     0.152 C 
ATOM     32  C26 NTO d 869     -13.275  19.358 -17.432  0.00  0.00     0.092 C 
ATOM     33  O47 NTO d 869     -23.420  18.309 -15.841  0.00  0.00    -0.390 OA
ATOM     34  O1J NTO d 869      -9.725  17.750 -14.193  0.00  0.00    -0.296 OA
ATOM     35  C5N NTO d 869     -27.156  13.116 -24.357  0.00  0.00     0.007 C 
ATOM     36  O3K NTO d 869     -22.433  22.315 -16.005  0.00  0.00    -0.296 OA
ATOM     37  O5I NTO d 869     -21.107  13.650 -24.655  0.00  0.00    -0.296 OA
ATOM     38  S5H NTO d 869     -22.511  13.250 -24.996  0.00  0.00     0.156 S 
ATOM     39  C39 NTO d 869     -19.020  20.880 -18.125  0.00  0.00     0.108 C 
ATOM     40  C1K NTO d 869     -10.676  20.606 -18.054  0.00  0.00     0.150 C 
ATOM     41  C2C NTO d 869     -15.735  19.887 -17.391  0.00  0.00     0.160 C 
ATOM     42  O19 NTO d 869      -8.672  25.150 -21.979  0.00  0.00    -0.572 OA
ATOM     43  N5G NTO d 869     -23.366  13.077 -23.618  0.00  0.00    -0.210 NA
ATOM     44  C33 NTO d 869     -18.007  18.194 -15.565  0.00  0.00     0.067 C 
ATOM     45  O2D NTO d 869     -17.005  19.497 -17.939  0.00  0.00    -0.348 OA
ATOM     46  C12 NTO d 869      -8.799  22.701 -17.472  0.00  0.00     0.089 C 
ATOM     47  C49 NTO d 869     -24.130  17.156 -17.842  0.00  0.00     0.134 C 
ATOM     48  C53 NTO d 869     -26.656  17.127 -21.442  0.00  0.00     0.067 C 
ATOM     49  O4D NTO d 869     -25.375  16.694 -15.191  0.00  0.00    -0.572 OA
ATOM     50  O3I NTO d 869     -23.705  21.651 -17.994  0.00  0.00    -0.296 OA
ATOM     51  O10 NTO d 869      -8.666  24.020 -16.939  0.00  0.00    -0.390 OA
ATOM     52  O1A NTO d 869     -10.803  24.466 -22.981  0.00  0.00    -0.572 OA
ATOM     53  O5K NTO d 869     -22.499  11.953 -25.750  0.00  0.00    -0.296 OA
ATOM     54  O16 NTO d 869     -10.068  23.517 -20.918  0.00  0.00    -0.254 OA
ATOM     55  O56 NTO d 869     -25.591  20.342 -21.092  0.00  0.00    -0.572 OA
ATOM     56  C43 NTO d 869     -20.274  16.967 -19.255  0.00  0.00     0.206 C 
ATOM     57  O54 NTO d 869     -26.005  18.207 -22.113  0.00  0.00    -0.254 OA
ATOM     58  S55 NTO d 869     -26.493  19.548 -21.990  0.00  0.00     0.251 S 
ATOM     59  O5A NTO d 869     -22.500  14.576 -21.275  0.00  0.00    -0.391 OA
ATOM     60  O4G NTO d 869     -24.543  15.881 -19.840  0.00  0.00    -0.348 OA
ATOM     61  O3C NTO d 869     -19.834  22.235 -20.456  0.00  0.00    -0.572 OA
ATOM     62  O3M NTO d 869     -21.174  19.199 -17.989  0.00  0.00    -0.348 OA
ATOM     63  O44 NTO d 869     -19.652  15.875 -19.321  0.00  0.00    -0.646 OA
ATOM     64  C23 NTO d 869     -13.851  23.104 -17.676  0.00  0.00     0.206 C 
ATOM     65  C41 NTO d 869     -21.697  16.952 -18.718  0.00  0.00     0.152 C 
ATOM     66  O22 NTO d 869     -15.429  21.234 -17.786  0.00  0.00    -0.340 OA
ATOM     67  O1C NTO d 869      -8.237  21.608 -15.389  0.00  0.00    -0.391 OA
ATOM     68  C15 NTO d 869      -9.195  23.518 -19.788  0.00  0.00     0.067 C 
ATOM     69  N3G NTO d 869     -21.191  22.057 -18.241  0.00  0.00    -0.210 NA
ATOM     70  C40 NTO d 869     -21.790  17.969 -17.589  0.00  0.00     0.103 C 
ATOM     71  S1G NTO d 869      -9.115  18.573 -15.288  0.00  0.00     0.156 S 
ATOM     72  O1L NTO d 869     -11.776  21.303 -17.452  0.00  0.00    -0.348 OA
ATOM     73  O57 NTO d 869     -27.873  19.520 -21.405  0.00  0.00    -0.572 OA
ATOM     74  O34 NTO d 869     -17.560  19.081 -14.535  0.00  0.00    -0.254 OA
ATOM     75  O1H NTO d 869      -7.978  19.387 -14.745  0.00  0.00    -0.296 OA
ATOM     76  O27 NTO d 869     -12.292  18.489 -18.003  0.00  0.00    -0.390 OA
ATOM     77  C50 NTO d 869     -24.557  15.814 -21.273  0.00  0.00     0.095 C 
ATOM     78  O3E NTO d 869     -17.802  20.892 -20.662  0.00  0.00    -0.572 OA
ATOM     79  O25 NTO d 869     -13.046  23.740 -16.956  0.00  0.00    -0.646 OA
ATOM     80  S3H NTO d 869     -22.573  22.496 -17.487  0.00  0.00     0.156 S 
ATOM     81  S35 NTO d 869     -16.638  18.637 -13.531  0.00  0.00     0.251 S 
ATOM     82  O1I NTO d 869      -8.614  17.667 -16.375  0.00  0.00    -0.296 OA
ATOM     83  C13 NTO d 869      -9.807  22.734 -18.624  0.00  0.00     0.090 C 
ATOM     84  O58 NTO d 869     -26.535  20.180 -23.348  0.00  0.00    -0.572 OA
ATOM     85  O3A NTO d 869     -18.317  22.031 -18.609  0.00  0.00    -0.247 OA
ATOM     86  C1B NTO d 869      -9.277  21.766 -16.357  0.00  0.00     0.083 C 
ATOM     87  O4C NTO d 869     -25.466  15.029 -16.992  0.00  0.00    -0.572 OA
ATOM     88  O4E NTO d 869     -27.431  16.397 -16.498  0.00  0.00    -0.572 OA
ATOM     89  O36 NTO d 869     -15.247  19.065 -13.890  0.00  0.00    -0.572 OA
ATOM     90  O2A NTO d 869     -14.934  17.605 -17.374  0.00  0.00    -0.388 OA
ATOM     91  C30 NTO d 869     -18.110  20.054 -17.210  0.00  0.00     0.096 C 
ATOM     92  H   NTO d 869     -20.004  21.952 -16.550  0.00  0.00     0.076 H 
ATOM     93  H   NTO d 869     -25.359  14.545 -24.770  0.00  0.00     0.131 H 
ATOM     94  H   NTO d 869     -24.522  17.930 -19.805  0.00  0.00     0.133 H 
ATOM     95  H   NTO d 869     -11.008  19.018 -16.301  0.00  0.00     0.140 HD
ATOM     96  H   NTO d 869     -22.623  14.402 -26.676  0.00  0.00     0.231 HD
ATOM     97  H   NTO d 869     -21.888  20.265 -16.362  0.00  0.00     0.131 H 
ATOM     98  H   NTO d 869     -14.690  18.893 -18.957  0.00  0.00     0.094 H 
ATOM     99  H   NTO d 869     -13.038  20.807 -18.972  0.00  0.00     0.092 H 
ATOM    100  H   NTO d 869      -8.763  19.931 -17.331  0.00  0.00     0.076 H 
ATOM    101  H   NTO d 869     -23.682  24.200 -17.320  0.00  0.00     0.231 HD
ATOM    102  H   NTO d 869     -19.204  18.245 -17.356  0.00  0.00     0.090 H 
ATOM    103  H   NTO d 869     -23.533  19.206 -17.684  0.00  0.00     0.091 H 
ATOM    104  H   NTO d 869     -26.491  14.965 -21.355  0.00  0.00     0.090 H 
ATOM    105  H   NTO d 869     -23.366  15.164 -23.653  0.00  0.00     0.076 H 
ATOM    106  H   NTO d 869     -24.354  13.677 -21.239  0.00  0.00     0.089 H 
ATOM    107  H   NTO d 869     -14.159  21.556 -16.243  0.00  0.00     0.104 H 
ATOM    108  H   NTO d 869     -13.204  19.316 -16.365  0.00  0.00     0.091 H 
ATOM    109  H   NTO d 869     -23.164  17.454 -15.459  0.00  0.00     0.210 HD
ATOM    110  H   NTO d 869     -10.048  18.336 -13.490  0.00  0.00     0.231 HD
ATOM    111  H   NTO d 869     -27.720  12.238 -24.123  0.00  0.00     0.066 H 
ATOM    112  H   NTO d 869     -26.712  13.008 -25.324  0.00  0.00     0.066 H 
ATOM    113  H   NTO d 869     -27.804  13.968 -24.355  0.00  0.00     0.066 H 
ATOM    114  H   NTO d 869     -23.259  22.578 -15.568  0.00  0.00     0.231 HD
ATOM    115  H   NTO d 869     -20.593  13.754 -25.471  0.00  0.00     0.231 HD
ATOM    116  H   NTO d 869     -19.311  20.279 -18.962  0.00  0.00     0.092 H 
ATOM    117  H   NTO d 869     -10.998  19.681 -18.484  0.00  0.00     0.131 H 
ATOM    118  H   NTO d 869     -15.765  19.856 -16.322  0.00  0.00     0.133 H 
ATOM    119  H   NTO d 869     -24.122  12.410 -23.770  0.00  0.00     0.140 HD
ATOM    120  H   NTO d 869     -17.154  17.795 -16.073  0.00  0.00     0.080 H 
ATOM    121  H   NTO d 869     -18.579  17.413 -15.109  0.00  0.00     0.080 H 
ATOM    122  H   NTO d 869      -7.863  22.343 -17.845  0.00  0.00     0.091 H 
ATOM    123  H   NTO d 869     -23.813  16.217 -17.438  0.00  0.00     0.097 H 
ATOM    124  H   NTO d 869     -26.595  17.282 -20.385  0.00  0.00     0.080 H 
ATOM    125  H   NTO d 869     -27.680  17.093 -21.750  0.00  0.00     0.080 H 
ATOM    126  H   NTO d 869     -24.526  21.910 -17.548  0.00  0.00     0.231 HD
ATOM    127  H   NTO d 869      -9.526  24.323 -16.607  0.00  0.00     0.210 HD
ATOM    128  H   NTO d 869     -21.989  12.060 -26.569  0.00  0.00     0.231 HD
ATOM    129  H   NTO d 869     -22.069  15.339 -21.689  0.00  0.00     0.210 HD
ATOM    130  H   NTO d 869     -21.946  15.978 -18.351  0.00  0.00     0.104 H 
ATOM    131  H   NTO d 869      -8.540  21.016 -14.683  0.00  0.00     0.210 HD
ATOM    132  H   NTO d 869      -9.024  24.528 -19.478  0.00  0.00     0.080 H 
ATOM    133  H   NTO d 869      -8.272  23.052 -20.067  0.00  0.00     0.080 H 
ATOM    134  H   NTO d 869     -21.429  21.469 -19.040  0.00  0.00     0.140 HD
ATOM    135  H   NTO d 869     -21.295  17.562 -16.733  0.00  0.00     0.092 H 
ATOM    136  H   NTO d 869      -8.306  19.971 -14.043  0.00  0.00     0.231 HD
ATOM    137  H   NTO d 869     -12.352  18.523 -18.971  0.00  0.00     0.210 HD
ATOM    138  H   NTO d 869     -24.054  16.669 -21.674  0.00  0.00     0.091 H 
ATOM    139  H   NTO d 869      -9.352  17.142 -16.723  0.00  0.00     0.231 HD
ATOM    140  H   NTO d 869     -10.710  23.189 -18.272  0.00  0.00     0.090 H 
ATOM    141  H   NTO d 869     -10.140  22.189 -15.887  0.00  0.00     0.089 H 
ATOM    142  H   NTO d 869     -14.910  17.627 -16.405  0.00  0.00     0.210 HD
ATOM    143  H   NTO d 869     -17.734  20.710 -16.452  0.00  0.00     0.091 H 
ENDROOT
TORSDOF 46
ENDMDL
