REMARK  0 active torsions:
REMARK  status: ('A' for Active; 'I' for Inactive)
REMARK       I    between atoms: O4A_2  and  C49_47 
REMARK       I    between atoms: O4A_2  and  S4B_15 
REMARK       I    between atoms: C3F_4  and  N3G_69 
REMARK       I    between atoms: S17_5  and  O16_54 
REMARK       I    between atoms: C5L_6  and  O5M_26 
REMARK       I    between atoms: C4F_7  and  O4G_60 
REMARK       I    between atoms: N1F_9  and  C1E_19 
REMARK       I    between atoms: N1F_9  and  S1G_71 
REMARK       I    between atoms: O5J_11  and  S5H_38 
REMARK       I    between atoms: C3L_12  and  O3M_62 
REMARK       I    between atoms: C29_13  and  O2A_90 
REMARK       I    between atoms: S3B_14  and  O3A_85 
REMARK       I    between atoms: C20_18  and  O1L_72 
REMARK       I    between atoms: O3J_20  and  S3H_80 
REMARK       I    between atoms: C31_23  and  C33_44 
REMARK       I    between atoms: C46_25  and  O47_33 
REMARK       I    between atoms: O5M_26  and  C5N_35 
REMARK       I    between atoms: C51_28  and  C53_48 
REMARK       I    between atoms: C5F_29  and  N5G_43 
REMARK       I    between atoms: C59_30  and  O5A_59 
REMARK       I    between atoms: C21_31  and  C23_64 
REMARK       I    between atoms: C26_32  and  O27_76 
REMARK       I    between atoms: O1J_34  and  S1G_71 
REMARK       I    between atoms: O3K_36  and  S3H_80 
REMARK       I    between atoms: O5I_37  and  S5H_38 
REMARK       I    between atoms: S5H_38  and  O5K_53 
REMARK       I    between atoms: S5H_38  and  N5G_43 
REMARK       I    between atoms: C39_39  and  O3A_85 
REMARK       I    between atoms: C1K_40  and  O1L_72 
REMARK       I    between atoms: C2C_41  and  O2D_45 
REMARK       I    between atoms: C33_44  and  O34_74 
REMARK       I    between atoms: O2D_45  and  C30_91 
REMARK       I    between atoms: C12_46  and  O10_51 
REMARK       I    between atoms: C53_48  and  O54_57 
REMARK       I    between atoms: O3I_50  and  S3H_80 
REMARK       I    between atoms: O16_54  and  C15_68 
REMARK       I    between atoms: C43_56  and  C41_65 
REMARK       I    between atoms: O54_57  and  S55_58 
REMARK       I    between atoms: O4G_60  and  C50_77 
REMARK       I    between atoms: O3M_62  and  C40_70 
REMARK       I    between atoms: O1C_67  and  C1B_86 
REMARK       I    between atoms: C15_68  and  C13_83 
REMARK       I    between atoms: N3G_69  and  S3H_80 
REMARK       I    between atoms: S1G_71  and  O1H_75 
REMARK       I    between atoms: S1G_71  and  O1I_82 
REMARK       I    between atoms: O34_74  and  S35_81 
ROOT
ATOM      1  O42 NTO d 869     -20.371  16.647 -19.759  0.00  0.00    -0.340 OA
ATOM      2  O4A NTO d 869     -22.756  18.785 -21.562  0.00  0.00    -0.244 OA
ATOM      3  O32 NTO d 869     -16.880  19.916 -21.427  0.00  0.00    -0.349 OA
ATOM      4  C3F NTO d 869     -16.387  18.046 -22.862  0.00  0.00     0.083 C 
ATOM      5  S17 NTO d 869      -6.017  12.918 -19.661  0.00  0.00     0.251 S 
ATOM      6  C5L NTO d 869     -24.367  13.466 -17.541  0.00  0.00     0.149 C 
ATOM      7  C4F NTO d 869     -21.649  17.054 -20.271  0.00  0.00     0.161 C 
ATOM      8  O14 NTO d 869      -7.249  16.543 -18.285  0.00  0.00    -0.349 OA
ATOM      9  N1F NTO d 869      -7.876  20.084 -17.471  0.00  0.00    -0.210 NA
ATOM     10  O37 NTO d 869     -14.508  22.942 -18.599  0.00  0.00    -0.572 OA
ATOM     11  O5J NTO d 869     -22.584  11.461 -15.956  0.00  0.00    -0.296 OA
ATOM     12  C3L NTO d 869     -17.487  18.837 -22.156  0.00  0.00     0.150 C 
ATOM     13  C29 NTO d 869     -12.325  18.232 -18.285  0.00  0.00     0.110 C 
ATOM     14  S3B NTO d 869     -14.581  15.293 -22.173  0.00  0.00     0.252 S 
ATOM     15  S4B NTO d 869     -23.479  19.926 -21.091  0.00  0.00     0.252 S 
ATOM     16  O24 NTO d 869     -10.250  16.320 -22.101  0.00  0.00    -0.646 OA
ATOM     17  O45 NTO d 869     -17.466  16.677 -19.296  0.00  0.00    -0.646 OA
ATOM     18  C20 NTO d 869     -10.076  17.790 -19.253  0.00  0.00     0.103 C 
ATOM     19  C1E NTO d 869      -7.072  18.879 -17.710  0.00  0.00     0.081 C 
ATOM     20  O3J NTO d 869     -17.691  16.959 -26.164  0.00  0.00    -0.296 OA
ATOM     21  O38 NTO d 869     -13.840  23.606 -20.865  0.00  0.00    -0.572 OA
ATOM     22  O18 NTO d 869      -5.902  12.483 -18.231  0.00  0.00    -0.572 OA
ATOM     23  C31 NTO d 869     -16.056  19.416 -20.362  0.00  0.00     0.091 C 
ATOM     24  O52 NTO d 869     -24.408  13.621 -18.969  0.00  0.00    -0.349 OA
ATOM     25  C46 NTO d 869     -20.332  18.828 -21.457  0.00  0.00     0.094 C 
ATOM     26  O5M NTO d 869     -25.502  14.054 -16.893  0.00  0.00    -0.364 OA
ATOM     27  O3D NTO d 869     -13.445  14.558 -22.820  0.00  0.00    -0.572 OA
ATOM     28  C51 NTO d 869     -24.212  14.980 -19.393  0.00  0.00     0.091 C 
ATOM     29  C5F NTO d 869     -23.056  13.995 -16.956  0.00  0.00     0.081 C 
ATOM     30  C59 NTO d 869     -22.807  15.436 -17.404  0.00  0.00     0.083 C 
ATOM     31  C21 NTO d 869     -10.671  18.133 -20.610  0.00  0.00     0.152 C 
ATOM     32  C26 NTO d 869     -10.840  18.591 -18.200  0.00  0.00     0.092 C 
ATOM     33  O47 NTO d 869     -20.346  20.191 -21.892  0.00  0.00    -0.390 OA
ATOM     34  O1J NTO d 869      -8.002  22.194 -16.045  0.00  0.00    -0.296 OA
ATOM     35  C5N NTO d 869     -26.593  13.129 -16.939  0.00  0.00     0.007 C 
ATOM     36  O3K NTO d 869     -17.820  19.074 -24.961  0.00  0.00    -0.296 OA
ATOM     37  O5I NTO d 869     -20.908  12.828 -14.807  0.00  0.00    -0.296 OA
ATOM     38  S5H NTO d 869     -22.376  12.567 -14.965  0.00  0.00     0.156 S 
ATOM     39  C39 NTO d 869     -15.490  17.435 -21.784  0.00  0.00     0.108 C 
ATOM     40  C1K NTO d 869      -8.021  17.734 -18.066  0.00  0.00     0.150 C 
ATOM     41  C2C NTO d 869     -12.853  18.454 -19.705  0.00  0.00     0.160 C 
ATOM     42  O19 NTO d 869      -4.670  12.859 -20.318  0.00  0.00    -0.572 OA
ATOM     43  N5G NTO d 869     -23.106  13.929 -15.488  0.00  0.00    -0.210 NA
ATOM     44  C33 NTO d 869     -15.455  20.593 -19.588  0.00  0.00     0.067 C 
ATOM     45  O2D NTO d 869     -14.213  17.993 -19.768  0.00  0.00    -0.348 OA
ATOM     46  C12 NTO d 869      -5.408  17.824 -19.254  0.00  0.00     0.089 C 
ATOM     47  C49 NTO d 869     -21.634  18.519 -20.717  0.00  0.00     0.134 C 
ATOM     48  C53 NTO d 869     -24.245  14.986 -20.923  0.00  0.00     0.067 C 
ATOM     49  O4D NTO d 869     -22.729  21.177 -21.441  0.00  0.00    -0.572 OA
ATOM     50  O3I NTO d 869     -19.416  17.282 -24.454  0.00  0.00    -0.296 OA
ATOM     51  O10 NTO d 869      -4.700  18.022 -20.480  0.00  0.00    -0.390 OA
ATOM     52  O1A NTO d 869      -6.971  12.013 -20.379  0.00  0.00    -0.572 OA
ATOM     53  O5K NTO d 869     -22.961  12.153 -13.647  0.00  0.00    -0.296 OA
ATOM     54  O16 NTO d 869      -6.518  14.259 -19.711  0.00  0.00    -0.254 OA
ATOM     55  O56 NTO d 869     -21.929  14.561 -23.382  0.00  0.00    -0.572 OA
ATOM     56  C43 NTO d 869     -18.331  17.270 -18.612  0.00  0.00     0.206 C 
ATOM     57  O54 NTO d 869     -23.268  14.084 -21.445  0.00  0.00    -0.254 OA
ATOM     58  S55 NTO d 869     -23.150  13.867 -22.856  0.00  0.00     0.251 S 
ATOM     59  O5A NTO d 869     -21.505  15.852 -16.980  0.00  0.00    -0.391 OA
ATOM     60  O4G NTO d 869     -22.702  16.885 -19.311  0.00  0.00    -0.348 OA
ATOM     61  O3C NTO d 869     -15.871  14.829 -22.781  0.00  0.00    -0.572 OA
ATOM     62  O3M NTO d 869     -18.124  17.935 -21.241  0.00  0.00    -0.348 OA
ATOM     63  O44 NTO d 869     -18.220  17.485 -17.377  0.00  0.00    -0.646 OA
ATOM     64  C23 NTO d 869      -9.846  17.429 -21.677  0.00  0.00     0.206 C 
ATOM     65  C41 NTO d 869     -19.583  17.767 -19.318  0.00  0.00     0.152 C 
ATOM     66  O22 NTO d 869     -12.056  17.748 -20.670  0.00  0.00    -0.340 OA
ATOM     67  O1C NTO d 869      -5.169  20.122 -18.537  0.00  0.00    -0.391 OA
ATOM     68  C15 NTO d 869      -5.628  15.372 -19.606  0.00  0.00     0.067 C 
ATOM     69  N3G NTO d 869     -16.988  16.993 -23.701  0.00  0.00    -0.210 NA
ATOM     70  C40 NTO d 869     -19.154  18.611 -20.510  0.00  0.00     0.103 C 
ATOM     71  S1G NTO d 869      -7.203  20.943 -16.261  0.00  0.00     0.156 S 
ATOM     72  O1L NTO d 869      -8.682  18.127 -19.277  0.00  0.00    -0.348 OA
ATOM     73  O57 NTO d 869     -24.365  14.414 -23.544  0.00  0.00    -0.572 OA
ATOM     74  O34 NTO d 869     -14.598  21.384 -20.417  0.00  0.00    -0.254 OA
ATOM     75  O1H NTO d 869      -5.791  21.293 -16.625  0.00  0.00    -0.296 OA
ATOM     76  O27 NTO d 869     -10.353  18.269 -16.894  0.00  0.00    -0.390 OA
ATOM     77  C50 NTO d 869     -22.864  15.511 -18.929  0.00  0.00     0.095 C 
ATOM     78  O3E NTO d 869     -14.595  14.997 -20.702  0.00  0.00    -0.572 OA
ATOM     79  O25 NTO d 869      -8.793  17.988 -22.064  0.00  0.00    -0.646 OA
ATOM     80  S3H NTO d 869     -17.998  17.590 -24.838  0.00  0.00     0.156 S 
ATOM     81  S35 NTO d 869     -13.858  22.484 -19.871  0.00  0.00     0.251 S 
ATOM     82  O1I NTO d 869      -7.213  20.120 -15.006  0.00  0.00    -0.296 OA
ATOM     83  C13 NTO d 869      -6.407  16.680 -19.441  0.00  0.00     0.090 C 
ATOM     84  O58 NTO d 869     -23.044  12.395 -23.117  0.00  0.00    -0.572 OA
ATOM     85  O3A NTO d 869     -14.421  16.699 -22.390  0.00  0.00    -0.247 OA
ATOM     86  C1B NTO d 869      -6.130  19.124 -18.889  0.00  0.00     0.083 C 
ATOM     87  O4C NTO d 869     -23.648  19.836 -19.603  0.00  0.00    -0.572 OA
ATOM     88  O4E NTO d 869     -24.829  19.942 -21.741  0.00  0.00    -0.572 OA
ATOM     89  O36 NTO d 869     -12.450  22.058 -19.582  0.00  0.00    -0.572 OA
ATOM     90  O2A NTO d 869     -13.061  19.043 -17.368  0.00  0.00    -0.388 OA
ATOM     91  C30 NTO d 869     -14.925  18.542 -20.888  0.00  0.00     0.096 C 
ATOM     92  H   NTO d 869     -15.809  18.682 -23.500  0.00  0.00     0.076 H 
ATOM     93  H   NTO d 869     -24.411  12.415 -17.347  0.00  0.00     0.131 H 
ATOM     94  H   NTO d 869     -21.839  16.419 -21.111  0.00  0.00     0.133 H 
ATOM     95  H   NTO d 869      -8.825  19.815 -17.212  0.00  0.00     0.140 HD
ATOM     96  H   NTO d 869     -22.147  10.655 -15.638  0.00  0.00     0.231 HD
ATOM     97  H   NTO d 869     -18.196  19.239 -22.850  0.00  0.00     0.131 H 
ATOM     98  H   NTO d 869     -12.445  17.199 -18.034  0.00  0.00     0.094 H 
ATOM     99  H   NTO d 869     -10.161  16.749 -19.021  0.00  0.00     0.092 H 
ATOM    100  H   NTO d 869      -6.500  18.638 -16.838  0.00  0.00     0.076 H 
ATOM    101  H   NTO d 869     -18.291  17.314 -26.838  0.00  0.00     0.231 HD
ATOM    102  H   NTO d 869     -16.673  18.820 -19.723  0.00  0.00     0.090 H 
ATOM    103  H   NTO d 869     -20.237  18.183 -22.305  0.00  0.00     0.091 H 
ATOM    104  H   NTO d 869     -24.976  15.601 -18.974  0.00  0.00     0.090 H 
ATOM    105  H   NTO d 869     -22.252  13.386 -17.313  0.00  0.00     0.076 H 
ATOM    106  H   NTO d 869     -23.554  16.070 -16.974  0.00  0.00     0.089 H 
ATOM    107  H   NTO d 869     -10.639  19.190 -20.775  0.00  0.00     0.104 H 
ATOM    108  H   NTO d 869     -10.702  19.637 -18.379  0.00  0.00     0.091 H 
ATOM    109  H   NTO d 869     -20.432  20.775 -21.122  0.00  0.00     0.210 HD
ATOM    110  H   NTO d 869      -7.995  22.726 -16.856  0.00  0.00     0.231 HD
ATOM    111  H   NTO d 869     -27.446  13.559 -16.457  0.00  0.00     0.066 H 
ATOM    112  H   NTO d 869     -26.317  12.226 -16.436  0.00  0.00     0.066 H 
ATOM    113  H   NTO d 869     -26.832  12.910 -17.959  0.00  0.00     0.066 H 
ATOM    114  H   NTO d 869     -18.424  19.417 -25.638  0.00  0.00     0.231 HD
ATOM    115  H   NTO d 869     -20.468  12.021 -14.496  0.00  0.00     0.231 HD
ATOM    116  H   NTO d 869     -16.072  16.765 -21.186  0.00  0.00     0.092 H 
ATOM    117  H   NTO d 869      -8.730  17.537 -17.289  0.00  0.00     0.131 H 
ATOM    118  H   NTO d 869     -12.802  19.497 -19.936  0.00  0.00     0.133 H 
ATOM    119  H   NTO d 869     -24.079  13.929 -15.183  0.00  0.00     0.140 HD
ATOM    120  H   NTO d 869     -14.888  20.214 -18.764  0.00  0.00     0.080 H 
ATOM    121  H   NTO d 869     -16.257  21.214 -19.246  0.00  0.00     0.080 H 
ATOM    122  H   NTO d 869      -4.736  17.568 -18.462  0.00  0.00     0.091 H 
ATOM    123  H   NTO d 869     -21.697  19.146 -19.852  0.00  0.00     0.097 H 
ATOM    124  H   NTO d 869     -24.037  15.974 -21.276  0.00  0.00     0.080 H 
ATOM    125  H   NTO d 869     -25.215  14.675 -21.251  0.00  0.00     0.080 H 
ATOM    126  H   NTO d 869     -20.017  17.636 -25.128  0.00  0.00     0.231 HD
ATOM    127  H   NTO d 869      -5.328  18.253 -21.182  0.00  0.00     0.210 HD
ATOM    128  H   NTO d 869     -22.524  11.343 -13.340  0.00  0.00     0.231 HD
ATOM    129  H   NTO d 869     -20.836  15.272 -17.375  0.00  0.00     0.210 HD
ATOM    130  H   NTO d 869     -20.178  18.355 -18.651  0.00  0.00     0.104 H 
ATOM    131  H   NTO d 869      -5.627  20.945 -18.306  0.00  0.00     0.210 HD
ATOM    132  H   NTO d 869      -5.032  15.429 -20.493  0.00  0.00     0.080 H 
ATOM    133  H   NTO d 869      -5.006  15.233 -18.746  0.00  0.00     0.080 H 
ATOM    134  H   NTO d 869     -17.513  16.357 -23.100  0.00  0.00     0.140 HD
ATOM    135  H   NTO d 869     -18.799  19.550 -20.141  0.00  0.00     0.092 H 
ATOM    136  H   NTO d 869      -5.789  21.825 -17.436  0.00  0.00     0.231 HD
ATOM    137  H   NTO d 869     -10.476  17.321 -16.727  0.00  0.00     0.210 HD
ATOM    138  H   NTO d 869     -22.091  14.923 -19.378  0.00  0.00     0.091 H 
ATOM    139  H   NTO d 869      -8.128  19.896 -14.774  0.00  0.00     0.231 HD
ATOM    140  H   NTO d 869      -7.010  16.892 -20.299  0.00  0.00     0.090 H 
ATOM    141  H   NTO d 869      -6.700  19.460 -19.730  0.00  0.00     0.089 H 
ATOM    142  H   NTO d 869     -12.948  19.978 -17.600  0.00  0.00     0.210 HD
ATOM    143  H   NTO d 869     -14.250  19.124 -21.480  0.00  0.00     0.091 H 
ENDROOT
TORSDOF 46
