MODEL 1
REMARK VINA RESULT:      -6.7      0.000      0.000
REMARK  0 active torsions:
REMARK  status: ('A' for Active; 'I' for Inactive)
REMARK       I    between atoms: O3S_3  and  S1_55 
REMARK       I    between atoms: O3_4  and  C3_87 
REMARK       I    between atoms: O4_5  and  C1_15 
REMARK       I    between atoms: O4_5  and  C4_57 
REMARK       I    between atoms: O4_7  and  C1_36 
REMARK       I    between atoms: O4_7  and  C4_89 
REMARK       I    between atoms: C4_8  and  O4_18 
REMARK       I    between atoms: C2_9  and  O2_84 
REMARK       I    between atoms: C6_10  and  C5_32 
REMARK       I    between atoms: C6_10  and  O6_102 
REMARK       I    between atoms: O6_11  and  C6_93 
REMARK       I    between atoms: O6_11  and  S2_25 
REMARK       I    between atoms: C1_13  and  O4_74 
REMARK       I    between atoms: C3_14  and  O3_71 
REMARK       I    between atoms: O4_18  and  C1_54 
REMARK       I    between atoms: S2_19  and  O6_39 
REMARK       I    between atoms: O2S_21  and  S1_45 
REMARK       I    between atoms: C5_22  and  C6_23 
REMARK       I    between atoms: C5_24  and  C6_77 
REMARK       I    between atoms: O1_27  and  C1_48 
REMARK       I    between atoms: C5_28  and  C6_30 
REMARK       I    between atoms: C5_29  and  C6_93 
REMARK       I    between atoms: O1S_31  and  S1_44 
REMARK       I    between atoms: C3_33  and  O3_69 
REMARK       I    between atoms: C2_37  and  N_99 
REMARK       I    between atoms: S2_38  and  O6_102 
REMARK       I    between atoms: O6_39  and  C6_77 
REMARK       I    between atoms: C2_40  and  O2_103 
REMARK       I    between atoms: O3S_42  and  S1_44 
REMARK       I    between atoms: S1_44  and  N_99 
REMARK       I    between atoms: S1_44  and  O2S_81 
REMARK       I    between atoms: S1_45  and  N_94 
REMARK       I    between atoms: S1_45  and  O1S_46 
REMARK       I    between atoms: S1_45  and  O3S_58 
REMARK       I    between atoms: O3_52  and  C3_105 
REMARK       I    between atoms: S1_55  and  N_100 
REMARK       I    between atoms: S1_55  and  O1S_79 
REMARK       I    between atoms: S1_55  and  O2S_83 
REMARK       I    between atoms: O3_56  and  C3_64 
REMARK       I    between atoms: C4_60  and  O4_61 
REMARK       I    between atoms: O4_61  and  C1_73 
REMARK       I    between atoms: C6_63  and  C5_80 
REMARK       I    between atoms: C3_65  and  O3_82 
REMARK       I    between atoms: S_67  and  O2_84 
REMARK       I    between atoms: C2_68  and  O2_98 
REMARK       I    between atoms: O4_74  and  C4_97 
REMARK       I    between atoms: C2_85  and  N_94 
REMARK       I    between atoms: C2_95  and  N_100 
REMARK       I    between atoms: O2_98  and  S_104 
REMARK       I    between atoms: S_101  and  O2_103 
ROOT
ATOM      1  O6S SGN d  66      23.934  39.615  54.905  0.00  0.00    -0.572 OA
ATOM      2  C4  SGN d  66      19.623  38.954  52.937  0.00  0.00     0.095 C 
ATOM      3  C6  SGN d  66      20.433  37.769  55.013  0.00  0.00     0.067 C 
ATOM      4  O4  SGN d  66      20.198  37.856  52.084  0.00  0.00    -0.348 OA
ATOM      5  O5S SGN d  66      23.603  37.260  54.945  0.00  0.00    -0.572 OA
ATOM      6  O2S SGN d  66      15.953  43.087  54.327  0.00  0.00    -0.296 OA
ATOM      7  O5  SGN d  66      18.631  39.470  55.124  0.00  0.00    -0.350 OA
ATOM      8  O1  SGN d  66      16.414  39.168  54.238  0.00  0.00    -0.369 OA
ATOM      9  C5  SGN d  66      19.216  38.397  54.309  0.00  0.00     0.091 C 
ATOM     10  S2  SGN d  66      23.067  38.535  54.477  0.00  0.00     0.251 S 
ATOM     11  S1  SGN d  66      15.403  42.113  53.404  0.00  0.00     0.156 S 
ATOM     12  O1S SGN d  66      14.520  42.741  52.432  0.00  0.00    -0.296 OA
ATOM     13  C1  SGN d  66      17.459  40.117  54.525  0.00  0.00     0.147 C 
ATOM     14  O3S SGN d  66      14.628  41.104  54.109  0.00  0.00    -0.296 OA
ATOM     15  C3  SGN d  66      18.440  39.659  52.252  0.00  0.00     0.083 C 
ATOM     16  O3  SGN d  66      18.898  40.302  51.063  0.00  0.00    -0.391 OA
ATOM     17  C2  SGN d  66      17.901  40.744  53.187  0.00  0.00     0.081 C 
ATOM     18  O4S SGN d  66      22.961  38.555  53.025  0.00  0.00    -0.572 OA
ATOM     19  N   SGN d  66      16.777  41.410  52.512  0.00  0.00    -0.210 NA
ATOM     20  O6  SGN d  66      21.467  38.758  55.226  0.00  0.00    -0.254 OA
ATOM     21  H   SGN d  66      20.383  39.694  53.075  0.00  0.00     0.091 H 
ATOM     22  H   SGN d  66      20.822  36.980  54.404  0.00  0.00     0.080 H 
ATOM     23  H   SGN d  66      20.122  37.386  55.963  0.00  0.00     0.080 H 
ATOM     24  H   SGN d  66      16.465  43.746  53.834  0.00  0.00     0.231 HD
ATOM     25  H   SGN d  66      16.115  38.757  55.064  0.00  0.00     0.212 HD
ATOM     26  H   SGN d  66      18.481  37.630  54.178  0.00  0.00     0.090 H 
ATOM     27  H   SGN d  66      15.009  43.422  51.944  0.00  0.00     0.231 HD
ATOM     28  H   SGN d  66      17.083  40.843  55.214  0.00  0.00     0.131 H 
ATOM     29  H   SGN d  66      15.189  40.666  54.767  0.00  0.00     0.231 HD
ATOM     30  H   SGN d  66      17.683  38.939  52.022  0.00  0.00     0.089 H 
ATOM     31  H   SGN d  66      19.583  40.950  51.290  0.00  0.00     0.210 HD
ATOM     32  H   SGN d  66      18.661  41.466  53.406  0.00  0.00     0.076 H 
ATOM     33  H   SGN d  66      17.184  42.173  51.971  0.00  0.00     0.140 HD
ATOM     34  O61 IDS d  65      16.817  37.710  48.521  0.00  0.00    -0.646 OA
ATOM     35  O3  IDS d  65      19.850  33.909  50.606  0.00  0.00    -0.390 OA
ATOM     36  C5  IDS d  65      18.750  37.397  49.890  0.00  0.00     0.152 C 
ATOM     37  C6  IDS d  65      17.955  38.162  48.799  0.00  0.00     0.206 C 
ATOM     38  O5  IDS d  65      20.069  38.016  50.004  0.00  0.00    -0.340 OA
ATOM     39  C1  IDS d  65      20.975  37.430  50.974  0.00  0.00     0.161 C 
ATOM     40  O1S IDS d  65      21.719  32.721  52.552  0.00  0.00    -0.572 OA
ATOM     41  C4  IDS d  65      18.851  35.849  49.649  0.00  0.00     0.103 C 
ATOM     42  O4  IDS d  65      18.192  35.704  48.388  0.00  0.00    -0.348 OA
ATOM     43  C2  IDS d  65      20.613  35.978  51.406  0.00  0.00     0.134 C 
ATOM     44  O62 IDS d  65      18.464  39.195  48.269  0.00  0.00    -0.646 OA
ATOM     45  C3  IDS d  65      20.142  35.212  50.211  0.00  0.00     0.094 C 
ATOM     46  O2S IDS d  65      20.055  34.160  53.471  0.00  0.00    -0.572 OA
ATOM     47  O3S IDS d  65      22.277  34.271  54.299  0.00  0.00    -0.572 OA
ATOM     48  O2  IDS d  65      21.765  35.302  51.887  0.00  0.00    -0.244 OA
ATOM     49  S   IDS d  65      21.455  34.045  53.114  0.00  0.00     0.252 S 
ATOM     50  H   IDS d  65      19.543  33.400  49.840  0.00  0.00     0.210 HD
ATOM     51  H   IDS d  65      18.213  37.478  50.811  0.00  0.00     0.104 H 
ATOM     52  H   IDS d  65      21.993  37.597  50.691  0.00  0.00     0.133 H 
ATOM     53  H   IDS d  65      18.358  35.097  50.228  0.00  0.00     0.092 H 
ATOM     54  H   IDS d  65      19.862  36.036  52.166  0.00  0.00     0.097 H 
ATOM     55  H   IDS d  65      20.904  35.223  49.460  0.00  0.00     0.091 H 
ATOM     56  O3S SGN d  62      20.337  37.215  39.618  0.00  0.00    -0.296 OA
ATOM     57  C1  SGN d  62      20.095  33.749  39.542  0.00  0.00     0.150 C 
ATOM     58  S2  SGN d  62      20.621  27.950  38.335  0.00  0.00     0.251 S 
ATOM     59  C5  SGN d  62      20.162  31.665  38.181  0.00  0.00     0.091 C 
ATOM     60  O5  SGN d  62      20.835  32.563  39.109  0.00  0.00    -0.349 OA
ATOM     61  O4S SGN d  62      21.893  27.435  37.949  0.00  0.00    -0.572 OA
ATOM     62  O6  SGN d  62      20.289  29.435  37.477  0.00  0.00    -0.254 OA
ATOM     63  O3  SGN d  62      18.305  34.270  36.307  0.00  0.00    -0.391 OA
ATOM     64  S1  SGN d  62      19.183  37.091  38.758  0.00  0.00     0.156 S 
ATOM     65  O6S SGN d  62      20.517  28.192  39.772  0.00  0.00    -0.572 OA
ATOM     66  O4  SGN d  62      19.117  31.514  36.027  0.00  0.00    -0.348 OA
ATOM     67  C6  SGN d  62      21.104  30.529  37.859  0.00  0.00     0.067 C 
ATOM     68  O5S SGN d  62      19.576  27.039  37.954  0.00  0.00    -0.572 OA
ATOM     69  O1S SGN d  62      18.091  37.934  39.197  0.00  0.00    -0.296 OA
ATOM     70  O2S SGN d  62      19.597  37.385  37.417  0.00  0.00    -0.296 OA
ATOM     71  C2  SGN d  62      19.546  34.459  38.312  0.00  0.00     0.081 C 
ATOM     72  C4  SGN d  62      19.759  32.431  36.910  0.00  0.00     0.095 C 
ATOM     73  N   SGN d  62      18.604  35.444  38.737  0.00  0.00    -0.210 NA
ATOM     74  C3  SGN d  62      18.775  33.511  37.388  0.00  0.00     0.083 C 
ATOM     75  H   SGN d  62      20.081  37.020  40.533  0.00  0.00     0.231 HD
ATOM     76  H   SGN d  62      20.787  34.351  40.093  0.00  0.00     0.131 H 
ATOM     77  H   SGN d  62      19.269  31.270  38.618  0.00  0.00     0.090 H 
ATOM     78  H   SGN d  62      17.687  34.944  36.629  0.00  0.00     0.210 HD
ATOM     79  H   SGN d  62      21.687  30.275  38.719  0.00  0.00     0.080 H 
ATOM     80  H   SGN d  62      21.786  30.798  37.079  0.00  0.00     0.080 H 
ATOM     81  H   SGN d  62      17.845  37.700  40.106  0.00  0.00     0.231 HD
ATOM     82  H   SGN d  62      20.328  36.797  37.168  0.00  0.00     0.231 HD
ATOM     83  H   SGN d  62      20.383  34.869  37.787  0.00  0.00     0.076 H 
ATOM     84  H   SGN d  62      20.586  32.870  36.392  0.00  0.00     0.091 H 
ATOM     85  H   SGN d  62      17.802  35.402  38.108  0.00  0.00     0.140 HD
ATOM     86  H   SGN d  62      17.948  33.043  37.879  0.00  0.00     0.089 H 
ATOM     87  O4  IDS d  63      18.991  33.466  40.412  0.00  0.00    -0.348 OA
ATOM     88  O62 IDS d  63      17.581  30.984  42.746  0.00  0.00    -0.646 OA
ATOM     89  C2  IDS d  63      17.299  35.723  41.715  0.00  0.00     0.134 C 
ATOM     90  O2S IDS d  63      14.718  36.756  40.332  0.00  0.00    -0.572 OA
ATOM     91  O61 IDS d  63      19.729  31.243  42.818  0.00  0.00    -0.646 OA
ATOM     92  C3  IDS d  63      18.822  35.562  41.812  0.00  0.00     0.094 C 
ATOM     93  C1  IDS d  63      16.605  34.903  42.837  0.00  0.00     0.161 C 
ATOM     94  O5  IDS d  63      16.922  33.504  42.624  0.00  0.00    -0.340 OA
ATOM     95  C4  IDS d  63      19.206  34.023  41.703  0.00  0.00     0.103 C 
ATOM     96  C6  IDS d  63      18.587  31.696  42.753  0.00  0.00     0.206 C 
ATOM     97  S   IDS d  63      15.153  35.388  40.087  0.00  0.00     0.252 S 
ATOM     98  O3  IDS d  63      19.159  36.062  43.087  0.00  0.00    -0.390 OA
ATOM     99  C5  IDS d  63      18.377  33.207  42.731  0.00  0.00     0.152 C 
ATOM    100  O2  IDS d  63      16.889  35.347  40.427  0.00  0.00    -0.244 OA
ATOM    101  O1S IDS d  63      15.019  35.003  38.694  0.00  0.00    -0.572 OA
ATOM    102  O3S IDS d  63      14.358  34.541  40.928  0.00  0.00    -0.572 OA
ATOM    103  H   IDS d  63      17.013  36.743  41.864  0.00  0.00     0.097 H 
ATOM    104  H   IDS d  63      19.341  36.077  41.031  0.00  0.00     0.091 H 
ATOM    105  H   IDS d  63      15.537  34.978  42.847  0.00  0.00     0.133 H 
ATOM    106  H   IDS d  63      20.256  33.966  41.903  0.00  0.00     0.092 H 
ATOM    107  H   IDS d  63      18.671  35.571  43.767  0.00  0.00     0.210 HD
ATOM    108  H   IDS d  63      18.772  33.552  43.664  0.00  0.00     0.104 H 
ATOM    109  O4  SGN d  64      17.130  35.436  44.091  0.00  0.00    -0.348 OA
ATOM    110  O6  SGN d  64      14.009  36.756  46.485  0.00  0.00    -0.254 OA
ATOM    111  C3  SGN d  64      17.937  34.206  46.046  0.00  0.00     0.083 C 
ATOM    112  S2  SGN d  64      13.089  35.228  46.481  0.00  0.00     0.251 S 
ATOM    113  C5  SGN d  64      16.331  36.103  46.261  0.00  0.00     0.091 C 
ATOM    114  O1S SGN d  64      18.002  30.528  48.681  0.00  0.00    -0.296 OA
ATOM    115  C2  SGN d  64      17.497  33.688  47.381  0.00  0.00     0.081 C 
ATOM    116  O4S SGN d  64      12.635  34.992  45.135  0.00  0.00    -0.572 OA
ATOM    117  O3S SGN d  64      18.677  30.905  46.438  0.00  0.00    -0.296 OA
ATOM    118  S1  SGN d  64      18.880  31.304  47.819  0.00  0.00     0.156 S 
ATOM    119  O6S SGN d  64      13.908  34.118  46.924  0.00  0.00    -0.572 OA
ATOM    120  O5S SGN d  64      11.967  35.368  47.369  0.00  0.00    -0.572 OA
ATOM    121  O3  SGN d  64      18.342  33.104  45.318  0.00  0.00    -0.391 OA
ATOM    122  C1  SGN d  64      17.057  34.852  48.230  0.00  0.00     0.150 C 
ATOM    123  O2S SGN d  64      20.258  31.105  48.175  0.00  0.00    -0.296 OA
ATOM    124  C4  SGN d  64      16.735  34.915  45.369  0.00  0.00     0.095 C 
ATOM    125  O5  SGN d  64      15.981  35.544  47.561  0.00  0.00    -0.349 OA
ATOM    126  C6  SGN d  64      15.155  36.836  45.650  0.00  0.00     0.067 C 
ATOM    127  N   SGN d  64      18.609  33.041  48.034  0.00  0.00    -0.210 NA
ATOM    128  H   SGN d  64      18.736  34.913  46.122  0.00  0.00     0.089 H 
ATOM    129  H   SGN d  64      17.127  36.813  46.357  0.00  0.00     0.090 H 
ATOM    130  H   SGN d  64      17.080  30.679  48.421  0.00  0.00     0.231 HD
ATOM    131  H   SGN d  64      16.695  32.992  47.251  0.00  0.00     0.076 H 
ATOM    132  H   SGN d  64      17.747  31.038  46.196  0.00  0.00     0.231 HD
ATOM    133  H   SGN d  64      17.611  32.470  45.257  0.00  0.00     0.210 HD
ATOM    134  H   SGN d  64      16.699  34.535  49.187  0.00  0.00     0.131 H 
ATOM    135  H   SGN d  64      20.484  30.166  48.081  0.00  0.00     0.231 HD
ATOM    136  H   SGN d  64      15.929  34.222  45.241  0.00  0.00     0.091 H 
ATOM    137  H   SGN d  64      15.417  37.865  45.516  0.00  0.00     0.080 H 
ATOM    138  H   SGN d  64      14.923  36.380  44.711  0.00  0.00     0.080 H 
ATOM    139  H   SGN d  64      18.493  33.199  49.035  0.00  0.00     0.140 HD
ATOM    140  C1  IDS d  61      19.637  31.530  34.682  0.00  0.00     0.167 C 
ATOM    141  O5  IDS d  61      19.350  32.816  34.074  0.00  0.00    -0.311 OA
ATOM    142  C5  IDS d  61      18.067  33.104  33.630  0.00  0.00     0.147 C 
ATOM    143  C6  IDS d  61      17.806  34.567  33.099  0.00  0.00     0.233 C 
ATOM    144  C2  IDS d  61      18.912  30.451  33.885  0.00  0.00     0.135 C 
ATOM    145  O1S IDS d  61      20.902  32.516  32.198  0.00  0.00    -0.572 OA
ATOM    146  O3S IDS d  61      22.011  30.499  32.913  0.00  0.00    -0.572 OA
ATOM    147  O3  IDS d  61      16.833  30.194  34.888  0.00  0.00    -0.389 OA
ATOM    148  C4  IDS d  61      17.098  32.150  33.537  0.00  0.00    -0.034 C 
ATOM    149  C3  IDS d  61      17.412  30.706  33.740  0.00  0.00     0.086 C 
ATOM    150  O61 IDS d  61      16.701  34.866  32.642  0.00  0.00    -0.642 OA
ATOM    151  O62 IDS d  61      18.733  35.413  33.111  0.00  0.00    -0.642 OA
ATOM    152  O2S IDS d  61      21.227  30.841  30.678  0.00  0.00    -0.572 OA
ATOM    153  S   IDS d  61      20.989  31.086  32.059  0.00  0.00     0.252 S 
ATOM    154  O2  IDS d  61      19.422  30.384  32.542  0.00  0.00    -0.244 OA
ATOM    155  H   IDS d  61      20.694  31.359  34.691  0.00  0.00     0.134 H 
ATOM    156  H   IDS d  61      19.076  29.548  34.435  0.00  0.00     0.097 H 
ATOM    157  H   IDS d  61      17.064  29.256  34.976  0.00  0.00     0.210 HD
ATOM    158  H   IDS d  61      16.129  32.432  33.324  0.00  0.00     0.085 H 
ATOM    159  H   IDS d  61      17.021  30.229  32.867  0.00  0.00     0.093 H 
ENDROOT
TORSDOF 50
ENDMDL
MODEL 2
REMARK VINA RESULT:      -6.6      1.295      1.481
REMARK  0 active torsions:
REMARK  status: ('A' for Active; 'I' for Inactive)
REMARK       I    between atoms: O3S_3  and  S1_55 
REMARK       I    between atoms: O3_4  and  C3_87 
REMARK       I    between atoms: O4_5  and  C1_15 
REMARK       I    between atoms: O4_5  and  C4_57 
REMARK       I    between atoms: O4_7  and  C1_36 
REMARK       I    between atoms: O4_7  and  C4_89 
REMARK       I    between atoms: C4_8  and  O4_18 
REMARK       I    between atoms: C2_9  and  O2_84 
REMARK       I    between atoms: C6_10  and  C5_32 
REMARK       I    between atoms: C6_10  and  O6_102 
REMARK       I    between atoms: O6_11  and  C6_93 
REMARK       I    between atoms: O6_11  and  S2_25 
REMARK       I    between atoms: C1_13  and  O4_74 
REMARK       I    between atoms: C3_14  and  O3_71 
REMARK       I    between atoms: O4_18  and  C1_54 
REMARK       I    between atoms: S2_19  and  O6_39 
REMARK       I    between atoms: O2S_21  and  S1_45 
REMARK       I    between atoms: C5_22  and  C6_23 
REMARK       I    between atoms: C5_24  and  C6_77 
REMARK       I    between atoms: O1_27  and  C1_48 
REMARK       I    between atoms: C5_28  and  C6_30 
REMARK       I    between atoms: C5_29  and  C6_93 
REMARK       I    between atoms: O1S_31  and  S1_44 
REMARK       I    between atoms: C3_33  and  O3_69 
REMARK       I    between atoms: C2_37  and  N_99 
REMARK       I    between atoms: S2_38  and  O6_102 
REMARK       I    between atoms: O6_39  and  C6_77 
REMARK       I    between atoms: C2_40  and  O2_103 
REMARK       I    between atoms: O3S_42  and  S1_44 
REMARK       I    between atoms: S1_44  and  N_99 
REMARK       I    between atoms: S1_44  and  O2S_81 
REMARK       I    between atoms: S1_45  and  N_94 
REMARK       I    between atoms: S1_45  and  O1S_46 
REMARK       I    between atoms: S1_45  and  O3S_58 
REMARK       I    between atoms: O3_52  and  C3_105 
REMARK       I    between atoms: S1_55  and  N_100 
REMARK       I    between atoms: S1_55  and  O1S_79 
REMARK       I    between atoms: S1_55  and  O2S_83 
REMARK       I    between atoms: O3_56  and  C3_64 
REMARK       I    between atoms: C4_60  and  O4_61 
REMARK       I    between atoms: O4_61  and  C1_73 
REMARK       I    between atoms: C6_63  and  C5_80 
REMARK       I    between atoms: C3_65  and  O3_82 
REMARK       I    between atoms: S_67  and  O2_84 
REMARK       I    between atoms: C2_68  and  O2_98 
REMARK       I    between atoms: O4_74  and  C4_97 
REMARK       I    between atoms: C2_85  and  N_94 
REMARK       I    between atoms: C2_95  and  N_100 
REMARK       I    between atoms: O2_98  and  S_104 
REMARK       I    between atoms: S_101  and  O2_103 
ROOT
ATOM      1  O6S SGN d  66      23.239  42.508  53.650  0.00  0.00    -0.572 OA
ATOM      2  C4  SGN d  66      19.041  40.901  52.010  0.00  0.00     0.095 C 
ATOM      3  C6  SGN d  66      20.140  40.093  54.134  0.00  0.00     0.067 C 
ATOM      4  O4  SGN d  66      19.770  39.842  51.228  0.00  0.00    -0.348 OA
ATOM      5  O5S SGN d  66      23.343  40.148  53.926  0.00  0.00    -0.572 OA
ATOM      6  O2S SGN d  66      14.743  44.439  53.232  0.00  0.00    -0.296 OA
ATOM      7  O5  SGN d  66      18.065  41.452  54.196  0.00  0.00    -0.350 OA
ATOM      8  O1  SGN d  66      15.904  40.675  53.475  0.00  0.00    -0.369 OA
ATOM      9  C5  SGN d  66      18.800  40.422  53.450  0.00  0.00     0.091 C 
ATOM     10  S2  SGN d  66      22.566  41.254  53.375  0.00  0.00     0.251 S 
ATOM     11  S1  SGN d  66      14.341  43.296  52.436  0.00  0.00     0.156 S 
ATOM     12  O1S SGN d  66      13.318  43.656  51.464  0.00  0.00    -0.296 OA
ATOM     13  C1  SGN d  66      16.771  41.818  53.611  0.00  0.00     0.147 C 
ATOM     14  O3S SGN d  66      13.792  42.241  53.275  0.00  0.00    -0.296 OA
ATOM     15  C3  SGN d  66      17.722  41.313  51.335  0.00  0.00     0.083 C 
ATOM     16  O3  SGN d  66      18.005  41.904  50.067  0.00  0.00    -0.391 OA
ATOM     17  C2  SGN d  66      17.034  42.375  52.197  0.00  0.00     0.081 C 
ATOM     18  O4S SGN d  66      22.397  41.110  51.936  0.00  0.00    -0.572 OA
ATOM     19  N   SGN d  66      15.781  42.759  51.532  0.00  0.00    -0.210 NA
ATOM     20  O6  SGN d  66      20.985  41.266  54.194  0.00  0.00    -0.254 OA
ATOM     21  H   SGN d  66      19.659  41.774  52.035  0.00  0.00     0.091 H 
ATOM     22  H   SGN d  66      20.639  39.328  53.578  0.00  0.00     0.080 H 
ATOM     23  H   SGN d  66      19.943  39.759  55.132  0.00  0.00     0.080 H 
ATOM     24  H   SGN d  66      15.105  45.125  52.651  0.00  0.00     0.231 HD
ATOM     25  H   SGN d  66      15.720  40.302  54.351  0.00  0.00     0.212 HD
ATOM     26  H   SGN d  66      18.212  39.528  53.433  0.00  0.00     0.090 H 
ATOM     27  H   SGN d  66      13.655  44.360  50.888  0.00  0.00     0.231 HD
ATOM     28  H   SGN d  66      16.298  42.531  54.252  0.00  0.00     0.131 H 
ATOM     29  H   SGN d  66      14.451  41.978  53.936  0.00  0.00     0.231 HD
ATOM     30  H   SGN d  66      17.099  40.451  51.217  0.00  0.00     0.089 H 
ATOM     31  H   SGN d  66      18.570  42.682  50.193  0.00  0.00     0.210 HD
ATOM     32  H   SGN d  66      17.659  43.237  52.304  0.00  0.00     0.076 H 
ATOM     33  H   SGN d  66      16.019  43.524  50.900  0.00  0.00     0.140 HD
ATOM     34  O61 IDS d  65      16.325  38.742  47.901  0.00  0.00    -0.646 OA
ATOM     35  O3  IDS d  65      20.083  35.767  50.142  0.00  0.00    -0.390 OA
ATOM     36  C5  IDS d  65      18.339  38.915  49.176  0.00  0.00     0.152 C 
ATOM     37  C6  IDS d  65      17.373  39.414  48.069  0.00  0.00     0.206 C 
ATOM     38  O5  IDS d  65      19.526  39.766  49.154  0.00  0.00    -0.340 OA
ATOM     39  C1  IDS d  65      20.564  39.450  50.118  0.00  0.00     0.161 C 
ATOM     40  O1S IDS d  65      22.217  35.130  52.074  0.00  0.00    -0.572 OA
ATOM     41  C4  IDS d  65      18.709  37.394  49.072  0.00  0.00     0.103 C 
ATOM     42  O4  IDS d  65      18.035  37.007  47.871  0.00  0.00    -0.348 OA
ATOM     43  C2  IDS d  65      20.490  38.008  50.703  0.00  0.00     0.134 C 
ATOM     44  O62 IDS d  65      17.663  40.462  47.417  0.00  0.00    -0.646 OA
ATOM     45  C3  IDS d  65      20.117  37.054  49.613  0.00  0.00     0.094 C 
ATOM     46  O2S IDS d  65      20.359  36.337  52.955  0.00  0.00    -0.572 OA
ATOM     47  O3S IDS d  65      22.556  36.922  53.636  0.00  0.00    -0.572 OA
ATOM     48  O2  IDS d  65      21.765  37.598  51.174  0.00  0.00    -0.244 OA
ATOM     49  S   IDS d  65      21.740  36.436  52.527  0.00  0.00     0.252 S 
ATOM     50  H   IDS d  65      19.842  35.137  49.445  0.00  0.00     0.210 HD
ATOM     51  H   IDS d  65      17.835  38.992  50.116  0.00  0.00     0.104 H 
ATOM     52  H   IDS d  65      21.522  39.765  49.761  0.00  0.00     0.133 H 
ATOM     53  H   IDS d  65      18.386  36.628  49.746  0.00  0.00     0.092 H 
ATOM     54  H   IDS d  65      19.774  38.009  51.498  0.00  0.00     0.097 H 
ATOM     55  H   IDS d  65      20.832  37.125  48.820  0.00  0.00     0.091 H 
ATOM     56  O3S SGN d  62      19.500  37.982  38.887  0.00  0.00    -0.296 OA
ATOM     57  C1  SGN d  62      19.888  34.538  39.144  0.00  0.00     0.150 C 
ATOM     58  S2  SGN d  62      21.409  28.832  38.445  0.00  0.00     0.251 S 
ATOM     59  C5  SGN d  62      20.277  32.372  37.978  0.00  0.00     0.091 C 
ATOM     60  O5  SGN d  62      20.813  33.464  38.779  0.00  0.00    -0.349 OA
ATOM     61  O4S SGN d  62      22.735  28.513  38.032  0.00  0.00    -0.572 OA
ATOM     62  O6  SGN d  62      20.777  30.141  37.475  0.00  0.00    -0.254 OA
ATOM     63  O3  SGN d  62      17.900  34.405  35.987  0.00  0.00    -0.391 OA
ATOM     64  S1  SGN d  62      18.353  37.570  38.113  0.00  0.00     0.156 S 
ATOM     65  O6S SGN d  62      21.323  29.195  39.857  0.00  0.00    -0.572 OA
ATOM     66  O4  SGN d  62      19.187  31.822  35.913  0.00  0.00    -0.348 OA
ATOM     67  C6  SGN d  62      21.395  31.394  37.706  0.00  0.00     0.067 C 
ATOM     68  O5S SGN d  62      20.532  27.717  38.212  0.00  0.00    -0.572 OA
ATOM     69  O1S SGN d  62      17.145  38.247  38.536  0.00  0.00    -0.296 OA
ATOM     70  O2S SGN d  62      18.650  37.796  36.728  0.00  0.00    -0.296 OA
ATOM     71  C2  SGN d  62      19.169  35.012  37.889  0.00  0.00     0.081 C 
ATOM     72  C4  SGN d  62      19.688  32.923  36.669  0.00  0.00     0.095 C 
ATOM     73  N   SGN d  62      18.082  35.853  38.278  0.00  0.00    -0.210 NA
ATOM     74  C3  SGN d  62      18.545  33.855  37.103  0.00  0.00     0.083 C 
ATOM     75  H   SGN d  62      19.323  37.838  39.830  0.00  0.00     0.231 HD
ATOM     76  H   SGN d  62      20.482  35.305  39.596  0.00  0.00     0.131 H 
ATOM     77  H   SGN d  62      19.489  31.872  38.502  0.00  0.00     0.090 H 
ATOM     78  H   SGN d  62      17.184  34.989  36.282  0.00  0.00     0.210 HD
ATOM     79  H   SGN d  62      22.050  31.335  38.550  0.00  0.00     0.080 H 
ATOM     80  H   SGN d  62      21.984  31.699  36.866  0.00  0.00     0.080 H 
ATOM     81  H   SGN d  62      16.984  38.066  39.476  0.00  0.00     0.231 HD
ATOM     82  H   SGN d  62      19.464  37.325  36.491  0.00  0.00     0.231 HD
ATOM     83  H   SGN d  62      19.895  35.509  37.280  0.00  0.00     0.076 H 
ATOM     84  H   SGN d  62      20.399  33.447  36.064  0.00  0.00     0.091 H 
ATOM     85  H   SGN d  62      17.276  35.607  37.704  0.00  0.00     0.140 HD
ATOM     86  H   SGN d  62      17.838  33.299  37.683  0.00  0.00     0.089 H 
ATOM     87  O4  IDS d  63      18.893  34.154  40.101  0.00  0.00    -0.348 OA
ATOM     88  O62 IDS d  63      18.056  31.709  42.732  0.00  0.00    -0.646 OA
ATOM     89  C2  IDS d  63      16.875  36.196  41.289  0.00  0.00     0.134 C 
ATOM     90  O2S IDS d  63      14.093  36.612  39.974  0.00  0.00    -0.572 OA
ATOM     91  O61 IDS d  63      20.122  32.350  42.652  0.00  0.00    -0.646 OA
ATOM     92  C3  IDS d  63      18.404  36.317  41.310  0.00  0.00     0.094 C 
ATOM     93  C1  IDS d  63      16.389  35.383  42.521  0.00  0.00     0.161 C 
ATOM     94  O5  IDS d  63      16.946  34.048  42.418  0.00  0.00    -0.340 OA
ATOM     95  C4  IDS d  63      19.056  34.867  41.320  0.00  0.00     0.103 C 
ATOM     96  C6  IDS d  63      18.915  32.585  42.613  0.00  0.00     0.206 C 
ATOM     97  S   IDS d  63      14.759  35.324  39.829  0.00  0.00     0.252 S 
ATOM     98  O3  IDS d  63      18.698  36.995  42.512  0.00  0.00    -0.390 OA
ATOM     99  C5  IDS d  63      18.433  34.026  42.466  0.00  0.00     0.152 C 
ATOM    100  O2  IDS d  63      16.486  35.625  40.068  0.00  0.00    -0.244 OA
ATOM    101  O1S IDS d  63      14.639  34.783  38.488  0.00  0.00    -0.572 OA
ATOM    102  O3S IDS d  63      14.167  34.439  40.790  0.00  0.00    -0.572 OA
ATOM    103  H   IDS d  63      16.414  37.159  41.361  0.00  0.00     0.097 H 
ATOM    104  H   IDS d  63      18.788  36.834  40.456  0.00  0.00     0.091 H 
ATOM    105  H   IDS d  63      15.327  35.269  42.587  0.00  0.00     0.133 H 
ATOM    106  H   IDS d  63      20.106  35.017  41.462  0.00  0.00     0.092 H 
ATOM    107  H   IDS d  63      18.336  36.496  43.261  0.00  0.00     0.210 HD
ATOM    108  H   IDS d  63      18.798  34.527  43.338  0.00  0.00     0.104 H 
ATOM    109  O4  SGN d  64      16.861  36.124  43.688  0.00  0.00    -0.348 OA
ATOM    110  O6  SGN d  64      13.654  37.106  46.132  0.00  0.00    -0.254 OA
ATOM    111  C3  SGN d  64      17.958  35.260  45.696  0.00  0.00     0.083 C 
ATOM    112  S2  SGN d  64      13.028  35.447  46.322  0.00  0.00     0.251 S 
ATOM    113  C5  SGN d  64      16.045  36.855  45.831  0.00  0.00     0.091 C 
ATOM    114  O1S SGN d  64      18.801  31.936  48.648  0.00  0.00    -0.296 OA
ATOM    115  C2  SGN d  64      17.677  34.809  47.096  0.00  0.00     0.081 C 
ATOM    116  O4S SGN d  64      12.569  35.000  45.033  0.00  0.00    -0.572 OA
ATOM    117  O3S SGN d  64      19.302  32.198  46.344  0.00  0.00    -0.296 OA
ATOM    118  S1  SGN d  64      19.487  32.764  47.668  0.00  0.00     0.156 S 
ATOM    119  O6S SGN d  64      14.053  34.550  46.815  0.00  0.00    -0.572 OA
ATOM    120  O5S SGN d  64      11.938  35.475  47.259  0.00  0.00    -0.572 OA
ATOM    121  O3  SGN d  64      18.526  34.179  45.049  0.00  0.00    -0.391 OA
ATOM    122  C1  SGN d  64      17.068  35.957  47.860  0.00  0.00     0.150 C 
ATOM    123  O2S SGN d  64      20.892  32.848  47.958  0.00  0.00    -0.296 OA
ATOM    124  C4  SGN d  64      16.620  35.673  45.030  0.00  0.00     0.095 C 
ATOM    125  O5  SGN d  64      15.857  36.376  47.195  0.00  0.00    -0.349 OA
ATOM    126  C6  SGN d  64      14.731  37.304  45.226  0.00  0.00     0.067 C 
ATOM    127  N   SGN d  64      18.913  34.438  47.739  0.00  0.00    -0.210 NA
ATOM    128  H   SGN d  64      18.618  36.101  45.659  0.00  0.00     0.089 H 
ATOM    129  H   SGN d  64      16.702  37.700  45.814  0.00  0.00     0.090 H 
ATOM    130  H   SGN d  64      17.857  31.894  48.431  0.00  0.00     0.231 HD
ATOM    131  H   SGN d  64      17.010  33.973  47.078  0.00  0.00     0.076 H 
ATOM    132  H   SGN d  64      18.354  32.139  46.146  0.00  0.00     0.231 HD
ATOM    133  H   SGN d  64      17.920  33.422  45.089  0.00  0.00     0.210 HD
ATOM    134  H   SGN d  64      16.814  35.679  48.861  0.00  0.00     0.131 H 
ATOM    135  H   SGN d  64      21.280  31.960  47.937  0.00  0.00     0.231 HD
ATOM    136  H   SGN d  64      15.949  34.839  45.013  0.00  0.00     0.091 H 
ATOM    137  H   SGN d  64      14.796  38.343  44.983  0.00  0.00     0.080 H 
ATOM    138  H   SGN d  64      14.546  36.721  44.348  0.00  0.00     0.080 H 
ATOM    139  H   SGN d  64      18.813  34.673  48.726  0.00  0.00     0.140 HD
ATOM    140  C1  IDS d  61      19.639  31.794  34.543  0.00  0.00     0.167 C 
ATOM    141  O5  IDS d  61      19.098  32.942  33.838  0.00  0.00    -0.311 OA
ATOM    142  C5  IDS d  61      17.765  32.952  33.447  0.00  0.00     0.147 C 
ATOM    143  C6  IDS d  61      17.221  34.285  32.800  0.00  0.00     0.233 C 
ATOM    144  C2  IDS d  61      19.089  30.529  33.893  0.00  0.00     0.135 C 
ATOM    145  O1S IDS d  61      20.598  32.733  31.909  0.00  0.00    -0.572 OA
ATOM    146  O3S IDS d  61      22.084  31.026  32.739  0.00  0.00    -0.572 OA
ATOM    147  O3  IDS d  61      17.135  30.012  35.037  0.00  0.00    -0.389 OA
ATOM    148  C4  IDS d  61      16.984  31.838  33.500  0.00  0.00    -0.034 C 
ATOM    149  C3  IDS d  61      17.562  30.500  33.815  0.00  0.00     0.086 C 
ATOM    150  O61 IDS d  61      16.062  34.336  32.385  0.00  0.00    -0.642 OA
ATOM    151  O62 IDS d  61      17.979  35.278  32.680  0.00  0.00    -0.642 OA
ATOM    152  O2S IDS d  61      21.158  30.998  30.532  0.00  0.00    -0.572 OA
ATOM    153  S   IDS d  61      20.937  31.335  31.897  0.00  0.00     0.252 S 
ATOM    154  O2  IDS d  61      19.545  30.419  32.534  0.00  0.00    -0.244 OA
ATOM    155  H   IDS d  61      20.708  31.815  34.506  0.00  0.00     0.134 H 
ATOM    156  H   IDS d  61      19.437  29.730  34.514  0.00  0.00     0.097 H 
ATOM    157  H   IDS d  61      17.536  29.144  35.198  0.00  0.00     0.210 HD
ATOM    158  H   IDS d  61      15.971  31.921  33.319  0.00  0.00     0.085 H 
ATOM    159  H   IDS d  61      17.228  29.875  33.014  0.00  0.00     0.093 H 
ENDROOT
TORSDOF 50
ENDMDL
MODEL 3
REMARK VINA RESULT:      -6.5      3.683      5.482
REMARK  0 active torsions:
REMARK  status: ('A' for Active; 'I' for Inactive)
REMARK       I    between atoms: O3S_3  and  S1_55 
REMARK       I    between atoms: O3_4  and  C3_87 
REMARK       I    between atoms: O4_5  and  C1_15 
REMARK       I    between atoms: O4_5  and  C4_57 
REMARK       I    between atoms: O4_7  and  C1_36 
REMARK       I    between atoms: O4_7  and  C4_89 
REMARK       I    between atoms: C4_8  and  O4_18 
REMARK       I    between atoms: C2_9  and  O2_84 
REMARK       I    between atoms: C6_10  and  C5_32 
REMARK       I    between atoms: C6_10  and  O6_102 
REMARK       I    between atoms: O6_11  and  C6_93 
REMARK       I    between atoms: O6_11  and  S2_25 
REMARK       I    between atoms: C1_13  and  O4_74 
REMARK       I    between atoms: C3_14  and  O3_71 
REMARK       I    between atoms: O4_18  and  C1_54 
REMARK       I    between atoms: S2_19  and  O6_39 
REMARK       I    between atoms: O2S_21  and  S1_45 
REMARK       I    between atoms: C5_22  and  C6_23 
REMARK       I    between atoms: C5_24  and  C6_77 
REMARK       I    between atoms: O1_27  and  C1_48 
REMARK       I    between atoms: C5_28  and  C6_30 
REMARK       I    between atoms: C5_29  and  C6_93 
REMARK       I    between atoms: O1S_31  and  S1_44 
REMARK       I    between atoms: C3_33  and  O3_69 
REMARK       I    between atoms: C2_37  and  N_99 
REMARK       I    between atoms: S2_38  and  O6_102 
REMARK       I    between atoms: O6_39  and  C6_77 
REMARK       I    between atoms: C2_40  and  O2_103 
REMARK       I    between atoms: O3S_42  and  S1_44 
REMARK       I    between atoms: S1_44  and  N_99 
REMARK       I    between atoms: S1_44  and  O2S_81 
REMARK       I    between atoms: S1_45  and  N_94 
REMARK       I    between atoms: S1_45  and  O1S_46 
REMARK       I    between atoms: S1_45  and  O3S_58 
REMARK       I    between atoms: O3_52  and  C3_105 
REMARK       I    between atoms: S1_55  and  N_100 
REMARK       I    between atoms: S1_55  and  O1S_79 
REMARK       I    between atoms: S1_55  and  O2S_83 
REMARK       I    between atoms: O3_56  and  C3_64 
REMARK       I    between atoms: C4_60  and  O4_61 
REMARK       I    between atoms: O4_61  and  C1_73 
REMARK       I    between atoms: C6_63  and  C5_80 
REMARK       I    between atoms: C3_65  and  O3_82 
REMARK       I    between atoms: S_67  and  O2_84 
REMARK       I    between atoms: C2_68  and  O2_98 
REMARK       I    between atoms: O4_74  and  C4_97 
REMARK       I    between atoms: C2_85  and  N_94 
REMARK       I    between atoms: C2_95  and  N_100 
REMARK       I    between atoms: O2_98  and  S_104 
REMARK       I    between atoms: S_101  and  O2_103 
ROOT
ATOM      1  O6S SGN d  66      20.753  32.282  54.118  0.00  0.00    -0.572 OA
ATOM      2  C4  SGN d  66      17.546  33.283  50.712  0.00  0.00     0.095 C 
ATOM      3  C6  SGN d  66      17.338  31.364  52.339  0.00  0.00     0.067 C 
ATOM      4  O4  SGN d  66      18.303  32.396  49.761  0.00  0.00    -0.348 OA
ATOM      5  O5S SGN d  66      20.204  30.174  53.165  0.00  0.00    -0.572 OA
ATOM      6  O2S SGN d  66      14.053  37.530  52.208  0.00  0.00    -0.296 OA
ATOM      7  O5  SGN d  66      15.819  33.322  52.458  0.00  0.00    -0.350 OA
ATOM      8  O1  SGN d  66      14.122  33.832  50.829  0.00  0.00    -0.369 OA
ATOM      9  C5  SGN d  66      16.571  32.444  51.553  0.00  0.00     0.091 C 
ATOM     10  S2  SGN d  66      20.028  31.619  53.053  0.00  0.00     0.251 S 
ATOM     11  S1  SGN d  66      13.824  37.042  50.862  0.00  0.00     0.156 S 
ATOM     12  O1S SGN d  66      13.470  38.125  49.956  0.00  0.00    -0.296 OA
ATOM     13  C1  SGN d  66      15.054  34.377  51.784  0.00  0.00     0.147 C 
ATOM     14  O3S SGN d  66      12.737  36.076  50.833  0.00  0.00    -0.296 OA
ATOM     15  C3  SGN d  66      16.811  34.419  49.981  0.00  0.00     0.083 C 
ATOM     16  O3  SGN d  66      17.767  35.269  49.349  0.00  0.00    -0.391 OA
ATOM     17  C2  SGN d  66      16.053  35.261  51.010  0.00  0.00     0.081 C 
ATOM     18  O4S SGN d  66      20.514  32.107  51.770  0.00  0.00    -0.572 OA
ATOM     19  N   SGN d  66      15.364  36.344  50.295  0.00  0.00    -0.210 NA
ATOM     20  O6  SGN d  66      18.293  31.970  53.242  0.00  0.00    -0.254 OA
ATOM     21  H   SGN d  66      18.256  33.746  51.364  0.00  0.00     0.091 H 
ATOM     22  H   SGN d  66      17.858  30.731  51.651  0.00  0.00     0.080 H 
ATOM     23  H   SGN d  66      16.637  30.793  52.913  0.00  0.00     0.080 H 
ATOM     24  H   SGN d  66      14.781  38.170  52.201  0.00  0.00     0.231 HD
ATOM     25  H   SGN d  66      13.480  33.270  51.289  0.00  0.00     0.212 HD
ATOM     26  H   SGN d  66      15.879  31.948  50.905  0.00  0.00     0.090 H 
ATOM     27  H   SGN d  66      14.178  38.788  49.953  0.00  0.00     0.231 HD
ATOM     28  H   SGN d  66      14.507  34.924  52.523  0.00  0.00     0.131 H 
ATOM     29  H   SGN d  66      12.942  35.339  51.429  0.00  0.00     0.231 HD
ATOM     30  H   SGN d  66      16.142  34.002  49.258  0.00  0.00     0.089 H 
ATOM     31  H   SGN d  66      18.364  35.637  50.018  0.00  0.00     0.210 HD
ATOM     32  H   SGN d  66      16.729  35.682  51.726  0.00  0.00     0.076 H 
ATOM     33  H   SGN d  66      16.026  37.119  50.249  0.00  0.00     0.140 HD
ATOM     34  O61 IDS d  65      16.631  34.141  45.482  0.00  0.00    -0.646 OA
ATOM     35  O3  IDS d  65      18.187  29.285  46.897  0.00  0.00    -0.390 OA
ATOM     36  C5  IDS d  65      17.815  32.981  47.204  0.00  0.00     0.152 C 
ATOM     37  C6  IDS d  65      17.601  34.207  46.277  0.00  0.00     0.206 C 
ATOM     38  O5  IDS d  65      19.032  33.210  47.979  0.00  0.00    -0.340 OA
ATOM     39  C1  IDS d  65      19.412  32.160  48.906  0.00  0.00     0.161 C 
ATOM     40  O1S IDS d  65      18.996  27.157  48.770  0.00  0.00    -0.572 OA
ATOM     41  C4  IDS d  65      17.851  31.603  46.453  0.00  0.00     0.103 C 
ATOM     42  O4  IDS d  65      17.739  32.008  45.087  0.00  0.00    -0.348 OA
ATOM     43  C2  IDS d  65      18.766  30.772  48.617  0.00  0.00     0.134 C 
ATOM     44  O62 IDS d  65      18.379  35.203  46.375  0.00  0.00    -0.646 OA
ATOM     45  C3  IDS d  65      18.740  30.541  47.140  0.00  0.00     0.094 C 
ATOM     46  O2S IDS d  65      17.253  28.593  49.536  0.00  0.00    -0.572 OA
ATOM     47  O3S IDS d  65      18.959  27.923  51.045  0.00  0.00    -0.572 OA
ATOM     48  O2  IDS d  65      19.558  29.732  49.171  0.00  0.00    -0.244 OA
ATOM     49  S   IDS d  65      18.661  28.269  49.658  0.00  0.00     0.252 S 
ATOM     50  H   IDS d  65      18.163  29.122  45.942  0.00  0.00     0.210 HD
ATOM     51  H   IDS d  65      16.965  32.899  47.848  0.00  0.00     0.104 H 
ATOM     52  H   IDS d  65      20.470  32.162  49.069  0.00  0.00     0.133 H 
ATOM     53  H   IDS d  65      17.096  30.847  46.507  0.00  0.00     0.092 H 
ATOM     54  H   IDS d  65      17.784  30.769  49.041  0.00  0.00     0.097 H 
ATOM     55  H   IDS d  65      19.735  30.603  46.753  0.00  0.00     0.091 H 
ATOM     56  O3S SGN d  62      23.348  35.583  38.796  0.00  0.00    -0.296 OA
ATOM     57  C1  SGN d  62      22.816  32.464  37.359  0.00  0.00     0.150 C 
ATOM     58  S2  SGN d  62      23.207  27.357  34.337  0.00  0.00     0.251 S 
ATOM     59  C5  SGN d  62      23.216  30.940  35.430  0.00  0.00     0.091 C 
ATOM     60  O5  SGN d  62      23.546  31.328  36.794  0.00  0.00    -0.349 OA
ATOM     61  O4S SGN d  62      24.469  26.703  34.242  0.00  0.00    -0.572 OA
ATOM     62  O6  SGN d  62      23.393  29.068  34.035  0.00  0.00    -0.254 OA
ATOM     63  O3  SGN d  62      22.529  34.352  34.151  0.00  0.00    -0.391 OA
ATOM     64  S1  SGN d  62      22.627  36.001  37.616  0.00  0.00     0.156 S 
ATOM     65  O6S SGN d  62      22.562  27.166  35.633  0.00  0.00    -0.572 OA
ATOM     66  O4  SGN d  62      23.110  31.704  33.158  0.00  0.00    -0.348 OA
ATOM     67  C6  SGN d  62      24.091  29.770  35.048  0.00  0.00     0.067 C 
ATOM     68  O5S SGN d  62      22.317  26.878  33.315  0.00  0.00    -0.572 OA
ATOM     69  O1S SGN d  62      21.540  36.901  37.939  0.00  0.00    -0.296 OA
ATOM     70  O2S SGN d  62      23.570  36.586  36.707  0.00  0.00    -0.296 OA
ATOM     71  C2  SGN d  62      22.878  33.623  36.374  0.00  0.00     0.081 C 
ATOM     72  C4  SGN d  62      23.432  32.131  34.480  0.00  0.00     0.095 C 
ATOM     73  N   SGN d  62      21.946  34.623  36.790  0.00  0.00    -0.210 NA
ATOM     74  C3  SGN d  62      22.451  33.211  34.962  0.00  0.00     0.083 C 
ATOM     75  H   SGN d  62      22.730  35.182  39.428  0.00  0.00     0.231 HD
ATOM     76  H   SGN d  62      23.286  32.689  38.294  0.00  0.00     0.131 H 
ATOM     77  H   SGN d  62      22.188  30.651  35.359  0.00  0.00     0.090 H 
ATOM     78  H   SGN d  62      21.904  35.020  34.471  0.00  0.00     0.210 HD
ATOM     79  H   SGN d  62      24.254  29.136  35.895  0.00  0.00     0.080 H 
ATOM     80  H   SGN d  62      25.051  30.097  34.706  0.00  0.00     0.080 H 
ATOM     81  H   SGN d  62      20.930  36.464  38.554  0.00  0.00     0.231 HD
ATOM     82  H   SGN d  62      24.278  35.949  36.521  0.00  0.00     0.231 HD
ATOM     83  H   SGN d  62      23.890  33.967  36.357  0.00  0.00     0.076 H 
ATOM     84  H   SGN d  62      24.436  32.501  34.476  0.00  0.00     0.091 H 
ATOM     85  H   SGN d  62      21.462  34.964  35.959  0.00  0.00     0.140 HD
ATOM     86  H   SGN d  62      21.454  32.822  34.932  0.00  0.00     0.089 H 
ATOM     87  O4  IDS d  63      21.435  32.194  37.632  0.00  0.00    -0.348 OA
ATOM     88  O62 IDS d  63      18.972  29.520  38.248  0.00  0.00    -0.646 OA
ATOM     89  C2  IDS d  63      19.594  34.275  39.024  0.00  0.00     0.134 C 
ATOM     90  O2S IDS d  63      17.896  36.255  37.340  0.00  0.00    -0.572 OA
ATOM     91  O61 IDS d  63      20.926  29.235  39.133  0.00  0.00    -0.646 OA
ATOM     92  C3  IDS d  63      20.928  33.741  39.565  0.00  0.00     0.094 C 
ATOM     93  C1  IDS d  63      18.433  33.338  39.454  0.00  0.00     0.161 C 
ATOM     94  O5  IDS d  63      18.669  32.037  38.857  0.00  0.00    -0.340 OA
ATOM     95  C4  IDS d  63      21.169  32.264  39.027  0.00  0.00     0.103 C 
ATOM     96  C6  IDS d  63      19.956  29.940  38.859  0.00  0.00     0.206 C 
ATOM     97  S   IDS d  63      18.256  34.965  36.766  0.00  0.00     0.252 S 
ATOM     98  O3  IDS d  63      20.774  33.733  40.967  0.00  0.00    -0.390 OA
ATOM     99  C5  IDS d  63      19.922  31.390  39.332  0.00  0.00     0.152 C 
ATOM    100  O2  IDS d  63      19.698  34.418  37.632  0.00  0.00    -0.244 OA
ATOM    101  O1S IDS d  63      18.653  35.067  35.374  0.00  0.00    -0.572 OA
ATOM    102  O3S IDS d  63      17.112  34.112  36.908  0.00  0.00    -0.572 OA
ATOM    103  H   IDS d  63      19.374  35.237  39.436  0.00  0.00     0.097 H 
ATOM    104  H   IDS d  63      21.763  34.333  39.257  0.00  0.00     0.091 H 
ATOM    105  H   IDS d  63      17.463  33.653  39.129  0.00  0.00     0.133 H 
ATOM    106  H   IDS d  63      22.040  31.904  39.535  0.00  0.00     0.092 H 
ATOM    107  H   IDS d  63      20.009  33.187  41.206  0.00  0.00     0.210 HD
ATOM    108  H   IDS d  63      19.944  31.331  40.400  0.00  0.00     0.104 H 
ATOM    109  O4  SGN d  64      18.463  33.323  40.914  0.00  0.00    -0.348 OA
ATOM    110  O6  SGN d  64      14.791  34.539  42.417  0.00  0.00    -0.254 OA
ATOM    111  C3  SGN d  64      18.295  31.401  42.419  0.00  0.00     0.083 C 
ATOM    112  S2  SGN d  64      13.804  33.345  41.533  0.00  0.00     0.251 S 
ATOM    113  C5  SGN d  64      16.933  33.462  42.767  0.00  0.00     0.091 C 
ATOM    114  O1S SGN d  64      16.939  27.187  43.349  0.00  0.00    -0.296 OA
ATOM    115  C2  SGN d  64      17.310  30.618  43.231  0.00  0.00     0.081 C 
ATOM    116  O4S SGN d  64      13.905  33.645  40.128  0.00  0.00    -0.572 OA
ATOM    117  O3S SGN d  64      18.488  28.061  41.780  0.00  0.00    -0.296 OA
ATOM    118  S1  SGN d  64      18.161  27.960  43.191  0.00  0.00     0.156 S 
ATOM    119  O6S SGN d  64      14.264  31.994  41.780  0.00  0.00    -0.572 OA
ATOM    120  O5S SGN d  64      12.440  33.465  41.973  0.00  0.00    -0.572 OA
ATOM    121  O3  SGN d  64      18.847  30.512  41.517  0.00  0.00    -0.391 OA
ATOM    122  C1  SGN d  64      16.684  31.536  44.248  0.00  0.00     0.150 C 
ATOM    123  O2S SGN d  64      19.255  27.346  43.891  0.00  0.00    -0.296 OA
ATOM    124  C4  SGN d  64      17.540  32.544  41.691  0.00  0.00     0.095 C 
ATOM    125  O5  SGN d  64      16.039  32.630  43.563  0.00  0.00    -0.349 OA
ATOM    126  C6  SGN d  64      16.177  34.601  42.114  0.00  0.00     0.067 C 
ATOM    127  N   SGN d  64      17.998  29.561  43.931  0.00  0.00    -0.210 NA
ATOM    128  H   SGN d  64      19.063  31.844  43.018  0.00  0.00     0.089 H 
ATOM    129  H   SGN d  64      17.690  33.902  43.383  0.00  0.00     0.090 H 
ATOM    130  H   SGN d  64      16.217  27.620  42.869  0.00  0.00     0.231 HD
ATOM    131  H   SGN d  64      16.563  30.203  42.588  0.00  0.00     0.076 H 
ATOM    132  H   SGN d  64      17.750  28.476  41.305  0.00  0.00     0.231 HD
ATOM    133  H   SGN d  64      18.142  30.116  40.980  0.00  0.00     0.210 HD
ATOM    134  H   SGN d  64      15.944  31.034  44.836  0.00  0.00     0.131 H 
ATOM    135  H   SGN d  64      19.405  26.455  43.537  0.00  0.00     0.231 HD
ATOM    136  H   SGN d  64      16.789  32.132  41.049  0.00  0.00     0.091 H 
ATOM    137  H   SGN d  64      16.571  35.530  42.469  0.00  0.00     0.080 H 
ATOM    138  H   SGN d  64      16.296  34.521  41.053  0.00  0.00     0.080 H 
ATOM    139  H   SGN d  64      17.508  29.428  44.816  0.00  0.00     0.140 HD
ATOM    140  C1  IDS d  61      24.123  32.008  32.178  0.00  0.00     0.167 C 
ATOM    141  O5  IDS d  61      24.231  33.448  32.034  0.00  0.00    -0.311 OA
ATOM    142  C5  IDS d  61      23.267  34.151  31.323  0.00  0.00     0.147 C 
ATOM    143  C6  IDS d  61      23.385  35.724  31.320  0.00  0.00     0.233 C 
ATOM    144  C2  IDS d  61      23.674  31.426  30.842  0.00  0.00     0.135 C 
ATOM    145  O1S IDS d  61      26.365  33.382  30.827  0.00  0.00    -0.572 OA
ATOM    146  O3S IDS d  61      26.891  31.042  31.070  0.00  0.00    -0.572 OA
ATOM    147  O3  IDS d  61      21.353  31.369  30.910  0.00  0.00    -0.389 OA
ATOM    148  C4  IDS d  61      22.327  33.525  30.560  0.00  0.00    -0.034 C 
ATOM    149  C3  IDS d  61      22.390  32.057  30.304  0.00  0.00     0.086 C 
ATOM    150  O61 IDS d  61      22.591  36.398  30.663  0.00  0.00    -0.642 OA
ATOM    151  O62 IDS d  61      24.309  36.284  31.959  0.00  0.00    -0.642 OA
ATOM    152  O2S IDS d  61      27.104  32.225  29.000  0.00  0.00    -0.572 OA
ATOM    153  S   IDS d  61      26.359  32.084  30.205  0.00  0.00     0.252 S 
ATOM    154  O2  IDS d  61      24.669  31.656  29.830  0.00  0.00    -0.244 OA
ATOM    155  H   IDS d  61      25.065  31.601  32.480  0.00  0.00     0.134 H 
ATOM    156  H   IDS d  61      23.515  30.385  31.038  0.00  0.00     0.097 H 
ATOM    157  H   IDS d  61      21.436  30.422  30.715  0.00  0.00     0.210 HD
ATOM    158  H   IDS d  61      21.557  34.077  30.152  0.00  0.00     0.085 H 
ATOM    159  H   IDS d  61      22.335  31.974  29.239  0.00  0.00     0.093 H 
ENDROOT
TORSDOF 50
ENDMDL
MODEL 4
REMARK VINA RESULT:      -6.4      3.145     16.276
REMARK  0 active torsions:
REMARK  status: ('A' for Active; 'I' for Inactive)
REMARK       I    between atoms: O3S_3  and  S1_55 
REMARK       I    between atoms: O3_4  and  C3_87 
REMARK       I    between atoms: O4_5  and  C1_15 
REMARK       I    between atoms: O4_5  and  C4_57 
REMARK       I    between atoms: O4_7  and  C1_36 
REMARK       I    between atoms: O4_7  and  C4_89 
REMARK       I    between atoms: C4_8  and  O4_18 
REMARK       I    between atoms: C2_9  and  O2_84 
REMARK       I    between atoms: C6_10  and  C5_32 
REMARK       I    between atoms: C6_10  and  O6_102 
REMARK       I    between atoms: O6_11  and  C6_93 
REMARK       I    between atoms: O6_11  and  S2_25 
REMARK       I    between atoms: C1_13  and  O4_74 
REMARK       I    between atoms: C3_14  and  O3_71 
REMARK       I    between atoms: O4_18  and  C1_54 
REMARK       I    between atoms: S2_19  and  O6_39 
REMARK       I    between atoms: O2S_21  and  S1_45 
REMARK       I    between atoms: C5_22  and  C6_23 
REMARK       I    between atoms: C5_24  and  C6_77 
REMARK       I    between atoms: O1_27  and  C1_48 
REMARK       I    between atoms: C5_28  and  C6_30 
REMARK       I    between atoms: C5_29  and  C6_93 
REMARK       I    between atoms: O1S_31  and  S1_44 
REMARK       I    between atoms: C3_33  and  O3_69 
REMARK       I    between atoms: C2_37  and  N_99 
REMARK       I    between atoms: S2_38  and  O6_102 
REMARK       I    between atoms: O6_39  and  C6_77 
REMARK       I    between atoms: C2_40  and  O2_103 
REMARK       I    between atoms: O3S_42  and  S1_44 
REMARK       I    between atoms: S1_44  and  N_99 
REMARK       I    between atoms: S1_44  and  O2S_81 
REMARK       I    between atoms: S1_45  and  N_94 
REMARK       I    between atoms: S1_45  and  O1S_46 
REMARK       I    between atoms: S1_45  and  O3S_58 
REMARK       I    between atoms: O3_52  and  C3_105 
REMARK       I    between atoms: S1_55  and  N_100 
REMARK       I    between atoms: S1_55  and  O1S_79 
REMARK       I    between atoms: S1_55  and  O2S_83 
REMARK       I    between atoms: O3_56  and  C3_64 
REMARK       I    between atoms: C4_60  and  O4_61 
REMARK       I    between atoms: O4_61  and  C1_73 
REMARK       I    between atoms: C6_63  and  C5_80 
REMARK       I    between atoms: C3_65  and  O3_82 
REMARK       I    between atoms: S_67  and  O2_84 
REMARK       I    between atoms: C2_68  and  O2_98 
REMARK       I    between atoms: O4_74  and  C4_97 
REMARK       I    between atoms: C2_85  and  N_94 
REMARK       I    between atoms: C2_95  and  N_100 
REMARK       I    between atoms: O2_98  and  S_104 
REMARK       I    between atoms: S_101  and  O2_103 
ROOT
ATOM      1  O6S SGN d  66      16.782  34.360  34.933  0.00  0.00    -0.572 OA
ATOM      2  C4  SGN d  66      18.771  31.444  38.162  0.00  0.00     0.095 C 
ATOM      3  C6  SGN d  66      16.437  31.163  37.242  0.00  0.00     0.067 C 
ATOM      4  O4  SGN d  66      18.234  32.320  39.261  0.00  0.00    -0.348 OA
ATOM      5  O5S SGN d  66      15.074  33.985  36.545  0.00  0.00    -0.572 OA
ATOM      6  O2S SGN d  66      22.303  27.661  35.776  0.00  0.00    -0.296 OA
ATOM      7  O5  SGN d  66      18.246  29.563  36.673  0.00  0.00    -0.350 OA
ATOM      8  O1  SGN d  66      19.226  28.005  38.223  0.00  0.00    -0.369 OA
ATOM      9  C5  SGN d  66      17.702  30.430  37.726  0.00  0.00     0.091 C 
ATOM     10  S2  SGN d  66      16.479  33.763  36.218  0.00  0.00     0.251 S 
ATOM     11  S1  SGN d  66      22.261  27.577  37.223  0.00  0.00     0.156 S 
ATOM     12  O1S SGN d  66      23.570  27.265  37.778  0.00  0.00    -0.296 OA
ATOM     13  C1  SGN d  66      19.451  28.822  37.058  0.00  0.00     0.147 C 
ATOM     14  O3S SGN d  66      21.343  26.536  37.660  0.00  0.00    -0.296 OA
ATOM     15  C3  SGN d  66      20.073  30.735  38.573  0.00  0.00     0.083 C 
ATOM     16  O3  SGN d  66      21.087  31.710  38.810  0.00  0.00    -0.391 OA
ATOM     17  C2  SGN d  66      20.543  29.852  37.414  0.00  0.00     0.081 C 
ATOM     18  O4S SGN d  66      17.350  34.346  37.230  0.00  0.00    -0.572 OA
ATOM     19  N   SGN d  66      21.789  29.189  37.822  0.00  0.00    -0.210 NA
ATOM     20  O6  SGN d  66      16.738  32.006  36.105  0.00  0.00    -0.254 OA
ATOM     21  H   SGN d  66      19.013  32.072  37.330  0.00  0.00     0.091 H 
ATOM     22  H   SGN d  66      16.057  31.769  38.037  0.00  0.00     0.080 H 
ATOM     23  H   SGN d  66      15.709  30.436  36.948  0.00  0.00     0.080 H 
ATOM     24  H   SGN d  66      22.920  28.361  35.511  0.00  0.00     0.231 HD
ATOM     25  H   SGN d  66      18.542  27.345  38.028  0.00  0.00     0.212 HD
ATOM     26  H   SGN d  66      17.429  29.820  38.562  0.00  0.00     0.090 H 
ATOM     27  H   SGN d  66      24.207  27.943  37.503  0.00  0.00     0.231 HD
ATOM     28  H   SGN d  66      19.734  28.188  36.245  0.00  0.00     0.131 H 
ATOM     29  H   SGN d  66      20.458  26.715  37.306  0.00  0.00     0.231 HD
ATOM     30  H   SGN d  66      19.897  30.153  39.453  0.00  0.00     0.089 H 
ATOM     31  H   SGN d  66      21.232  32.228  38.003  0.00  0.00     0.210 HD
ATOM     32  H   SGN d  66      20.724  30.442  36.539  0.00  0.00     0.076 H 
ATOM     33  H   SGN d  66      22.545  29.821  37.558  0.00  0.00     0.140 HD
ATOM     34  O61 IDS d  65      21.218  30.982  42.929  0.00  0.00    -0.646 OA
ATOM     35  O3  IDS d  65      16.178  32.594  42.946  0.00  0.00    -0.390 OA
ATOM     36  C5  IDS d  65      19.587  32.048  41.544  0.00  0.00     0.152 C 
ATOM     37  C6  IDS d  65      21.040  31.872  42.060  0.00  0.00     0.206 C 
ATOM     38  O5  IDS d  65      19.572  33.178  40.619  0.00  0.00    -0.340 OA
ATOM     39  C1  IDS d  65      18.288  33.512  40.030  0.00  0.00     0.161 C 
ATOM     40  O1S IDS d  65      13.577  33.310  41.758  0.00  0.00    -0.572 OA
ATOM     41  C4  IDS d  65      18.515  32.208  42.679  0.00  0.00     0.103 C 
ATOM     42  O4  IDS d  65      19.327  32.207  43.855  0.00  0.00    -0.348 OA
ATOM     43  C2  IDS d  65      17.055  32.952  40.801  0.00  0.00     0.134 C 
ATOM     44  O62 IDS d  65      21.962  32.597  41.579  0.00  0.00    -0.646 OA
ATOM     45  C3  IDS d  65      17.299  33.071  42.271  0.00  0.00     0.094 C 
ATOM     46  O2S IDS d  65      14.685  31.449  40.762  0.00  0.00    -0.572 OA
ATOM     47  O3S IDS d  65      13.590  33.032  39.373  0.00  0.00    -0.572 OA
ATOM     48  O2  IDS d  65      15.901  33.729  40.522  0.00  0.00    -0.244 OA
ATOM     49  S   IDS d  65      14.351  32.851  40.606  0.00  0.00     0.252 S 
ATOM     50  H   IDS d  65      16.322  32.665  43.903  0.00  0.00     0.210 HD
ATOM     51  H   IDS d  65      19.300  31.146  41.046  0.00  0.00     0.104 H 
ATOM     52  H   IDS d  65      18.249  34.550  39.771  0.00  0.00     0.133 H 
ATOM     53  H   IDS d  65      17.773  31.482  42.939  0.00  0.00     0.092 H 
ATOM     54  H   IDS d  65      16.910  31.936  40.499  0.00  0.00     0.097 H 
ATOM     55  H   IDS d  65      17.488  34.095  42.518  0.00  0.00     0.091 H 
ATOM     56  O3S SGN d  62      24.744  38.226  48.125  0.00  0.00    -0.296 OA
ATOM     57  C1  SGN d  62      22.229  37.954  50.507  0.00  0.00     0.150 C 
ATOM     58  S2  SGN d  62      18.331  38.826  54.913  0.00  0.00     0.251 S 
ATOM     59  C5  SGN d  62      21.390  38.591  52.764  0.00  0.00     0.091 C 
ATOM     60  O5  SGN d  62      21.334  38.778  51.321  0.00  0.00    -0.349 OA
ATOM     61  O4S SGN d  62      17.751  40.116  55.080  0.00  0.00    -0.572 OA
ATOM     62  O6  SGN d  62      20.052  38.971  54.647  0.00  0.00    -0.254 OA
ATOM     63  O3  SGN d  62      25.025  37.889  52.980  0.00  0.00    -0.391 OA
ATOM     64  S1  SGN d  62      25.505  37.601  49.182  0.00  0.00     0.156 S 
ATOM     65  O6S SGN d  62      17.737  38.072  53.813  0.00  0.00    -0.572 OA
ATOM     66  O4  SGN d  62      22.827  38.665  54.684  0.00  0.00    -0.348 OA
ATOM     67  C6  SGN d  62      20.407  39.544  53.401  0.00  0.00     0.067 C 
ATOM     68  O5S SGN d  62      18.189  38.054  56.118  0.00  0.00    -0.572 OA
ATOM     69  O1S SGN d  62      26.248  36.454  48.706  0.00  0.00    -0.296 OA
ATOM     70  O2S SGN d  62      26.354  38.600  49.765  0.00  0.00    -0.296 OA
ATOM     71  C2  SGN d  62      23.639  38.060  51.071  0.00  0.00     0.081 C 
ATOM     72  C4  SGN d  62      22.821  38.846  53.270  0.00  0.00     0.095 C 
ATOM     73  N   SGN d  62      24.449  37.055  50.461  0.00  0.00    -0.210 NA
ATOM     74  C3  SGN d  62      23.687  37.782  52.577  0.00  0.00     0.083 C 
ATOM     75  H   SGN d  62      24.160  37.569  47.715  0.00  0.00     0.231 HD
ATOM     76  H   SGN d  62      22.153  38.326  49.507  0.00  0.00     0.131 H 
ATOM     77  H   SGN d  62      21.129  37.587  53.025  0.00  0.00     0.090 H 
ATOM     78  H   SGN d  62      25.554  37.211  52.533  0.00  0.00     0.210 HD
ATOM     79  H   SGN d  62      19.541  39.652  52.783  0.00  0.00     0.080 H 
ATOM     80  H   SGN d  62      20.834  40.517  53.527  0.00  0.00     0.080 H 
ATOM     81  H   SGN d  62      25.635  35.807  48.322  0.00  0.00     0.231 HD
ATOM     82  H   SGN d  62      25.813  39.346  50.069  0.00  0.00     0.231 HD
ATOM     83  H   SGN d  62      23.980  39.055  50.879  0.00  0.00     0.076 H 
ATOM     84  H   SGN d  62      23.182  39.831  53.058  0.00  0.00     0.091 H 
ATOM     85  H   SGN d  62      25.030  36.637  51.188  0.00  0.00     0.140 HD
ATOM     86  H   SGN d  62      23.318  36.809  52.826  0.00  0.00     0.089 H 
ATOM     87  O4  IDS d  63      21.875  36.565  50.472  0.00  0.00    -0.348 OA
ATOM     88  O62 IDS d  63      19.120  34.165  50.969  0.00  0.00    -0.646 OA
ATOM     89  C2  IDS d  63      23.397  34.523  48.693  0.00  0.00     0.134 C 
ATOM     90  O2S IDS d  63      25.790  32.909  49.839  0.00  0.00    -0.572 OA
ATOM     91  O61 IDS d  63      18.589  36.039  50.025  0.00  0.00    -0.646 OA
ATOM     92  C3  IDS d  63      22.732  35.820  48.215  0.00  0.00     0.094 C 
ATOM     93  C1  IDS d  63      22.362  33.364  48.695  0.00  0.00     0.161 C 
ATOM     94  O5  IDS d  63      21.316  33.707  49.641  0.00  0.00    -0.340 OA
ATOM     95  C4  IDS d  63      21.501  36.169  49.158  0.00  0.00     0.103 C 
ATOM     96  C6  IDS d  63      19.336  35.071  50.162  0.00  0.00     0.206 C 
ATOM     97  S   IDS d  63      24.749  33.372  50.746  0.00  0.00     0.252 S 
ATOM     98  O3  IDS d  63      22.284  35.538  46.908  0.00  0.00    -0.390 OA
ATOM     99  C5  IDS d  63      20.565  34.935  49.267  0.00  0.00     0.152 C 
ATOM    100  O2  IDS d  63      23.970  34.749  49.953  0.00  0.00    -0.244 OA
ATOM    101  O1S IDS d  63      25.286  33.891  51.991  0.00  0.00    -0.572 OA
ATOM    102  O3S IDS d  63      23.884  32.255  50.992  0.00  0.00    -0.572 OA
ATOM    103  H   IDS d  63      24.180  34.227  48.026  0.00  0.00     0.097 H 
ATOM    104  H   IDS d  63      23.399  36.657  48.238  0.00  0.00     0.091 H 
ATOM    105  H   IDS d  63      22.755  32.417  49.002  0.00  0.00     0.133 H 
ATOM    106  H   IDS d  63      21.008  37.003  48.703  0.00  0.00     0.092 H 
ATOM    107  H   IDS d  63      21.684  34.777  46.929  0.00  0.00     0.210 HD
ATOM    108  H   IDS d  63      20.173  34.861  48.275  0.00  0.00     0.104 H 
ATOM    109  O4  SGN d  64      21.890  33.260  47.317  0.00  0.00    -0.348 OA
ATOM    110  O6  SGN d  64      22.541  29.420  45.886  0.00  0.00    -0.254 OA
ATOM    111  C3  SGN d  64      19.592  33.030  46.509  0.00  0.00     0.083 C 
ATOM    112  S2  SGN d  64      21.676  28.567  47.192  0.00  0.00     0.251 S 
ATOM    113  C5  SGN d  64      21.428  31.561  45.676  0.00  0.00     0.091 C 
ATOM    114  O1S SGN d  64      15.287  31.764  47.078  0.00  0.00    -0.296 OA
ATOM    115  C2  SGN d  64      18.585  32.007  46.085  0.00  0.00     0.081 C 
ATOM    116  O4S SGN d  64      22.402  28.785  48.416  0.00  0.00    -0.572 OA
ATOM    117  O3S SGN d  64      16.623  33.415  48.134  0.00  0.00    -0.296 OA
ATOM    118  S1  SGN d  64      16.082  32.963  46.865  0.00  0.00     0.156 S 
ATOM    119  O6S SGN d  64      20.319  29.056  47.333  0.00  0.00    -0.572 OA
ATOM    120  O5S SGN d  64      21.640  27.164  46.876  0.00  0.00    -0.572 OA
ATOM    121  O3  SGN d  64      19.036  33.699  47.583  0.00  0.00    -0.391 OA
ATOM    122  C1  SGN d  64      19.132  31.253  44.900  0.00  0.00     0.150 C 
ATOM    123  O2S SGN d  64      15.288  34.011  46.285  0.00  0.00    -0.296 OA
ATOM    124  C4  SGN d  64      20.899  32.301  46.918  0.00  0.00     0.095 C 
ATOM    125  O5  SGN d  64      20.380  30.631  45.272  0.00  0.00    -0.349 OA
ATOM    126  C6  SGN d  64      22.707  30.824  46.015  0.00  0.00     0.067 C 
ATOM    127  N   SGN d  64      17.368  32.669  45.683  0.00  0.00    -0.210 NA
ATOM    128  H   SGN d  64      19.832  33.721  45.728  0.00  0.00     0.089 H 
ATOM    129  H   SGN d  64      21.659  32.239  44.881  0.00  0.00     0.090 H 
ATOM    130  H   SGN d  64      15.843  31.073  47.469  0.00  0.00     0.231 HD
ATOM    131  H   SGN d  64      18.386  31.339  46.897  0.00  0.00     0.076 H 
ATOM    132  H   SGN d  64      17.159  32.708  48.527  0.00  0.00     0.231 HD
ATOM    133  H   SGN d  64      18.822  33.063  48.284  0.00  0.00     0.210 HD
ATOM    134  H   SGN d  64      18.464  30.483  44.575  0.00  0.00     0.131 H 
ATOM    135  H   SGN d  64      14.556  34.229  46.881  0.00  0.00     0.231 HD
ATOM    136  H   SGN d  64      20.702  31.629  47.727  0.00  0.00     0.091 H 
ATOM    137  H   SGN d  64      23.481  31.147  45.350  0.00  0.00     0.080 H 
ATOM    138  H   SGN d  64      22.965  31.044  47.030  0.00  0.00     0.080 H 
ATOM    139  H   SGN d  64      16.960  32.105  44.937  0.00  0.00     0.140 HD
ATOM    140  C1  IDS d  61      23.433  39.751  55.414  0.00  0.00     0.167 C 
ATOM    141  O5  IDS d  61      24.846  39.815  55.091  0.00  0.00    -0.311 OA
ATOM    142  C5  IDS d  61      25.727  38.893  55.642  0.00  0.00     0.147 C 
ATOM    143  C6  IDS d  61      27.223  38.948  55.143  0.00  0.00     0.233 C 
ATOM    144  C2  IDS d  61      23.295  39.451  56.903  0.00  0.00     0.135 C 
ATOM    145  O1S IDS d  61      25.181  42.051  56.039  0.00  0.00    -0.572 OA
ATOM    146  O3S IDS d  61      22.888  42.646  56.485  0.00  0.00    -0.572 OA
ATOM    147  O3  IDS d  61      23.199  37.138  57.090  0.00  0.00    -0.389 OA
ATOM    148  C4  IDS d  61      25.364  38.054  56.651  0.00  0.00    -0.034 C 
ATOM    149  C3  IDS d  61      24.051  38.198  57.344  0.00  0.00     0.086 C 
ATOM    150  O61 IDS d  61      28.062  38.191  55.634  0.00  0.00    -0.642 OA
ATOM    151  O62 IDS d  61      27.563  39.786  54.271  0.00  0.00    -0.642 OA
ATOM    152  O2S IDS d  61      24.662  43.002  58.051  0.00  0.00    -0.572 OA
ATOM    153  S   IDS d  61      24.144  42.155  57.031  0.00  0.00     0.252 S 
ATOM    154  O2  IDS d  61      23.840  40.525  57.688  0.00  0.00    -0.244 OA
ATOM    155  H   IDS d  61      22.959  40.677  55.161  0.00  0.00     0.134 H 
ATOM    156  H   IDS d  61      22.244  39.316  57.058  0.00  0.00     0.097 H 
ATOM    157  H   IDS d  61      22.361  37.276  57.560  0.00  0.00     0.210 HD
ATOM    158  H   IDS d  61      26.009  37.303  56.943  0.00  0.00     0.085 H 
ATOM    159  H   IDS d  61      24.306  38.246  58.381  0.00  0.00     0.093 H 
ENDROOT
TORSDOF 50
ENDMDL
MODEL 5
REMARK VINA RESULT:      -6.3      2.236      2.771
REMARK  0 active torsions:
REMARK  status: ('A' for Active; 'I' for Inactive)
REMARK       I    between atoms: O3S_3  and  S1_55 
REMARK       I    between atoms: O3_4  and  C3_87 
REMARK       I    between atoms: O4_5  and  C1_15 
REMARK       I    between atoms: O4_5  and  C4_57 
REMARK       I    between atoms: O4_7  and  C1_36 
REMARK       I    between atoms: O4_7  and  C4_89 
REMARK       I    between atoms: C4_8  and  O4_18 
REMARK       I    between atoms: C2_9  and  O2_84 
REMARK       I    between atoms: C6_10  and  C5_32 
REMARK       I    between atoms: C6_10  and  O6_102 
REMARK       I    between atoms: O6_11  and  C6_93 
REMARK       I    between atoms: O6_11  and  S2_25 
REMARK       I    between atoms: C1_13  and  O4_74 
REMARK       I    between atoms: C3_14  and  O3_71 
REMARK       I    between atoms: O4_18  and  C1_54 
REMARK       I    between atoms: S2_19  and  O6_39 
REMARK       I    between atoms: O2S_21  and  S1_45 
REMARK       I    between atoms: C5_22  and  C6_23 
REMARK       I    between atoms: C5_24  and  C6_77 
REMARK       I    between atoms: O1_27  and  C1_48 
REMARK       I    between atoms: C5_28  and  C6_30 
REMARK       I    between atoms: C5_29  and  C6_93 
REMARK       I    between atoms: O1S_31  and  S1_44 
REMARK       I    between atoms: C3_33  and  O3_69 
REMARK       I    between atoms: C2_37  and  N_99 
REMARK       I    between atoms: S2_38  and  O6_102 
REMARK       I    between atoms: O6_39  and  C6_77 
REMARK       I    between atoms: C2_40  and  O2_103 
REMARK       I    between atoms: O3S_42  and  S1_44 
REMARK       I    between atoms: S1_44  and  N_99 
REMARK       I    between atoms: S1_44  and  O2S_81 
REMARK       I    between atoms: S1_45  and  N_94 
REMARK       I    between atoms: S1_45  and  O1S_46 
REMARK       I    between atoms: S1_45  and  O3S_58 
REMARK       I    between atoms: O3_52  and  C3_105 
REMARK       I    between atoms: S1_55  and  N_100 
REMARK       I    between atoms: S1_55  and  O1S_79 
REMARK       I    between atoms: S1_55  and  O2S_83 
REMARK       I    between atoms: O3_56  and  C3_64 
REMARK       I    between atoms: C4_60  and  O4_61 
REMARK       I    between atoms: O4_61  and  C1_73 
REMARK       I    between atoms: C6_63  and  C5_80 
REMARK       I    between atoms: C3_65  and  O3_82 
REMARK       I    between atoms: S_67  and  O2_84 
REMARK       I    between atoms: C2_68  and  O2_98 
REMARK       I    between atoms: O4_74  and  C4_97 
REMARK       I    between atoms: C2_85  and  N_94 
REMARK       I    between atoms: C2_95  and  N_100 
REMARK       I    between atoms: O2_98  and  S_104 
REMARK       I    between atoms: S_101  and  O2_103 
ROOT
ATOM      1  O6S SGN d  66      23.495  40.546  55.107  0.00  0.00    -0.572 OA
ATOM      2  C4  SGN d  66      19.998  37.559  53.785  0.00  0.00     0.095 C 
ATOM      3  C6  SGN d  66      21.766  37.006  55.501  0.00  0.00     0.067 C 
ATOM      4  O4  SGN d  66      20.888  37.026  52.695  0.00  0.00    -0.348 OA
ATOM      5  O5S SGN d  66      24.565  38.438  54.845  0.00  0.00    -0.572 OA
ATOM      6  O2S SGN d  66      15.053  38.744  56.358  0.00  0.00    -0.296 OA
ATOM      7  O5  SGN d  66      19.397  37.339  56.157  0.00  0.00    -0.350 OA
ATOM      8  O1  SGN d  66      17.605  35.829  55.606  0.00  0.00    -0.369 OA
ATOM      9  C5  SGN d  66      20.288  36.829  55.106  0.00  0.00     0.091 C 
ATOM     10  S2  SGN d  66      23.318  39.177  54.667  0.00  0.00     0.251 S 
ATOM     11  S1  SGN d  66      14.959  37.660  55.400  0.00  0.00     0.156 S 
ATOM     12  O1S SGN d  66      13.689  37.684  54.689  0.00  0.00    -0.296 OA
ATOM     13  C1  SGN d  66      17.967  37.201  55.860  0.00  0.00     0.147 C 
ATOM     14  O3S SGN d  66      15.064  36.368  56.061  0.00  0.00    -0.296 OA
ATOM     15  C3  SGN d  66      18.509  37.464  53.415  0.00  0.00     0.083 C 
ATOM     16  O3  SGN d  66      18.252  38.288  52.278  0.00  0.00    -0.391 OA
ATOM     17  C2  SGN d  66      17.673  38.006  54.577  0.00  0.00     0.081 C 
ATOM     18  O4S SGN d  66      22.903  39.174  53.271  0.00  0.00    -0.572 OA
ATOM     19  N   SGN d  66      16.255  37.913  54.202  0.00  0.00    -0.210 NA
ATOM     20  O6  SGN d  66      22.081  38.406  55.690  0.00  0.00    -0.254 OA
ATOM     21  H   SGN d  66      20.218  38.599  53.909  0.00  0.00     0.091 H 
ATOM     22  H   SGN d  66      22.386  36.609  54.725  0.00  0.00     0.080 H 
ATOM     23  H   SGN d  66      21.942  36.487  56.420  0.00  0.00     0.080 H 
ATOM     24  H   SGN d  66      14.982  39.592  55.893  0.00  0.00     0.231 HD
ATOM     25  H   SGN d  66      17.779  35.297  56.398  0.00  0.00     0.212 HD
ATOM     26  H   SGN d  66      20.105  35.782  54.981  0.00  0.00     0.090 H 
ATOM     27  H   SGN d  66      13.589  38.536  54.236  0.00  0.00     0.231 HD
ATOM     28  H   SGN d  66      17.410  37.552  56.702  0.00  0.00     0.131 H 
ATOM     29  H   SGN d  66      15.902  36.319  56.546  0.00  0.00     0.231 HD
ATOM     30  H   SGN d  66      18.260  36.445  53.205  0.00  0.00     0.089 H 
ATOM     31  H   SGN d  66      18.483  39.206  52.487  0.00  0.00     0.210 HD
ATOM     32  H   SGN d  66      17.922  39.028  54.777  0.00  0.00     0.076 H 
ATOM     33  H   SGN d  66      16.032  38.785  53.723  0.00  0.00     0.140 HD
ATOM     34  O61 IDS d  65      17.493  35.044  49.745  0.00  0.00    -0.646 OA
ATOM     35  O3  IDS d  65      22.507  33.657  50.716  0.00  0.00    -0.390 OA
ATOM     36  C5  IDS d  65      19.511  35.874  50.721  0.00  0.00     0.152 C 
ATOM     37  C6  IDS d  65      18.207  36.065  49.901  0.00  0.00     0.206 C 
ATOM     38  O5  IDS d  65      20.238  37.141  50.711  0.00  0.00    -0.340 OA
ATOM     39  C1  IDS d  65      21.503  37.164  51.423  0.00  0.00     0.161 C 
ATOM     40  O1S IDS d  65      25.092  33.722  52.133  0.00  0.00    -0.572 OA
ATOM     41  C4  IDS d  65      20.409  34.682  50.236  0.00  0.00     0.103 C 
ATOM     42  O4  IDS d  65      19.689  34.216  49.091  0.00  0.00    -0.348 OA
ATOM     43  C2  IDS d  65      22.126  35.760  51.685  0.00  0.00     0.134 C 
ATOM     44  O62 IDS d  65      17.916  37.217  49.457  0.00  0.00    -0.646 OA
ATOM     45  C3  IDS d  65      21.920  34.898  50.480  0.00  0.00     0.094 C 
ATOM     46  O2S IDS d  65      23.156  33.897  53.515  0.00  0.00    -0.572 OA
ATOM     47  O3S IDS d  65      25.047  35.256  53.980  0.00  0.00    -0.572 OA
ATOM     48  O2  IDS d  65      23.530  35.866  51.865  0.00  0.00    -0.244 OA
ATOM     49  S   IDS d  65      24.259  34.628  52.922  0.00  0.00     0.252 S 
ATOM     50  H   IDS d  65      22.380  33.087  49.942  0.00  0.00     0.210 HD
ATOM     51  H   IDS d  65      19.239  35.601  51.718  0.00  0.00     0.104 H 
ATOM     52  H   IDS d  65      22.160  37.899  51.007  0.00  0.00     0.133 H 
ATOM     53  H   IDS d  65      20.566  33.767  50.767  0.00  0.00     0.092 H 
ATOM     54  H   IDS d  65      21.662  35.348  52.556  0.00  0.00     0.097 H 
ATOM     55  H   IDS d  65      22.357  35.372  49.626  0.00  0.00     0.091 H 
ATOM     56  O3S SGN d  62      18.628  36.947  40.418  0.00  0.00    -0.296 OA
ATOM     57  C1  SGN d  62      20.367  33.991  39.862  0.00  0.00     0.150 C 
ATOM     58  S2  SGN d  62      23.785  29.617  37.727  0.00  0.00     0.251 S 
ATOM     59  C5  SGN d  62      21.296  32.375  38.210  0.00  0.00     0.091 C 
ATOM     60  O5  SGN d  62      21.530  33.469  39.142  0.00  0.00    -0.349 OA
ATOM     61  O4S SGN d  62      25.003  29.949  37.066  0.00  0.00    -0.572 OA
ATOM     62  O6  SGN d  62      22.496  30.657  37.167  0.00  0.00    -0.254 OA
ATOM     63  O3  SGN d  62      17.939  33.467  37.075  0.00  0.00    -0.391 OA
ATOM     64  S1  SGN d  62      17.589  36.200  39.748  0.00  0.00     0.156 S 
ATOM     65  O6S SGN d  62      23.881  29.712  39.181  0.00  0.00    -0.572 OA
ATOM     66  O4  SGN d  62      20.075  31.707  36.255  0.00  0.00    -0.348 OA
ATOM     67  C6  SGN d  62      22.615  32.009  37.572  0.00  0.00     0.067 C 
ATOM     68  O5S SGN d  62      23.381  28.280  37.387  0.00  0.00    -0.572 OA
ATOM     69  O1S SGN d  62      16.340  36.237  40.479  0.00  0.00    -0.296 OA
ATOM     70  O2S SGN d  62      17.460  36.719  38.417  0.00  0.00    -0.296 OA
ATOM     71  C2  SGN d  62      19.261  34.284  38.858  0.00  0.00     0.081 C 
ATOM     72  C4  SGN d  62      20.264  32.800  37.151  0.00  0.00     0.095 C 
ATOM     73  N   SGN d  62      18.049  34.525  39.574  0.00  0.00    -0.210 NA
ATOM     74  C3  SGN d  62      18.978  33.092  37.939  0.00  0.00     0.083 C 
ATOM     75  H   SGN d  62      18.734  36.613  41.323  0.00  0.00     0.231 HD
ATOM     76  H   SGN d  62      20.701  34.866  40.378  0.00  0.00     0.131 H 
ATOM     77  H   SGN d  62      20.901  31.522  38.721  0.00  0.00     0.090 H 
ATOM     78  H   SGN d  62      17.137  33.646  37.591  0.00  0.00     0.210 HD
ATOM     79  H   SGN d  62      23.411  32.116  38.279  0.00  0.00     0.080 H 
ATOM     80  H   SGN d  62      22.837  32.647  36.742  0.00  0.00     0.080 H 
ATOM     81  H   SGN d  62      16.475  35.878  41.371  0.00  0.00     0.231 HD
ATOM     82  H   SGN d  62      18.318  36.673  37.968  0.00  0.00     0.231 HD
ATOM     83  H   SGN d  62      19.582  35.120  38.272  0.00  0.00     0.076 H 
ATOM     84  H   SGN d  62      20.564  33.653  36.578  0.00  0.00     0.091 H 
ATOM     85  H   SGN d  62      17.295  34.043  39.083  0.00  0.00     0.140 HD
ATOM     86  H   SGN d  62      18.689  32.216  38.481  0.00  0.00     0.089 H 
ATOM     87  O4  IDS d  63      19.838  33.094  40.847  0.00  0.00    -0.348 OA
ATOM     88  O62 IDS d  63      20.621  30.188  42.977  0.00  0.00    -0.646 OA
ATOM     89  C2  IDS d  63      17.505  33.906  42.730  0.00  0.00     0.134 C 
ATOM     90  O2S IDS d  63      14.562  33.285  41.955  0.00  0.00    -0.572 OA
ATOM     91  O61 IDS d  63      22.203  31.645  42.738  0.00  0.00    -0.646 OA
ATOM     92  C3  IDS d  63      18.830  34.659  42.555  0.00  0.00     0.094 C 
ATOM     93  C1  IDS d  63      17.658  32.804  43.813  0.00  0.00     0.161 C 
ATOM     94  O5  IDS d  63      18.652  31.857  43.344  0.00  0.00    -0.340 OA
ATOM     95  C4  IDS d  63      19.978  33.634  42.155  0.00  0.00     0.103 C 
ATOM     96  C6  IDS d  63      21.024  31.351  42.928  0.00  0.00     0.206 C 
ATOM     97  S   IDS d  63      15.626  32.433  41.440  0.00  0.00     0.252 S 
ATOM     98  O3  IDS d  63      19.097  35.224  43.819  0.00  0.00    -0.390 OA
ATOM     99  C5  IDS d  63      20.001  32.459  43.169  0.00  0.00     0.152 C 
ATOM    100  O2  IDS d  63      17.107  33.399  41.484  0.00  0.00    -0.244 OA
ATOM    101  O1S IDS d  63      15.430  32.083  40.045  0.00  0.00    -0.572 OA
ATOM    102  O3S IDS d  63      15.652  31.257  42.261  0.00  0.00    -0.572 OA
ATOM    103  H   IDS d  63      16.735  34.565  43.076  0.00  0.00     0.097 H 
ATOM    104  H   IDS d  63      18.783  35.401  41.786  0.00  0.00     0.091 H 
ATOM    105  H   IDS d  63      16.767  32.243  44.007  0.00  0.00     0.133 H 
ATOM    106  H   IDS d  63      20.891  34.192  42.172  0.00  0.00     0.092 H 
ATOM    107  H   IDS d  63      19.133  34.521  44.487  0.00  0.00     0.210 HD
ATOM    108  H   IDS d  63      20.327  32.941  44.066  0.00  0.00     0.104 H 
ATOM    109  O4  SGN d  64      18.052  33.506  45.032  0.00  0.00    -0.348 OA
ATOM    110  O6  SGN d  64      15.346  32.694  48.071  0.00  0.00    -0.254 OA
ATOM    111  C3  SGN d  64      19.815  32.918  46.623  0.00  0.00     0.083 C 
ATOM    112  S2  SGN d  64      15.471  30.917  47.985  0.00  0.00     0.251 S 
ATOM    113  C5  SGN d  64      17.515  33.520  47.378  0.00  0.00     0.091 C 
ATOM    114  O1S SGN d  64      22.513  29.890  48.628  0.00  0.00    -0.296 OA
ATOM    115  C2  SGN d  64      20.049  32.203  47.918  0.00  0.00     0.081 C 
ATOM    116  O4S SGN d  64      14.947  30.500  46.711  0.00  0.00    -0.572 OA
ATOM    117  O3S SGN d  64      22.349  30.654  46.388  0.00  0.00    -0.296 OA
ATOM    118  S1  SGN d  64      22.588  31.056  47.763  0.00  0.00     0.156 S 
ATOM    119  O6S SGN d  64      16.845  30.479  48.118  0.00  0.00    -0.572 OA
ATOM    120  O5S SGN d  64      14.692  30.352  49.055  0.00  0.00    -0.572 OA
ATOM    121  O3  SGN d  64      20.599  32.279  45.681  0.00  0.00    -0.391 OA
ATOM    122  C1  SGN d  64      19.229  32.868  48.993  0.00  0.00     0.150 C 
ATOM    123  O2S SGN d  64      23.877  31.686  47.856  0.00  0.00    -0.296 OA
ATOM    124  C4  SGN d  64      18.310  32.815  46.264  0.00  0.00     0.095 C 
ATOM    125  O5  SGN d  64      17.835  32.824  48.618  0.00  0.00    -0.349 OA
ATOM    126  C6  SGN d  64      16.031  33.451  47.083  0.00  0.00     0.067 C 
ATOM    127  N   SGN d  64      21.442  32.304  48.278  0.00  0.00    -0.210 NA
ATOM    128  H   SGN d  64      20.071  33.956  46.674  0.00  0.00     0.089 H 
ATOM    129  H   SGN d  64      17.771  34.557  47.450  0.00  0.00     0.090 H 
ATOM    130  H   SGN d  64      21.637  29.484  48.547  0.00  0.00     0.231 HD
ATOM    131  H   SGN d  64      19.773  31.174  47.816  0.00  0.00     0.076 H 
ATOM    132  H   SGN d  64      21.479  30.228  46.323  0.00  0.00     0.231 HD
ATOM    133  H   SGN d  64      20.359  31.340  45.644  0.00  0.00     0.210 HD
ATOM    134  H   SGN d  64      19.332  32.374  49.936  0.00  0.00     0.131 H 
ATOM    135  H   SGN d  64      24.564  31.057  47.587  0.00  0.00     0.231 HD
ATOM    136  H   SGN d  64      18.029  31.787  46.165  0.00  0.00     0.091 H 
ATOM    137  H   SGN d  64      15.632  34.443  47.064  0.00  0.00     0.080 H 
ATOM    138  H   SGN d  64      15.897  32.972  46.136  0.00  0.00     0.080 H 
ATOM    139  H   SGN d  64      21.480  32.336  49.297  0.00  0.00     0.140 HD
ATOM    140  C1  IDS d  61      20.186  32.061  34.861  0.00  0.00     0.167 C 
ATOM    141  O5  IDS d  61      19.101  32.958  34.509  0.00  0.00    -0.311 OA
ATOM    142  C5  IDS d  61      17.818  32.458  34.327  0.00  0.00     0.147 C 
ATOM    143  C6  IDS d  61      16.670  33.511  34.072  0.00  0.00     0.233 C 
ATOM    144  C2  IDS d  61      20.040  30.785  34.039  0.00  0.00     0.135 C 
ATOM    145  O1S IDS d  61      20.095  33.670  32.383  0.00  0.00    -0.572 OA
ATOM    146  O3S IDS d  61      22.271  32.655  32.597  0.00  0.00    -0.572 OA
ATOM    147  O3  IDS d  61      18.747  29.339  35.316  0.00  0.00    -0.389 OA
ATOM    148  C4  IDS d  61      17.563  31.122  34.250  0.00  0.00    -0.034 C 
ATOM    149  C3  IDS d  61      18.669  30.125  34.179  0.00  0.00     0.086 C 
ATOM    150  O61 IDS d  61      15.522  33.125  33.850  0.00  0.00    -0.642 OA
ATOM    151  O62 IDS d  61      16.937  34.738  34.061  0.00  0.00    -0.642 OA
ATOM    152  O2S IDS d  61      20.964  32.543  30.596  0.00  0.00    -0.572 OA
ATOM    153  S   IDS d  61      20.939  32.563  32.019  0.00  0.00     0.252 S 
ATOM    154  O2  IDS d  61      20.190  31.067  32.637  0.00  0.00    -0.244 OA
ATOM    155  H   IDS d  61      21.127  32.537  34.674  0.00  0.00     0.134 H 
ATOM    156  H   IDS d  61      20.800  30.131  34.414  0.00  0.00     0.097 H 
ATOM    157  H   IDS d  61      19.478  28.708  35.223  0.00  0.00     0.210 HD
ATOM    158  H   IDS d  61      16.584  30.794  34.241  0.00  0.00     0.085 H 
ATOM    159  H   IDS d  61      18.435  29.535  33.319  0.00  0.00     0.093 H 
ENDROOT
TORSDOF 50
ENDMDL
MODEL 6
REMARK VINA RESULT:      -6.2      5.334      9.416
REMARK  0 active torsions:
REMARK  status: ('A' for Active; 'I' for Inactive)
REMARK       I    between atoms: O3S_3  and  S1_55 
REMARK       I    between atoms: O3_4  and  C3_87 
REMARK       I    between atoms: O4_5  and  C1_15 
REMARK       I    between atoms: O4_5  and  C4_57 
REMARK       I    between atoms: O4_7  and  C1_36 
REMARK       I    between atoms: O4_7  and  C4_89 
REMARK       I    between atoms: C4_8  and  O4_18 
REMARK       I    between atoms: C2_9  and  O2_84 
REMARK       I    between atoms: C6_10  and  C5_32 
REMARK       I    between atoms: C6_10  and  O6_102 
REMARK       I    between atoms: O6_11  and  C6_93 
REMARK       I    between atoms: O6_11  and  S2_25 
REMARK       I    between atoms: C1_13  and  O4_74 
REMARK       I    between atoms: C3_14  and  O3_71 
REMARK       I    between atoms: O4_18  and  C1_54 
REMARK       I    between atoms: S2_19  and  O6_39 
REMARK       I    between atoms: O2S_21  and  S1_45 
REMARK       I    between atoms: C5_22  and  C6_23 
REMARK       I    between atoms: C5_24  and  C6_77 
REMARK       I    between atoms: O1_27  and  C1_48 
REMARK       I    between atoms: C5_28  and  C6_30 
REMARK       I    between atoms: C5_29  and  C6_93 
REMARK       I    between atoms: O1S_31  and  S1_44 
REMARK       I    between atoms: C3_33  and  O3_69 
REMARK       I    between atoms: C2_37  and  N_99 
REMARK       I    between atoms: S2_38  and  O6_102 
REMARK       I    between atoms: O6_39  and  C6_77 
REMARK       I    between atoms: C2_40  and  O2_103 
REMARK       I    between atoms: O3S_42  and  S1_44 
REMARK       I    between atoms: S1_44  and  N_99 
REMARK       I    between atoms: S1_44  and  O2S_81 
REMARK       I    between atoms: S1_45  and  N_94 
REMARK       I    between atoms: S1_45  and  O1S_46 
REMARK       I    between atoms: S1_45  and  O3S_58 
REMARK       I    between atoms: O3_52  and  C3_105 
REMARK       I    between atoms: S1_55  and  N_100 
REMARK       I    between atoms: S1_55  and  O1S_79 
REMARK       I    between atoms: S1_55  and  O2S_83 
REMARK       I    between atoms: O3_56  and  C3_64 
REMARK       I    between atoms: C4_60  and  O4_61 
REMARK       I    between atoms: O4_61  and  C1_73 
REMARK       I    between atoms: C6_63  and  C5_80 
REMARK       I    between atoms: C3_65  and  O3_82 
REMARK       I    between atoms: S_67  and  O2_84 
REMARK       I    between atoms: C2_68  and  O2_98 
REMARK       I    between atoms: O4_74  and  C4_97 
REMARK       I    between atoms: C2_85  and  N_94 
REMARK       I    between atoms: C2_95  and  N_100 
REMARK       I    between atoms: O2_98  and  S_104 
REMARK       I    between atoms: S_101  and  O2_103 
ROOT
ATOM      1  O6S SGN d  66      21.495  27.984  48.943  0.00  0.00    -0.572 OA
ATOM      2  C4  SGN d  66      17.946  30.631  47.130  0.00  0.00     0.095 C 
ATOM      3  C6  SGN d  66      17.947  28.107  47.193  0.00  0.00     0.067 C 
ATOM      4  O4  SGN d  66      18.629  30.599  45.789  0.00  0.00    -0.348 OA
ATOM      5  O5S SGN d  66      20.908  26.899  46.909  0.00  0.00    -0.572 OA
ATOM      6  O2S SGN d  66      14.511  32.707  51.175  0.00  0.00    -0.296 OA
ATOM      7  O5  SGN d  66      16.398  29.429  48.610  0.00  0.00    -0.350 OA
ATOM      8  O1  SGN d  66      14.538  30.707  47.773  0.00  0.00    -0.369 OA
ATOM      9  C5  SGN d  66      17.080  29.375  47.310  0.00  0.00     0.091 C 
ATOM     10  S2  SGN d  66      20.686  28.076  47.744  0.00  0.00     0.251 S 
ATOM     11  S1  SGN d  66      14.164  33.153  49.839  0.00  0.00     0.156 S 
ATOM     12  O1S SGN d  66      13.696  34.531  49.842  0.00  0.00    -0.296 OA
ATOM     13  C1  SGN d  66      15.545  30.607  48.799  0.00  0.00     0.147 C 
ATOM     14  O3S SGN d  66      13.103  32.334  49.273  0.00  0.00    -0.296 OA
ATOM     15  C3  SGN d  66      17.115  31.911  47.325  0.00  0.00     0.083 C 
ATOM     16  O3  SGN d  66      17.983  33.043  47.313  0.00  0.00    -0.391 OA
ATOM     17  C2  SGN d  66      16.441  31.858  48.698  0.00  0.00     0.081 C 
ATOM     18  O4S SGN d  66      21.032  29.297  47.029  0.00  0.00    -0.572 OA
ATOM     19  N   SGN d  66      15.658  33.091  48.868  0.00  0.00    -0.210 NA
ATOM     20  O6  SGN d  66      18.970  28.090  48.216  0.00  0.00    -0.254 OA
ATOM     21  H   SGN d  66      18.705  30.640  47.884  0.00  0.00     0.091 H 
ATOM     22  H   SGN d  66      18.413  28.089  46.230  0.00  0.00     0.080 H 
ATOM     23  H   SGN d  66      17.320  27.249  47.319  0.00  0.00     0.080 H 
ATOM     24  H   SGN d  66      15.219  33.268  51.529  0.00  0.00     0.231 HD
ATOM     25  H   SGN d  66      13.958  29.931  47.813  0.00  0.00     0.212 HD
ATOM     26  H   SGN d  66      16.340  29.340  46.538  0.00  0.00     0.090 H 
ATOM     27  H   SGN d  66      14.383  35.105  50.215  0.00  0.00     0.231 HD
ATOM     28  H   SGN d  66      15.059  30.525  49.748  0.00  0.00     0.131 H 
ATOM     29  H   SGN d  66      13.385  31.405  49.258  0.00  0.00     0.231 HD
ATOM     30  H   SGN d  66      16.390  31.985  46.542  0.00  0.00     0.089 H 
ATOM     31  H   SGN d  66      18.634  32.959  48.028  0.00  0.00     0.210 HD
ATOM     32  H   SGN d  66      17.173  31.792  49.476  0.00  0.00     0.076 H 
ATOM     33  H   SGN d  66      16.293  33.774  49.281  0.00  0.00     0.140 HD
ATOM     34  O61 IDS d  65      16.504  34.494  43.678  0.00  0.00    -0.646 OA
ATOM     35  O3  IDS d  65      18.313  29.968  41.619  0.00  0.00    -0.390 OA
ATOM     36  C5  IDS d  65      17.879  32.613  44.208  0.00  0.00     0.152 C 
ATOM     37  C6  IDS d  65      17.545  34.127  44.276  0.00  0.00     0.206 C 
ATOM     38  O5  IDS d  65      19.160  32.404  44.879  0.00  0.00    -0.340 OA
ATOM     39  C1  IDS d  65      19.655  31.041  44.913  0.00  0.00     0.161 C 
ATOM     40  O1S IDS d  65      19.353  27.210  41.679  0.00  0.00    -0.572 OA
ATOM     41  C4  IDS d  65      17.876  32.016  42.757  0.00  0.00     0.103 C 
ATOM     42  O4  IDS d  65      17.621  33.177  41.961  0.00  0.00    -0.348 OA
ATOM     43  C2  IDS d  65      19.019  30.092  43.852  0.00  0.00     0.134 C 
ATOM     44  O62 IDS d  65      18.304  34.901  44.934  0.00  0.00    -0.646 OA
ATOM     45  C3  IDS d  65      18.854  30.835  42.565  0.00  0.00     0.094 C 
ATOM     46  O2S IDS d  65      17.658  27.705  43.281  0.00  0.00    -0.572 OA
ATOM     47  O3S IDS d  65      19.519  26.378  43.925  0.00  0.00    -0.572 OA
ATOM     48  O2  IDS d  65      19.887  29.003  43.578  0.00  0.00    -0.244 OA
ATOM     49  S   IDS d  65      19.079  27.490  43.087  0.00  0.00     0.252 S 
ATOM     50  H   IDS d  65      18.199  30.437  40.778  0.00  0.00     0.210 HD
ATOM     51  H   IDS d  65      17.099  32.078  44.706  0.00  0.00     0.104 H 
ATOM     52  H   IDS d  65      20.723  31.026  44.976  0.00  0.00     0.133 H 
ATOM     53  H   IDS d  65      17.149  31.335  42.367  0.00  0.00     0.092 H 
ATOM     54  H   IDS d  65      18.083  29.745  44.238  0.00  0.00     0.097 H 
ATOM     55  H   IDS d  65      19.806  31.205  42.245  0.00  0.00     0.091 H 
ATOM     56  O3S SGN d  62      22.498  40.340  39.008  0.00  0.00    -0.296 OA
ATOM     57  C1  SGN d  62      21.906  38.776  35.962  0.00  0.00     0.150 C 
ATOM     58  S2  SGN d  62      22.128  36.736  30.380  0.00  0.00     0.251 S 
ATOM     59  C5  SGN d  62      22.154  38.833  33.484  0.00  0.00     0.091 C 
ATOM     60  O5  SGN d  62      22.606  38.307  34.765  0.00  0.00    -0.349 OA
ATOM     61  O4S SGN d  62      23.391  36.390  29.818  0.00  0.00    -0.572 OA
ATOM     62  O6  SGN d  62      22.241  38.267  31.214  0.00  0.00    -0.254 OA
ATOM     63  O3  SGN d  62      21.260  42.225  34.686  0.00  0.00    -0.391 OA
ATOM     64  S1  SGN d  62      21.655  41.344  38.402  0.00  0.00     0.156 S 
ATOM     65  O6S SGN d  62      21.618  35.724  31.302  0.00  0.00    -0.572 OA
ATOM     66  O4  SGN d  62      21.807  40.838  32.214  0.00  0.00    -0.348 OA
ATOM     67  C6  SGN d  62      23.017  38.235  32.399  0.00  0.00     0.067 C 
ATOM     68  O5S SGN d  62      21.155  36.931  29.340  0.00  0.00    -0.572 OA
ATOM     69  O1S SGN d  62      20.582  41.752  39.284  0.00  0.00    -0.296 OA
ATOM     70  O2S SGN d  62      22.489  42.443  38.010  0.00  0.00    -0.296 OA
ATOM     71  C2  SGN d  62      21.842  40.296  35.926  0.00  0.00     0.081 C 
ATOM     72  C4  SGN d  62      22.246  40.368  33.486  0.00  0.00     0.095 C 
ATOM     73  N   SGN d  62      20.931  40.737  36.934  0.00  0.00    -0.210 NA
ATOM     74  C3  SGN d  62      21.290  40.825  34.599  0.00  0.00     0.083 C 
ATOM     75  H   SGN d  62      21.955  39.584  39.282  0.00  0.00     0.231 HD
ATOM     76  H   SGN d  62      22.459  38.403  36.799  0.00  0.00     0.131 H 
ATOM     77  H   SGN d  62      21.132  38.570  33.309  0.00  0.00     0.090 H 
ATOM     78  H   SGN d  62      20.652  42.492  35.392  0.00  0.00     0.210 HD
ATOM     79  H   SGN d  62      23.277  37.226  32.644  0.00  0.00     0.080 H 
ATOM     80  H   SGN d  62      23.930  38.780  32.282  0.00  0.00     0.080 H 
ATOM     81  H   SGN d  62      20.046  40.979  39.522  0.00  0.00     0.231 HD
ATOM     82  H   SGN d  62      23.191  42.123  37.421  0.00  0.00     0.231 HD
ATOM     83  H   SGN d  62      22.840  40.656  36.069  0.00  0.00     0.076 H 
ATOM     84  H   SGN d  62      23.236  40.739  33.656  0.00  0.00     0.091 H 
ATOM     85  H   SGN d  62      20.360  41.482  36.535  0.00  0.00     0.140 HD
ATOM     86  H   SGN d  62      20.305  40.462  34.391  0.00  0.00     0.089 H 
ATOM     87  O4  IDS d  63      20.566  38.284  36.086  0.00  0.00    -0.348 OA
ATOM     88  O62 IDS d  63      18.243  35.624  35.025  0.00  0.00    -0.646 OA
ATOM     89  C2  IDS d  63      18.818  38.878  38.586  0.00  0.00     0.134 C 
ATOM     90  O2S IDS d  63      16.914  41.331  38.632  0.00  0.00    -0.572 OA
ATOM     91  O61 IDS d  63      20.281  35.007  35.413  0.00  0.00    -0.646 OA
ATOM     92  C3  IDS d  63      20.211  38.234  38.587  0.00  0.00     0.094 C 
ATOM     93  C1  IDS d  63      17.728  37.788  38.397  0.00  0.00     0.161 C 
ATOM     94  O5  IDS d  63      17.937  37.172  37.101  0.00  0.00    -0.340 OA
ATOM     95  C4  IDS d  63      20.436  37.444  37.226  0.00  0.00     0.103 C 
ATOM     96  C6  IDS d  63      19.271  35.647  35.704  0.00  0.00     0.206 C 
ATOM     97  S   IDS d  63      17.249  40.718  37.353  0.00  0.00     0.252 S 
ATOM     98  O3  IDS d  63      20.195  37.339  39.677  0.00  0.00    -0.390 OA
ATOM     99  C5  IDS d  63      19.247  36.474  36.986  0.00  0.00     0.152 C 
ATOM    100  O2  IDS d  63      18.782  39.868  37.592  0.00  0.00    -0.244 OA
ATOM    101  O1S IDS d  63      17.505  41.701  36.316  0.00  0.00    -0.572 OA
ATOM    102  O3S IDS d  63      16.146  39.875  36.994  0.00  0.00    -0.572 OA
ATOM    103  H   IDS d  63      18.615  39.350  39.524  0.00  0.00     0.097 H 
ATOM    104  H   IDS d  63      20.997  38.954  38.672  0.00  0.00     0.091 H 
ATOM    105  H   IDS d  63      16.723  38.158  38.402  0.00  0.00     0.133 H 
ATOM    106  H   IDS d  63      21.361  36.917  37.340  0.00  0.00     0.092 H 
ATOM    107  H   IDS d  63      19.471  36.703  39.563  0.00  0.00     0.210 HD
ATOM    108  H   IDS d  63      19.374  35.762  37.773  0.00  0.00     0.104 H 
ATOM    109  O4  SGN d  64      17.901  36.865  39.516  0.00  0.00    -0.348 OA
ATOM    110  O6  SGN d  64      14.364  36.572  41.667  0.00  0.00    -0.254 OA
ATOM    111  C3  SGN d  64      17.929  34.420  39.480  0.00  0.00     0.083 C 
ATOM    112  S2  SGN d  64      13.326  36.119  40.289  0.00  0.00     0.251 S 
ATOM    113  C5  SGN d  64      16.556  35.691  41.130  0.00  0.00     0.091 C 
ATOM    114  O1S SGN d  64      16.777  30.458  37.625  0.00  0.00    -0.296 OA
ATOM    115  C2  SGN d  64      17.048  33.224  39.674  0.00  0.00     0.081 C 
ATOM    116  O4S SGN d  64      13.281  37.238  39.385  0.00  0.00    -0.572 OA
ATOM    117  O3S SGN d  64      18.143  32.244  36.869  0.00  0.00    -0.296 OA
ATOM    118  S1  SGN d  64      17.957  31.256  37.916  0.00  0.00     0.156 S 
ATOM    119  O6S SGN d  64      13.842  34.953  39.602  0.00  0.00    -0.572 OA
ATOM    120  O5S SGN d  64      12.009  35.826  40.787  0.00  0.00    -0.572 OA
ATOM    121  O3  SGN d  64      18.412  34.339  38.188  0.00  0.00    -0.391 OA
ATOM    122  C1  SGN d  64      16.501  33.249  41.077  0.00  0.00     0.150 C 
ATOM    123  O2S SGN d  64      19.129  30.430  38.005  0.00  0.00    -0.296 OA
ATOM    124  C4  SGN d  64      17.078  35.701  39.682  0.00  0.00     0.095 C 
ATOM    125  O5  SGN d  64      15.766  34.475  41.276  0.00  0.00    -0.349 OA
ATOM    126  C6  SGN d  64      15.712  36.922  41.388  0.00  0.00     0.067 C 
ATOM    127  N   SGN d  64      17.828  32.022  39.509  0.00  0.00    -0.210 NA
ATOM    128  H   SGN d  64      18.740  34.451  40.177  0.00  0.00     0.089 H 
ATOM    129  H   SGN d  64      17.358  35.708  41.839  0.00  0.00     0.090 H 
ATOM    130  H   SGN d  64      16.001  31.036  37.570  0.00  0.00     0.231 HD
ATOM    131  H   SGN d  64      16.252  33.244  38.959  0.00  0.00     0.076 H 
ATOM    132  H   SGN d  64      17.352  32.803  36.807  0.00  0.00     0.231 HD
ATOM    133  H   SGN d  64      17.669  34.311  37.566  0.00  0.00     0.210 HD
ATOM    134  H   SGN d  64      15.835  32.432  41.261  0.00  0.00     0.131 H 
ATOM    135  H   SGN d  64      19.267  29.973  37.161  0.00  0.00     0.231 HD
ATOM    136  H   SGN d  64      16.278  35.721  38.971  0.00  0.00     0.091 H 
ATOM    137  H   SGN d  64      16.116  37.452  42.224  0.00  0.00     0.080 H 
ATOM    138  H   SGN d  64      15.729  37.533  40.509  0.00  0.00     0.080 H 
ATOM    139  H   SGN d  64      17.430  31.325  40.139  0.00  0.00     0.140 HD
ATOM    140  C1  IDS d  61      22.712  41.769  31.586  0.00  0.00     0.167 C 
ATOM    141  O5  IDS d  61      22.769  42.986  32.376  0.00  0.00    -0.311 OA
ATOM    142  C5  IDS d  61      21.723  43.897  32.326  0.00  0.00     0.147 C 
ATOM    143  C6  IDS d  61      21.801  45.130  33.308  0.00  0.00     0.233 C 
ATOM    144  C2  IDS d  61      22.149  42.117  30.212  0.00  0.00     0.135 C 
ATOM    145  O1S IDS d  61      24.776  43.862  31.271  0.00  0.00    -0.572 OA
ATOM    146  O3S IDS d  61      25.382  41.937  29.953  0.00  0.00    -0.572 OA
ATOM    147  O3  IDS d  61      19.848  41.842  30.367  0.00  0.00    -0.389 OA
ATOM    148  C4  IDS d  61      20.729  43.812  31.397  0.00  0.00    -0.034 C 
ATOM    149  C3  IDS d  61      20.803  42.839  30.270  0.00  0.00     0.086 C 
ATOM    150  O61 IDS d  61      20.929  45.999  33.272  0.00  0.00    -0.642 OA
ATOM    151  O62 IDS d  61      22.769  45.239  34.101  0.00  0.00    -0.642 OA
ATOM    152  O2S IDS d  61      25.362  44.167  29.084  0.00  0.00    -0.572 OA
ATOM    153  S   IDS d  61      24.742  43.244  29.972  0.00  0.00     0.252 S 
ATOM    154  O2  IDS d  61      23.035  43.009  29.513  0.00  0.00    -0.244 OA
ATOM    155  H   IDS d  61      23.689  41.340  31.506  0.00  0.00     0.134 H 
ATOM    156  H   IDS d  61      22.036  41.174  29.717  0.00  0.00     0.097 H 
ATOM    157  H   IDS d  61      19.935  41.236  29.615  0.00  0.00     0.210 HD
ATOM    158  H   IDS d  61      19.909  44.434  31.475  0.00  0.00     0.085 H 
ATOM    159  H   IDS d  61      20.647  43.437  29.397  0.00  0.00     0.093 H 
ENDROOT
TORSDOF 50
ENDMDL
MODEL 7
REMARK VINA RESULT:      -6.2      2.656      3.474
REMARK  0 active torsions:
REMARK  status: ('A' for Active; 'I' for Inactive)
REMARK       I    between atoms: O3S_3  and  S1_55 
REMARK       I    between atoms: O3_4  and  C3_87 
REMARK       I    between atoms: O4_5  and  C1_15 
REMARK       I    between atoms: O4_5  and  C4_57 
REMARK       I    between atoms: O4_7  and  C1_36 
REMARK       I    between atoms: O4_7  and  C4_89 
REMARK       I    between atoms: C4_8  and  O4_18 
REMARK       I    between atoms: C2_9  and  O2_84 
REMARK       I    between atoms: C6_10  and  C5_32 
REMARK       I    between atoms: C6_10  and  O6_102 
REMARK       I    between atoms: O6_11  and  C6_93 
REMARK       I    between atoms: O6_11  and  S2_25 
REMARK       I    between atoms: C1_13  and  O4_74 
REMARK       I    between atoms: C3_14  and  O3_71 
REMARK       I    between atoms: O4_18  and  C1_54 
REMARK       I    between atoms: S2_19  and  O6_39 
REMARK       I    between atoms: O2S_21  and  S1_45 
REMARK       I    between atoms: C5_22  and  C6_23 
REMARK       I    between atoms: C5_24  and  C6_77 
REMARK       I    between atoms: O1_27  and  C1_48 
REMARK       I    between atoms: C5_28  and  C6_30 
REMARK       I    between atoms: C5_29  and  C6_93 
REMARK       I    between atoms: O1S_31  and  S1_44 
REMARK       I    between atoms: C3_33  and  O3_69 
REMARK       I    between atoms: C2_37  and  N_99 
REMARK       I    between atoms: S2_38  and  O6_102 
REMARK       I    between atoms: O6_39  and  C6_77 
REMARK       I    between atoms: C2_40  and  O2_103 
REMARK       I    between atoms: O3S_42  and  S1_44 
REMARK       I    between atoms: S1_44  and  N_99 
REMARK       I    between atoms: S1_44  and  O2S_81 
REMARK       I    between atoms: S1_45  and  N_94 
REMARK       I    between atoms: S1_45  and  O1S_46 
REMARK       I    between atoms: S1_45  and  O3S_58 
REMARK       I    between atoms: O3_52  and  C3_105 
REMARK       I    between atoms: S1_55  and  N_100 
REMARK       I    between atoms: S1_55  and  O1S_79 
REMARK       I    between atoms: S1_55  and  O2S_83 
REMARK       I    between atoms: O3_56  and  C3_64 
REMARK       I    between atoms: C4_60  and  O4_61 
REMARK       I    between atoms: O4_61  and  C1_73 
REMARK       I    between atoms: C6_63  and  C5_80 
REMARK       I    between atoms: C3_65  and  O3_82 
REMARK       I    between atoms: S_67  and  O2_84 
REMARK       I    between atoms: C2_68  and  O2_98 
REMARK       I    between atoms: O4_74  and  C4_97 
REMARK       I    between atoms: C2_85  and  N_94 
REMARK       I    between atoms: C2_95  and  N_100 
REMARK       I    between atoms: O2_98  and  S_104 
REMARK       I    between atoms: S_101  and  O2_103 
ROOT
ATOM      1  O6S SGN d  66      25.892  37.866  55.379  0.00  0.00    -0.572 OA
ATOM      2  C4  SGN d  66      21.747  35.846  54.103  0.00  0.00     0.095 C 
ATOM      3  C6  SGN d  66      23.390  34.817  55.719  0.00  0.00     0.067 C 
ATOM      4  O4  SGN d  66      22.448  35.170  52.956  0.00  0.00    -0.348 OA
ATOM      5  O5S SGN d  66      26.424  35.580  54.996  0.00  0.00    -0.572 OA
ATOM      6  O2S SGN d  66      17.310  38.040  56.927  0.00  0.00    -0.296 OA
ATOM      7  O5  SGN d  66      21.189  35.665  56.488  0.00  0.00    -0.350 OA
ATOM      8  O1  SGN d  66      19.074  34.645  55.961  0.00  0.00    -0.369 OA
ATOM      9  C5  SGN d  66      21.900  35.009  55.382  0.00  0.00     0.091 C 
ATOM     10  S2  SGN d  66      25.382  36.598  54.899  0.00  0.00     0.251 S 
ATOM     11  S1  SGN d  66      16.931  37.053  55.936  0.00  0.00     0.156 S 
ATOM     12  O1S SGN d  66      15.680  37.407  55.281  0.00  0.00    -0.296 OA
ATOM     13  C1  SGN d  66      19.759  35.880  56.248  0.00  0.00     0.147 C 
ATOM     14  O3S SGN d  66      16.749  35.744  56.544  0.00  0.00    -0.296 OA
ATOM     15  C3  SGN d  66      20.265  36.120  53.793  0.00  0.00     0.083 C 
ATOM     16  O3  SGN d  66      20.172  37.033  52.700  0.00  0.00    -0.391 OA
ATOM     17  C2  SGN d  66      19.621  36.790  55.010  0.00  0.00     0.081 C 
ATOM     18  O4S SGN d  66      24.932  36.756  53.523  0.00  0.00    -0.572 OA
ATOM     19  N   SGN d  66      18.209  37.049  54.693  0.00  0.00    -0.210 NA
ATOM     20  O6  SGN d  66      24.033  36.093  55.945  0.00  0.00    -0.254 OA
ATOM     21  H   SGN d  66      22.210  36.799  54.254  0.00  0.00     0.091 H 
ATOM     22  H   SGN d  66      23.873  34.320  54.903  0.00  0.00     0.080 H 
ATOM     23  H   SGN d  66      23.468  34.230  56.610  0.00  0.00     0.080 H 
ATOM     24  H   SGN d  66      17.426  38.902  56.497  0.00  0.00     0.231 HD
ATOM     25  H   SGN d  66      19.144  34.052  56.724  0.00  0.00     0.212 HD
ATOM     26  H   SGN d  66      21.470  34.042  55.227  0.00  0.00     0.090 H 
ATOM     27  H   SGN d  66      15.769  38.279  54.865  0.00  0.00     0.231 HD
ATOM     28  H   SGN d  66      19.329  36.314  57.126  0.00  0.00     0.131 H 
ATOM     29  H   SGN d  66      17.568  35.478  56.990  0.00  0.00     0.231 HD
ATOM     30  H   SGN d  66      19.776  35.199  53.557  0.00  0.00     0.089 H 
ATOM     31  H   SGN d  66      20.621  37.861  52.931  0.00  0.00     0.210 HD
ATOM     32  H   SGN d  66      20.110  37.715  55.236  0.00  0.00     0.076 H 
ATOM     33  H   SGN d  66      18.182  37.971  54.256  0.00  0.00     0.140 HD
ATOM     34  O61 IDS d  65      18.585  34.176  50.085  0.00  0.00    -0.646 OA
ATOM     35  O3  IDS d  65      23.159  31.609  50.788  0.00  0.00    -0.390 OA
ATOM     36  C5  IDS d  65      20.773  34.464  51.002  0.00  0.00     0.152 C 
ATOM     37  C6  IDS d  65      19.525  34.993  50.247  0.00  0.00     0.206 C 
ATOM     38  O5  IDS d  65      21.779  35.524  51.008  0.00  0.00    -0.340 OA
ATOM     39  C1  IDS d  65      23.036  35.217  51.665  0.00  0.00     0.161 C 
ATOM     40  O1S IDS d  65      25.731  31.001  52.093  0.00  0.00    -0.572 OA
ATOM     41  C4  IDS d  65      21.348  33.118  50.436  0.00  0.00     0.103 C 
ATOM     42  O4  IDS d  65      20.500  32.887  49.308  0.00  0.00    -0.348 OA
ATOM     43  C2  IDS d  65      23.318  33.695  51.848  0.00  0.00     0.134 C 
ATOM     44  O62 IDS d  65      19.500  36.200  49.858  0.00  0.00    -0.646 OA
ATOM     45  C3  IDS d  65      22.874  32.962  50.622  0.00  0.00     0.094 C 
ATOM     46  O2S IDS d  65      23.939  31.562  53.563  0.00  0.00    -0.572 OA
ATOM     47  O3S IDS d  65      26.112  32.416  53.995  0.00  0.00    -0.572 OA
ATOM     48  O2  IDS d  65      24.713  33.461  51.971  0.00  0.00    -0.244 OA
ATOM     49  S   IDS d  65      25.163  32.040  52.950  0.00  0.00     0.252 S 
ATOM     50  H   IDS d  65      22.875  31.120  49.999  0.00  0.00     0.210 HD
ATOM     51  H   IDS d  65      20.478  34.217  52.000  0.00  0.00     0.104 H 
ATOM     52  H   IDS d  65      23.833  35.796  51.248  0.00  0.00     0.133 H 
ATOM     53  H   IDS d  65      21.302  32.168  50.927  0.00  0.00     0.092 H 
ATOM     54  H   IDS d  65      22.799  33.365  52.723  0.00  0.00     0.097 H 
ATOM     55  H   IDS d  65      23.382  33.359  49.768  0.00  0.00     0.091 H 
ATOM     56  O3S SGN d  62      19.826  36.183  40.793  0.00  0.00    -0.296 OA
ATOM     57  C1  SGN d  62      20.798  32.929  40.055  0.00  0.00     0.150 C 
ATOM     58  S2  SGN d  62      23.012  27.978  37.617  0.00  0.00     0.251 S 
ATOM     59  C5  SGN d  62      21.262  31.218  38.307  0.00  0.00     0.091 C 
ATOM     60  O5  SGN d  62      21.779  32.183  39.267  0.00  0.00    -0.349 OA
ATOM     61  O4S SGN d  62      24.252  28.045  36.917  0.00  0.00    -0.572 OA
ATOM     62  O6  SGN d  62      21.988  29.315  37.151  0.00  0.00    -0.254 OA
ATOM     63  O3  SGN d  62      18.223  33.118  37.358  0.00  0.00    -0.391 OA
ATOM     64  S1  SGN d  62      18.618  35.732  40.142  0.00  0.00     0.156 S 
ATOM     65  O6S SGN d  62      23.176  27.981  39.068  0.00  0.00    -0.572 OA
ATOM     66  O4  SGN d  62      19.855  30.945  36.384  0.00  0.00    -0.348 OA
ATOM     67  C6  SGN d  62      22.436  30.582  37.600  0.00  0.00     0.067 C 
ATOM     68  O5S SGN d  62      22.292  26.790  37.247  0.00  0.00    -0.572 OA
ATOM     69  O1S SGN d  62      17.438  36.028  40.927  0.00  0.00    -0.296 OA
ATOM     70  O2S SGN d  62      18.571  36.327  38.838  0.00  0.00    -0.296 OA
ATOM     71  C2  SGN d  62      19.760  33.520  39.111  0.00  0.00     0.081 C 
ATOM     72  C4  SGN d  62      20.326  31.921  37.310  0.00  0.00     0.095 C 
ATOM     73  N   SGN d  62      18.663  34.005  39.887  0.00  0.00    -0.210 NA
ATOM     74  C3  SGN d  62      19.172  32.471  38.163  0.00  0.00     0.083 C 
ATOM     75  H   SGN d  62      19.880  35.792  41.680  0.00  0.00     0.231 HD
ATOM     76  H   SGN d  62      21.346  33.678  40.588  0.00  0.00     0.131 H 
ATOM     77  H   SGN d  62      20.695  30.459  38.804  0.00  0.00     0.090 H 
ATOM     78  H   SGN d  62      17.504  33.457  37.914  0.00  0.00     0.210 HD
ATOM     79  H   SGN d  62      23.258  30.467  38.275  0.00  0.00     0.080 H 
ATOM     80  H   SGN d  62      22.774  31.187  36.785  0.00  0.00     0.080 H 
ATOM     81  H   SGN d  62      17.514  35.607  41.798  0.00  0.00     0.231 HD
ATOM     82  H   SGN d  62      19.379  36.101  38.350  0.00  0.00     0.231 HD
ATOM     83  H   SGN d  62      20.249  34.283  38.543  0.00  0.00     0.076 H 
ATOM     84  H   SGN d  62      20.799  32.706  36.756  0.00  0.00     0.091 H 
ATOM     85  H   SGN d  62      17.801  33.736  39.413  0.00  0.00     0.140 HD
ATOM     86  H   SGN d  62      18.702  31.663  38.684  0.00  0.00     0.089 H 
ATOM     87  O4  IDS d  63      20.104  32.138  41.028  0.00  0.00    -0.348 OA
ATOM     88  O62 IDS d  63      20.249  29.035  43.016  0.00  0.00    -0.646 OA
ATOM     89  C2  IDS d  63      18.093  33.389  43.040  0.00  0.00     0.134 C 
ATOM     90  O2S IDS d  63      15.064  33.511  42.370  0.00  0.00    -0.572 OA
ATOM     91  O61 IDS d  63      22.122  30.090  42.763  0.00  0.00    -0.646 OA
ATOM     92  C3  IDS d  63      19.553  33.816  42.835  0.00  0.00     0.094 C 
ATOM     93  C1  IDS d  63      18.018  32.233  44.074  0.00  0.00     0.161 C 
ATOM     94  O5  IDS d  63      18.744  31.101  43.528  0.00  0.00    -0.340 OA
ATOM     95  C4  IDS d  63      20.412  32.570  42.348  0.00  0.00     0.103 C 
ATOM     96  C6  IDS d  63      20.914  30.073  42.992  0.00  0.00     0.206 C 
ATOM     97  S   IDS d  63      15.878  32.458  41.778  0.00  0.00     0.252 S 
ATOM     98  O3  IDS d  63      19.988  34.245  44.106  0.00  0.00    -0.390 OA
ATOM     99  C5  IDS d  63      20.190  31.377  43.317  0.00  0.00     0.152 C 
ATOM    100  O2  IDS d  63      17.546  33.047  41.794  0.00  0.00    -0.244 OA
ATOM    101  O1S IDS d  63      15.558  32.227  40.381  0.00  0.00    -0.572 OA
ATOM    102  O3S IDS d  63      15.653  31.273  42.554  0.00  0.00    -0.572 OA
ATOM    103  H   IDS d  63      17.513  34.193  43.442  0.00  0.00     0.097 H 
ATOM    104  H   IDS d  63      19.657  34.583  42.096  0.00  0.00     0.091 H 
ATOM    105  H   IDS d  63      17.027  31.888  44.286  0.00  0.00     0.133 H 
ATOM    106  H   IDS d  63      21.431  32.897  42.346  0.00  0.00     0.092 H 
ATOM    107  H   IDS d  63      19.879  33.523  44.745  0.00  0.00     0.210 HD
ATOM    108  H   IDS d  63      20.651  31.728  44.216  0.00  0.00     0.104 H 
ATOM    109  O4  SGN d  64      18.608  32.766  45.300  0.00  0.00    -0.348 OA
ATOM    110  O6  SGN d  64      15.889  32.475  48.421  0.00  0.00    -0.254 OA
ATOM    111  C3  SGN d  64      20.234  31.709  46.791  0.00  0.00     0.083 C 
ATOM    112  S2  SGN d  64      15.588  30.724  48.265  0.00  0.00     0.251 S 
ATOM    113  C5  SGN d  64      18.167  32.800  47.665  0.00  0.00     0.091 C 
ATOM    114  O1S SGN d  64      22.205  28.045  48.566  0.00  0.00    -0.296 OA
ATOM    115  C2  SGN d  64      20.335  30.901  48.047  0.00  0.00     0.081 C 
ATOM    116  O4S SGN d  64      14.938  30.500  47.000  0.00  0.00    -0.572 OA
ATOM    117  O3S SGN d  64      22.151  28.927  46.364  0.00  0.00    -0.296 OA
ATOM    118  S1  SGN d  64      22.525  29.199  47.741  0.00  0.00     0.156 S 
ATOM    119  O6S SGN d  64      16.823  29.970  48.322  0.00  0.00    -0.572 OA
ATOM    120  O5S SGN d  64      14.734  30.310  49.346  0.00  0.00    -0.572 OA
ATOM    121  O3  SGN d  64      20.812  30.948  45.793  0.00  0.00    -0.391 OA
ATOM    122  C1  SGN d  64      19.731  31.691  49.180  0.00  0.00     0.150 C 
ATOM    123  O2S SGN d  64      23.928  29.503  47.802  0.00  0.00    -0.296 OA
ATOM    124  C4  SGN d  64      18.736  31.979  46.494  0.00  0.00     0.095 C 
ATOM    125  O5  SGN d  64      18.355  31.992  48.864  0.00  0.00    -0.349 OA
ATOM    126  C6  SGN d  64      16.700  33.094  47.433  0.00  0.00     0.067 C 
ATOM    127  N   SGN d  64      21.723  30.656  48.350  0.00  0.00    -0.210 NA
ATOM    128  H   SGN d  64      20.729  32.655  46.868  0.00  0.00     0.089 H 
ATOM    129  H   SGN d  64      18.664  33.743  47.764  0.00  0.00     0.090 H 
ATOM    130  H   SGN d  64      21.255  27.859  48.508  0.00  0.00     0.231 HD
ATOM    131  H   SGN d  64      19.820  29.972  47.920  0.00  0.00     0.076 H 
ATOM    132  H   SGN d  64      21.204  28.721  46.321  0.00  0.00     0.231 HD
ATOM    133  H   SGN d  64      20.356  30.094  45.732  0.00  0.00     0.210 HD
ATOM    134  H   SGN d  64      19.746  31.144  50.099  0.00  0.00     0.131 H 
ATOM    135  H   SGN d  64      24.437  28.744  47.480  0.00  0.00     0.231 HD
ATOM    136  H   SGN d  64      18.217  31.051  46.369  0.00  0.00     0.091 H 
ATOM    137  H   SGN d  64      16.547  34.152  47.467  0.00  0.00     0.080 H 
ATOM    138  H   SGN d  64      16.425  32.703  46.475  0.00  0.00     0.080 H 
ATOM    139  H   SGN d  64      21.802  30.632  49.367  0.00  0.00     0.140 HD
ATOM    140  C1  IDS d  61      19.999  31.326  35.000  0.00  0.00     0.167 C 
ATOM    141  O5  IDS d  61      19.145  32.468  34.728  0.00  0.00    -0.311 OA
ATOM    142  C5  IDS d  61      17.775  32.292  34.583  0.00  0.00     0.147 C 
ATOM    143  C6  IDS d  61      16.901  33.595  34.416  0.00  0.00     0.233 C 
ATOM    144  C2  IDS d  61      19.529  30.159  34.139  0.00  0.00     0.135 C 
ATOM    145  O1S IDS d  61      20.209  33.023  32.589  0.00  0.00    -0.572 OA
ATOM    146  O3S IDS d  61      22.089  31.517  32.671  0.00  0.00    -0.572 OA
ATOM    147  O3  IDS d  61      17.973  29.000  35.417  0.00  0.00    -0.389 OA
ATOM    148  C4  IDS d  61      17.209  31.058  34.469  0.00  0.00    -0.034 C 
ATOM    149  C3  IDS d  61      18.046  29.833  34.314  0.00  0.00     0.086 C 
ATOM    150  O61 IDS d  61      15.687  33.500  34.231  0.00  0.00    -0.642 OA
ATOM    151  O62 IDS d  61      17.450  34.725  34.438  0.00  0.00    -0.642 OA
ATOM    152  O2S IDS d  61      20.726  31.806  30.726  0.00  0.00    -0.572 OA
ATOM    153  S   IDS d  61      20.754  31.766  32.148  0.00  0.00     0.252 S 
ATOM    154  O2  IDS d  61      19.694  30.462  32.743  0.00  0.00    -0.244 OA
ATOM    155  H   IDS d  61      21.019  31.576  34.790  0.00  0.00     0.134 H 
ATOM    156  H   IDS d  61      20.124  29.328  34.457  0.00  0.00     0.097 H 
ATOM    157  H   IDS d  61      18.531  28.220  35.270  0.00  0.00     0.210 HD
ATOM    158  H   IDS d  61      16.181  30.969  34.490  0.00  0.00     0.085 H 
ATOM    159  H   IDS d  61      17.650  29.354  33.444  0.00  0.00     0.093 H 
ENDROOT
TORSDOF 50
ENDMDL
MODEL 8
REMARK VINA RESULT:      -6.2      1.105      1.212
REMARK  0 active torsions:
REMARK  status: ('A' for Active; 'I' for Inactive)
REMARK       I    between atoms: O3S_3  and  S1_55 
REMARK       I    between atoms: O3_4  and  C3_87 
REMARK       I    between atoms: O4_5  and  C1_15 
REMARK       I    between atoms: O4_5  and  C4_57 
REMARK       I    between atoms: O4_7  and  C1_36 
REMARK       I    between atoms: O4_7  and  C4_89 
REMARK       I    between atoms: C4_8  and  O4_18 
REMARK       I    between atoms: C2_9  and  O2_84 
REMARK       I    between atoms: C6_10  and  C5_32 
REMARK       I    between atoms: C6_10  and  O6_102 
REMARK       I    between atoms: O6_11  and  C6_93 
REMARK       I    between atoms: O6_11  and  S2_25 
REMARK       I    between atoms: C1_13  and  O4_74 
REMARK       I    between atoms: C3_14  and  O3_71 
REMARK       I    between atoms: O4_18  and  C1_54 
REMARK       I    between atoms: S2_19  and  O6_39 
REMARK       I    between atoms: O2S_21  and  S1_45 
REMARK       I    between atoms: C5_22  and  C6_23 
REMARK       I    between atoms: C5_24  and  C6_77 
REMARK       I    between atoms: O1_27  and  C1_48 
REMARK       I    between atoms: C5_28  and  C6_30 
REMARK       I    between atoms: C5_29  and  C6_93 
REMARK       I    between atoms: O1S_31  and  S1_44 
REMARK       I    between atoms: C3_33  and  O3_69 
REMARK       I    between atoms: C2_37  and  N_99 
REMARK       I    between atoms: S2_38  and  O6_102 
REMARK       I    between atoms: O6_39  and  C6_77 
REMARK       I    between atoms: C2_40  and  O2_103 
REMARK       I    between atoms: O3S_42  and  S1_44 
REMARK       I    between atoms: S1_44  and  N_99 
REMARK       I    between atoms: S1_44  and  O2S_81 
REMARK       I    between atoms: S1_45  and  N_94 
REMARK       I    between atoms: S1_45  and  O1S_46 
REMARK       I    between atoms: S1_45  and  O3S_58 
REMARK       I    between atoms: O3_52  and  C3_105 
REMARK       I    between atoms: S1_55  and  N_100 
REMARK       I    between atoms: S1_55  and  O1S_79 
REMARK       I    between atoms: S1_55  and  O2S_83 
REMARK       I    between atoms: O3_56  and  C3_64 
REMARK       I    between atoms: C4_60  and  O4_61 
REMARK       I    between atoms: O4_61  and  C1_73 
REMARK       I    between atoms: C6_63  and  C5_80 
REMARK       I    between atoms: C3_65  and  O3_82 
REMARK       I    between atoms: S_67  and  O2_84 
REMARK       I    between atoms: C2_68  and  O2_98 
REMARK       I    between atoms: O4_74  and  C4_97 
REMARK       I    between atoms: C2_85  and  N_94 
REMARK       I    between atoms: C2_95  and  N_100 
REMARK       I    between atoms: O2_98  and  S_104 
REMARK       I    between atoms: S_101  and  O2_103 
ROOT
ATOM      1  O6S SGN d  66      24.065  37.242  55.985  0.00  0.00    -0.572 OA
ATOM      2  C4  SGN d  66      19.795  37.294  53.827  0.00  0.00     0.095 C 
ATOM      3  C6  SGN d  66      20.380  35.809  55.783  0.00  0.00     0.067 C 
ATOM      4  O4  SGN d  66      20.280  36.234  52.876  0.00  0.00    -0.348 OA
ATOM      5  O5S SGN d  66      23.474  34.950  55.756  0.00  0.00    -0.572 OA
ATOM      6  O2S SGN d  66      16.550  41.648  55.555  0.00  0.00    -0.296 OA
ATOM      7  O5  SGN d  66      18.774  37.685  56.027  0.00  0.00    -0.350 OA
ATOM      8  O1  SGN d  66      16.577  37.735  55.047  0.00  0.00    -0.369 OA
ATOM      9  C5  SGN d  66      19.270  36.644  55.117  0.00  0.00     0.091 C 
ATOM     10  S2  SGN d  66      23.103  36.320  55.415  0.00  0.00     0.251 S 
ATOM     11  S1  SGN d  66      15.935  40.849  54.514  0.00  0.00     0.156 S 
ATOM     12  O1S SGN d  66      15.169  41.673  53.591  0.00  0.00    -0.296 OA
ATOM     13  C1  SGN d  66      17.708  38.522  55.468  0.00  0.00     0.147 C 
ATOM     14  O3S SGN d  66      15.023  39.866  55.079  0.00  0.00    -0.296 OA
ATOM     15  C3  SGN d  66      18.727  38.198  53.189  0.00  0.00     0.083 C 
ATOM     16  O3  SGN d  66      19.304  38.908  52.093  0.00  0.00    -0.391 OA
ATOM     17  C2  SGN d  66      18.273  39.233  54.221  0.00  0.00     0.081 C 
ATOM     18  O4S SGN d  66      23.061  36.507  53.971  0.00  0.00    -0.572 OA
ATOM     19  N   SGN d  66      17.259  40.091  53.591  0.00  0.00    -0.210 NA
ATOM     20  O6  SGN d  66      21.507  36.644  56.135  0.00  0.00    -0.254 OA
ATOM     21  H   SGN d  66      20.626  37.923  54.069  0.00  0.00     0.091 H 
ATOM     22  H   SGN d  66      20.704  35.050  55.103  0.00  0.00     0.080 H 
ATOM     23  H   SGN d  66      19.988  35.366  56.676  0.00  0.00     0.080 H 
ATOM     24  H   SGN d  66      17.152  42.294  55.153  0.00  0.00     0.231 HD
ATOM     25  H   SGN d  66      16.200  37.275  55.813  0.00  0.00     0.212 HD
ATOM     26  H   SGN d  66      18.461  35.985  54.879  0.00  0.00     0.090 H 
ATOM     27  H   SGN d  66      15.750  42.341  53.196  0.00  0.00     0.231 HD
ATOM     28  H   SGN d  66      17.386  39.209  56.222  0.00  0.00     0.131 H 
ATOM     29  H   SGN d  66      15.504  39.298  55.702  0.00  0.00     0.231 HD
ATOM     30  H   SGN d  66      17.905  37.598  52.858  0.00  0.00     0.089 H 
ATOM     31  H   SGN d  66      20.046  39.445  52.411  0.00  0.00     0.210 HD
ATOM     32  H   SGN d  66      19.098  39.835  54.542  0.00  0.00     0.076 H 
ATOM     33  H   SGN d  66      17.770  40.855  53.150  0.00  0.00     0.140 HD
ATOM     34  O61 IDS d  65      17.058  36.857  49.218  0.00  0.00    -0.646 OA
ATOM     35  O3  IDS d  65      19.560  32.532  50.962  0.00  0.00    -0.390 OA
ATOM     36  C5  IDS d  65      18.885  36.180  50.602  0.00  0.00     0.152 C 
ATOM     37  C6  IDS d  65      18.226  37.143  49.580  0.00  0.00     0.206 C 
ATOM     38  O5  IDS d  65      20.258  36.628  50.823  0.00  0.00    -0.340 OA
ATOM     39  C1  IDS d  65      21.052  35.842  51.750  0.00  0.00     0.161 C 
ATOM     40  O1S IDS d  65      21.202  30.938  52.820  0.00  0.00    -0.572 OA
ATOM     41  C4  IDS d  65      18.824  34.666  50.194  0.00  0.00     0.103 C 
ATOM     42  O4  IDS d  65      18.207  34.731  48.906  0.00  0.00    -0.348 OA
ATOM     43  C2  IDS d  65      20.513  34.403  52.008  0.00  0.00     0.134 C 
ATOM     44  O62 IDS d  65      18.869  38.161  49.182  0.00  0.00    -0.646 OA
ATOM     45  C3  IDS d  65      20.011  33.828  50.722  0.00  0.00     0.094 C 
ATOM     46  O2S IDS d  65      19.669  32.452  53.841  0.00  0.00    -0.572 OA
ATOM     47  O3S IDS d  65      21.853  32.219  54.743  0.00  0.00    -0.572 OA
ATOM     48  O2  IDS d  65      21.561  33.552  52.445  0.00  0.00    -0.244 OA
ATOM     49  S   IDS d  65      21.062  32.216  53.516  0.00  0.00     0.252 S 
ATOM     50  H   IDS d  65      19.231  32.146  50.135  0.00  0.00     0.210 HD
ATOM     51  H   IDS d  65      18.322  36.223  51.510  0.00  0.00     0.104 H 
ATOM     52  H   IDS d  65      22.093  35.920  51.518  0.00  0.00     0.133 H 
ATOM     53  H   IDS d  65      18.227  33.918  50.672  0.00  0.00     0.092 H 
ATOM     54  H   IDS d  65      19.741  34.466  52.747  0.00  0.00     0.097 H 
ATOM     55  H   IDS d  65      20.801  33.832  50.000  0.00  0.00     0.091 H 
ATOM     56  O3S SGN d  62      20.877  36.911  40.425  0.00  0.00    -0.296 OA
ATOM     57  C1  SGN d  62      20.255  33.524  39.960  0.00  0.00     0.150 C 
ATOM     58  S2  SGN d  62      20.186  27.864  38.136  0.00  0.00     0.251 S 
ATOM     59  C5  SGN d  62      20.149  31.602  38.379  0.00  0.00     0.091 C 
ATOM     60  O5  SGN d  62      20.876  32.313  39.421  0.00  0.00    -0.349 OA
ATOM     61  O4S SGN d  62      21.408  27.250  37.733  0.00  0.00    -0.572 OA
ATOM     62  O6  SGN d  62      20.057  29.460  37.438  0.00  0.00    -0.254 OA
ATOM     63  O3  SGN d  62      18.673  34.587  36.749  0.00  0.00    -0.391 OA
ATOM     64  S1  SGN d  62      19.753  37.012  39.523  0.00  0.00     0.156 S 
ATOM     65  O6S SGN d  62      20.049  27.962  39.587  0.00  0.00    -0.572 OA
ATOM     66  O4  SGN d  62      19.186  31.802  36.191  0.00  0.00    -0.348 OA
ATOM     67  C6  SGN d  62      20.972  30.406  37.962  0.00  0.00     0.067 C 
ATOM     68  O5S SGN d  62      19.064  27.125  37.626  0.00  0.00    -0.572 OA
ATOM     69  O1S SGN d  62      18.743  37.924  40.019  0.00  0.00    -0.296 OA
ATOM     70  O2S SGN d  62      20.254  37.398  38.235  0.00  0.00    -0.296 OA
ATOM     71  C2  SGN d  62      19.841  34.418  38.799  0.00  0.00     0.081 C 
ATOM     72  C4  SGN d  62      19.887  32.540  37.189  0.00  0.00     0.095 C 
ATOM     73  N   SGN d  62      18.997  35.454  39.303  0.00  0.00    -0.210 NA
ATOM     74  C3  SGN d  62      19.010  33.669  37.754  0.00  0.00     0.083 C 
ATOM     75  H   SGN d  62      20.562  36.650  41.305  0.00  0.00     0.231 HD
ATOM     76  H   SGN d  62      20.985  33.980  40.595  0.00  0.00     0.131 H 
ATOM     77  H   SGN d  62      19.199  31.268  38.743  0.00  0.00     0.090 H 
ATOM     78  H   SGN d  62      18.120  35.290  37.126  0.00  0.00     0.210 HD
ATOM     79  H   SGN d  62      21.486  29.997  38.807  0.00  0.00     0.080 H 
ATOM     80  H   SGN d  62      21.712  30.677  37.238  0.00  0.00     0.080 H 
ATOM     81  H   SGN d  62      18.435  37.624  40.889  0.00  0.00     0.231 HD
ATOM     82  H   SGN d  62      20.925  36.760  37.945  0.00  0.00     0.231 HD
ATOM     83  H   SGN d  62      20.740  34.784  38.349  0.00  0.00     0.076 H 
ATOM     84  H   SGN d  62      20.779  32.934  36.748  0.00  0.00     0.091 H 
ATOM     85  H   SGN d  62      18.222  35.572  38.649  0.00  0.00     0.140 HD
ATOM     86  H   SGN d  62      18.115  33.249  38.165  0.00  0.00     0.089 H 
ATOM     87  O4  IDS d  63      19.091  33.278  40.760  0.00  0.00    -0.348 OA
ATOM     88  O62 IDS d  63      17.316  30.740  42.761  0.00  0.00    -0.646 OA
ATOM     89  C2  IDS d  63      17.606  35.563  42.252  0.00  0.00     0.134 C 
ATOM     90  O2S IDS d  63      15.216  37.027  40.915  0.00  0.00    -0.572 OA
ATOM     91  O61 IDS d  63      19.475  30.742  42.926  0.00  0.00    -0.646 OA
ATOM     92  C3  IDS d  63      19.096  35.219  42.377  0.00  0.00     0.094 C 
ATOM     93  C1  IDS d  63      16.778  34.713  43.255  0.00  0.00     0.161 C 
ATOM     94  O5  IDS d  63      16.947  33.318  42.899  0.00  0.00    -0.340 OA
ATOM     95  C4  IDS d  63      19.311  33.666  42.110  0.00  0.00     0.103 C 
ATOM     96  C6  IDS d  63      18.394  31.327  42.877  0.00  0.00     0.206 C 
ATOM     97  S   IDS d  63      15.507  35.651  40.533  0.00  0.00     0.252 S 
ATOM     98  O3  IDS d  63      19.432  35.538  43.709  0.00  0.00    -0.390 OA
ATOM     99  C5  IDS d  63      18.353  32.847  43.017  0.00  0.00     0.152 C 
ATOM    100  O2  IDS d  63      17.211  35.376  40.919  0.00  0.00    -0.244 OA
ATOM    101  O1S IDS d  63      15.390  35.435  39.103  0.00  0.00    -0.572 OA
ATOM    102  O3S IDS d  63      14.587  34.817  41.251  0.00  0.00    -0.572 OA
ATOM    103  H   IDS d  63      17.428  36.587  42.505  0.00  0.00     0.097 H 
ATOM    104  H   IDS d  63      19.701  35.751  41.673  0.00  0.00     0.091 H 
ATOM    105  H   IDS d  63      15.726  34.908  43.241  0.00  0.00     0.133 H 
ATOM    106  H   IDS d  63      20.338  33.468  42.335  0.00  0.00     0.092 H 
ATOM    107  H   IDS d  63      18.864  35.037  44.315  0.00  0.00     0.210 HD
ATOM    108  H   IDS d  63      18.745  33.042  43.993  0.00  0.00     0.104 H 
ATOM    109  O4  SGN d  64      17.305  35.046  44.576  0.00  0.00    -0.348 OA
ATOM    110  O6  SGN d  64      14.251  36.453  47.006  0.00  0.00    -0.254 OA
ATOM    111  C3  SGN d  64      17.887  33.530  46.407  0.00  0.00     0.083 C 
ATOM    112  S2  SGN d  64      13.168  35.050  46.805  0.00  0.00     0.251 S 
ATOM    113  C5  SGN d  64      16.493  35.566  46.781  0.00  0.00     0.091 C 
ATOM    114  O1S SGN d  64      17.432  29.611  48.619  0.00  0.00    -0.296 OA
ATOM    115  C2  SGN d  64      17.336  32.927  47.662  0.00  0.00     0.081 C 
ATOM    116  O4S SGN d  64      12.748  35.012  45.429  0.00  0.00    -0.572 OA
ATOM    117  O3S SGN d  64      18.240  30.143  46.453  0.00  0.00    -0.296 OA
ATOM    118  S1  SGN d  64      18.427  30.367  47.875  0.00  0.00     0.156 S 
ATOM    119  O6S SGN d  64      13.840  33.813  47.148  0.00  0.00    -0.572 OA
ATOM    120  O5S SGN d  64      12.032  35.223  47.670  0.00  0.00    -0.572 OA
ATOM    121  O3  SGN d  64      18.198  32.473  45.574  0.00  0.00    -0.391 OA
ATOM    122  C1  SGN d  64      16.992  34.037  48.621  0.00  0.00     0.150 C 
ATOM    123  O2S SGN d  64      19.758  29.975  48.248  0.00  0.00    -0.296 OA
ATOM    124  C4  SGN d  64      16.801  34.441  45.776  0.00  0.00     0.095 C 
ATOM    125  O5  SGN d  64      16.029  34.915  48.000  0.00  0.00    -0.349 OA
ATOM    126  C6  SGN d  64      15.433  36.490  46.220  0.00  0.00     0.067 C 
ATOM    127  N   SGN d  64      18.340  32.091  48.273  0.00  0.00    -0.210 NA
ATOM    128  H   SGN d  64      18.755  34.129  46.584  0.00  0.00     0.089 H 
ATOM    129  H   SGN d  64      17.358  36.165  46.979  0.00  0.00     0.090 H 
ATOM    130  H   SGN d  64      16.544  29.893  48.351  0.00  0.00     0.231 HD
ATOM    131  H   SGN d  64      16.468  32.345  47.432  0.00  0.00     0.076 H 
ATOM    132  H   SGN d  64      17.341  30.407  46.199  0.00  0.00     0.231 HD
ATOM    133  H   SGN d  64      17.404  31.937  45.421  0.00  0.00     0.210 HD
ATOM    134  H   SGN d  64      16.561  33.663  49.526  0.00  0.00     0.131 H 
ATOM    135  H   SGN d  64      19.882  29.032  48.058  0.00  0.00     0.231 HD
ATOM    136  H   SGN d  64      15.929  33.863  45.548  0.00  0.00     0.091 H 
ATOM    137  H   SGN d  64      15.813  37.490  46.208  0.00  0.00     0.080 H 
ATOM    138  H   SGN d  64      15.192  36.166  45.230  0.00  0.00     0.080 H 
ATOM    139  H   SGN d  64      18.201  32.154  49.282  0.00  0.00     0.140 HD
ATOM    140  C1  IDS d  61      19.761  31.901  34.872  0.00  0.00     0.167 C 
ATOM    141  O5  IDS d  61      19.644  33.269  34.402  0.00  0.00    -0.311 OA
ATOM    142  C5  IDS d  61      18.421  33.748  33.954  0.00  0.00     0.147 C 
ATOM    143  C6  IDS d  61      18.346  35.280  33.580  0.00  0.00     0.233 C 
ATOM    144  C2  IDS d  61      18.955  31.003  33.940  0.00  0.00     0.135 C 
ATOM    145  O1S IDS d  61      21.231  32.994  32.552  0.00  0.00    -0.572 OA
ATOM    146  O3S IDS d  61      22.079  30.798  33.073  0.00  0.00    -0.572 OA
ATOM    147  O3  IDS d  61      16.820  30.882  34.845  0.00  0.00    -0.389 OA
ATOM    148  C4  IDS d  61      17.357  32.927  33.728  0.00  0.00    -0.034 C 
ATOM    149  C3  IDS d  61      17.500  31.443  33.779  0.00  0.00     0.086 C 
ATOM    150  O61 IDS d  61      17.302  35.750  33.127  0.00  0.00    -0.642 OA
ATOM    151  O62 IDS d  61      19.361  36.007  33.714  0.00  0.00    -0.642 OA
ATOM    152  O2S IDS d  61      21.433  31.465  30.867  0.00  0.00    -0.572 OA
ATOM    153  S   IDS d  61      21.165  31.587  32.259  0.00  0.00     0.252 S 
ATOM    154  O2  IDS d  61      19.511  31.022  32.614  0.00  0.00    -0.244 OA
ATOM    155  H   IDS d  61      20.791  31.610  34.895  0.00  0.00     0.134 H 
ATOM    156  H   IDS d  61      18.995  30.034  34.392  0.00  0.00     0.097 H 
ATOM    157  H   IDS d  61      16.941  29.920  34.836  0.00  0.00     0.210 HD
ATOM    158  H   IDS d  61      16.435  33.339  33.517  0.00  0.00     0.085 H 
ATOM    159  H   IDS d  61      17.096  31.110  32.847  0.00  0.00     0.093 H 
ENDROOT
TORSDOF 50
ENDMDL
MODEL 9
REMARK VINA RESULT:      -6.2      2.047      2.653
REMARK  0 active torsions:
REMARK  status: ('A' for Active; 'I' for Inactive)
REMARK       I    between atoms: O3S_3  and  S1_55 
REMARK       I    between atoms: O3_4  and  C3_87 
REMARK       I    between atoms: O4_5  and  C1_15 
REMARK       I    between atoms: O4_5  and  C4_57 
REMARK       I    between atoms: O4_7  and  C1_36 
REMARK       I    between atoms: O4_7  and  C4_89 
REMARK       I    between atoms: C4_8  and  O4_18 
REMARK       I    between atoms: C2_9  and  O2_84 
REMARK       I    between atoms: C6_10  and  C5_32 
REMARK       I    between atoms: C6_10  and  O6_102 
REMARK       I    between atoms: O6_11  and  C6_93 
REMARK       I    between atoms: O6_11  and  S2_25 
REMARK       I    between atoms: C1_13  and  O4_74 
REMARK       I    between atoms: C3_14  and  O3_71 
REMARK       I    between atoms: O4_18  and  C1_54 
REMARK       I    between atoms: S2_19  and  O6_39 
REMARK       I    between atoms: O2S_21  and  S1_45 
REMARK       I    between atoms: C5_22  and  C6_23 
REMARK       I    between atoms: C5_24  and  C6_77 
REMARK       I    between atoms: O1_27  and  C1_48 
REMARK       I    between atoms: C5_28  and  C6_30 
REMARK       I    between atoms: C5_29  and  C6_93 
REMARK       I    between atoms: O1S_31  and  S1_44 
REMARK       I    between atoms: C3_33  and  O3_69 
REMARK       I    between atoms: C2_37  and  N_99 
REMARK       I    between atoms: S2_38  and  O6_102 
REMARK       I    between atoms: O6_39  and  C6_77 
REMARK       I    between atoms: C2_40  and  O2_103 
REMARK       I    between atoms: O3S_42  and  S1_44 
REMARK       I    between atoms: S1_44  and  N_99 
REMARK       I    between atoms: S1_44  and  O2S_81 
REMARK       I    between atoms: S1_45  and  N_94 
REMARK       I    between atoms: S1_45  and  O1S_46 
REMARK       I    between atoms: S1_45  and  O3S_58 
REMARK       I    between atoms: O3_52  and  C3_105 
REMARK       I    between atoms: S1_55  and  N_100 
REMARK       I    between atoms: S1_55  and  O1S_79 
REMARK       I    between atoms: S1_55  and  O2S_83 
REMARK       I    between atoms: O3_56  and  C3_64 
REMARK       I    between atoms: C4_60  and  O4_61 
REMARK       I    between atoms: O4_61  and  C1_73 
REMARK       I    between atoms: C6_63  and  C5_80 
REMARK       I    between atoms: C3_65  and  O3_82 
REMARK       I    between atoms: S_67  and  O2_84 
REMARK       I    between atoms: C2_68  and  O2_98 
REMARK       I    between atoms: O4_74  and  C4_97 
REMARK       I    between atoms: C2_85  and  N_94 
REMARK       I    between atoms: C2_95  and  N_100 
REMARK       I    between atoms: O2_98  and  S_104 
REMARK       I    between atoms: S_101  and  O2_103 
ROOT
ATOM      1  O6S SGN d  66      23.255  44.407  52.508  0.00  0.00    -0.572 OA
ATOM      2  C4  SGN d  66      19.053  42.625  51.070  0.00  0.00     0.095 C 
ATOM      3  C6  SGN d  66      20.150  42.075  53.277  0.00  0.00     0.067 C 
ATOM      4  O4  SGN d  66      19.780  41.479  50.421  0.00  0.00    -0.348 OA
ATOM      5  O5S SGN d  66      23.354  42.097  53.064  0.00  0.00    -0.572 OA
ATOM      6  O2S SGN d  66      14.765  46.294  51.857  0.00  0.00    -0.296 OA
ATOM      7  O5  SGN d  66      18.078  43.436  53.174  0.00  0.00    -0.350 OA
ATOM      8  O1  SGN d  66      15.916  42.584  52.550  0.00  0.00    -0.369 OA
ATOM      9  C5  SGN d  66      18.811  42.322  52.557  0.00  0.00     0.091 C 
ATOM     10  S2  SGN d  66      22.579  43.131  52.385  0.00  0.00     0.251 S 
ATOM     11  S1  SGN d  66      14.359  45.065  51.204  0.00  0.00     0.156 S 
ATOM     12  O1S SGN d  66      13.338  45.309  50.196  0.00  0.00    -0.296 OA
ATOM     13  C1  SGN d  66      16.785  43.733  52.548  0.00  0.00     0.147 C 
ATOM     14  O3S SGN d  66      13.808  44.120  52.163  0.00  0.00    -0.296 OA
ATOM     15  C3  SGN d  66      17.736  42.957  50.350  0.00  0.00     0.083 C 
ATOM     16  O3  SGN d  66      18.021  43.391  49.021  0.00  0.00    -0.391 OA
ATOM     17  C2  SGN d  66      17.051  44.116  51.078  0.00  0.00     0.081 C 
ATOM     18  O4S SGN d  66      22.410  42.815  50.973  0.00  0.00    -0.572 OA
ATOM     19  N   SGN d  66      15.799  44.421  50.372  0.00  0.00    -0.210 NA
ATOM     20  O6  SGN d  66      20.998  43.244  53.196  0.00  0.00    -0.254 OA
ATOM     21  H   SGN d  66      19.674  43.493  50.990  0.00  0.00     0.091 H 
ATOM     22  H   SGN d  66      20.648  41.247  52.816  0.00  0.00     0.080 H 
ATOM     23  H   SGN d  66      19.953  41.863  54.307  0.00  0.00     0.080 H 
ATOM     24  H   SGN d  66      15.129  46.906  51.198  0.00  0.00     0.231 HD
ATOM     25  H   SGN d  66      15.731  42.319  53.464  0.00  0.00     0.212 HD
ATOM     26  H   SGN d  66      18.220  41.434  52.647  0.00  0.00     0.090 H 
ATOM     27  H   SGN d  66      13.676  45.938  49.539  0.00  0.00     0.231 HD
ATOM     28  H   SGN d  66      16.314  44.519  53.099  0.00  0.00     0.131 H 
ATOM     29  H   SGN d  66      14.466  43.936  52.851  0.00  0.00     0.231 HD
ATOM     30  H   SGN d  66      17.111  42.088  50.336  0.00  0.00     0.089 H 
ATOM     31  H   SGN d  66      18.587  44.177  49.053  0.00  0.00     0.210 HD
ATOM     32  H   SGN d  66      17.678  44.984  51.082  0.00  0.00     0.076 H 
ATOM     33  H   SGN d  66      16.039  45.104  49.653  0.00  0.00     0.140 HD
ATOM     34  O61 IDS d  65      16.333  39.997  47.248  0.00  0.00    -0.646 OA
ATOM     35  O3  IDS d  65      20.083  37.302  49.831  0.00  0.00    -0.390 OA
ATOM     36  C5  IDS d  65      18.347  40.316  48.494  0.00  0.00     0.152 C 
ATOM     37  C6  IDS d  65      17.382  40.681  47.335  0.00  0.00     0.206 C 
ATOM     38  O5  IDS d  65      19.537  41.155  48.371  0.00  0.00    -0.340 OA
ATOM     39  C1  IDS d  65      20.573  40.955  49.366  0.00  0.00     0.161 C 
ATOM     40  O1S IDS d  65      22.215  36.896  51.826  0.00  0.00    -0.572 OA
ATOM     41  C4  IDS d  65      18.714  38.792  48.573  0.00  0.00     0.103 C 
ATOM     42  O4  IDS d  65      18.039  38.267  47.427  0.00  0.00    -0.348 OA
ATOM     43  C2  IDS d  65      20.496  39.593  50.119  0.00  0.00     0.134 C 
ATOM     44  O62 IDS d  65      17.676  41.643  46.562  0.00  0.00    -0.646 OA
ATOM     45  C3  IDS d  65      20.120  38.517  49.151  0.00  0.00     0.094 C 
ATOM     46  O2S IDS d  65      20.360  38.204  52.555  0.00  0.00    -0.572 OA
ATOM     47  O3S IDS d  65      22.558  38.861  53.162  0.00  0.00    -0.572 OA
ATOM     48  O2  IDS d  65      21.769  39.239  50.637  0.00  0.00    -0.244 OA
ATOM     49  S   IDS d  65      21.741  38.248  52.119  0.00  0.00     0.252 S 
ATOM     50  H   IDS d  65      19.840  36.594  49.214  0.00  0.00     0.210 HD
ATOM     51  H   IDS d  65      17.844  40.507  49.418  0.00  0.00     0.104 H 
ATOM     52  H   IDS d  65      21.533  41.222  48.975  0.00  0.00     0.133 H 
ATOM     53  H   IDS d  65      18.388  38.114  49.333  0.00  0.00     0.092 H 
ATOM     54  H   IDS d  65      19.779  39.691  50.908  0.00  0.00     0.097 H 
ATOM     55  H   IDS d  65      20.836  38.490  48.356  0.00  0.00     0.091 H 
ATOM     56  O3S SGN d  62      19.508  38.155  38.392  0.00  0.00    -0.296 OA
ATOM     57  C1  SGN d  62      19.888  34.766  39.059  0.00  0.00     0.150 C 
ATOM     58  S2  SGN d  62      21.394  29.013  39.048  0.00  0.00     0.251 S 
ATOM     59  C5  SGN d  62      20.271  32.475  38.161  0.00  0.00     0.091 C 
ATOM     60  O5  SGN d  62      20.809  33.654  38.825  0.00  0.00    -0.349 OA
ATOM     61  O4S SGN d  62      22.720  28.645  38.678  0.00  0.00    -0.572 OA
ATOM     62  O6  SGN d  62      20.765  30.199  37.929  0.00  0.00    -0.254 OA
ATOM     63  O3  SGN d  62      17.899  34.261  35.939  0.00  0.00    -0.391 OA
ATOM     64  S1  SGN d  62      18.360  37.656  37.672  0.00  0.00     0.156 S 
ATOM     65  O6S SGN d  62      21.309  29.544  40.407  0.00  0.00    -0.572 OA
ATOM     66  O4  SGN d  62      19.180  31.685  36.175  0.00  0.00    -0.348 OA
ATOM     67  C6  SGN d  62      21.386  31.469  38.008  0.00  0.00     0.067 C 
ATOM     68  O5S SGN d  62      20.514  27.881  38.950  0.00  0.00    -0.572 OA
ATOM     69  O1S SGN d  62      17.153  38.382  38.010  0.00  0.00    -0.296 OA
ATOM     70  O2S SGN d  62      18.658  37.714  36.270  0.00  0.00    -0.296 OA
ATOM     71  C2  SGN d  62      19.170  35.088  37.755  0.00  0.00     0.081 C 
ATOM     72  C4  SGN d  62      19.683  32.867  36.794  0.00  0.00     0.095 C 
ATOM     73  N   SGN d  62      18.085  35.972  38.040  0.00  0.00    -0.210 NA
ATOM     74  C3  SGN d  62      18.543  33.847  37.114  0.00  0.00     0.083 C 
ATOM     75  H   SGN d  62      19.330  38.126  39.345  0.00  0.00     0.231 HD
ATOM     76  H   SGN d  62      20.483  35.580  39.416  0.00  0.00     0.131 H 
ATOM     77  H   SGN d  62      19.482  32.043  38.740  0.00  0.00     0.090 H 
ATOM     78  H   SGN d  62      17.185  34.878  36.162  0.00  0.00     0.210 HD
ATOM     79  H   SGN d  62      22.041  31.510  38.854  0.00  0.00     0.080 H 
ATOM     80  H   SGN d  62      21.976  31.670  37.138  0.00  0.00     0.080 H 
ATOM     81  H   SGN d  62      16.992  38.315  38.965  0.00  0.00     0.231 HD
ATOM     82  H   SGN d  62      19.471  37.216  36.091  0.00  0.00     0.231 HD
ATOM     83  H   SGN d  62      19.897  35.507  37.092  0.00  0.00     0.076 H 
ATOM     84  H   SGN d  62      20.396  33.313  36.132  0.00  0.00     0.091 H 
ATOM     85  H   SGN d  62      17.278  35.661  37.499  0.00  0.00     0.140 HD
ATOM     86  H   SGN d  62      17.834  33.367  37.756  0.00  0.00     0.089 H 
ATOM     87  O4  IDS d  63      18.891  34.501  40.054  0.00  0.00    -0.348 OA
ATOM     88  O62 IDS d  63      18.047  32.392  42.958  0.00  0.00    -0.646 OA
ATOM     89  C2  IDS d  63      16.878  36.676  40.988  0.00  0.00     0.134 C 
ATOM     90  O2S IDS d  63      14.097  36.938  39.631  0.00  0.00    -0.572 OA
ATOM     91  O61 IDS d  63      20.115  33.013  42.803  0.00  0.00    -0.646 OA
ATOM     92  C3  IDS d  63      18.407  36.795  40.996  0.00  0.00     0.094 C 
ATOM     93  C1  IDS d  63      16.389  36.018  42.308  0.00  0.00     0.161 C 
ATOM     94  O5  IDS d  63      16.943  34.679  42.367  0.00  0.00    -0.340 OA
ATOM     95  C4  IDS d  63      19.056  35.355  41.179  0.00  0.00     0.103 C 
ATOM     96  C6  IDS d  63      18.908  33.245  42.736  0.00  0.00     0.206 C 
ATOM     97  S   IDS d  63      14.760  35.641  39.642  0.00  0.00     0.252 S 
ATOM     98  O3  IDS d  63      18.703  37.611  42.108  0.00  0.00    -0.390 OA
ATOM     99  C5  IDS d  63      18.430  34.659  42.418  0.00  0.00     0.152 C 
ATOM    100  O2  IDS d  63      16.487  35.964  39.844  0.00  0.00    -0.244 OA
ATOM    101  O1S IDS d  63      14.639  34.944  38.375  0.00  0.00    -0.572 OA
ATOM    102  O3S IDS d  63      14.165  34.879  40.702  0.00  0.00    -0.572 OA
ATOM    103  H   IDS d  63      16.419  37.642  40.944  0.00  0.00     0.097 H 
ATOM    104  H   IDS d  63      18.792  37.205  40.085  0.00  0.00     0.091 H 
ATOM    105  H   IDS d  63      15.327  35.915  42.388  0.00  0.00     0.133 H 
ATOM    106  H   IDS d  63      20.106  35.518  41.303  0.00  0.00     0.092 H 
ATOM    107  H   IDS d  63      18.339  37.207  42.911  0.00  0.00     0.210 HD
ATOM    108  H   IDS d  63      18.796  35.259  43.223  0.00  0.00     0.104 H 
ATOM    109  O4  SGN d  64      16.863  36.892  43.379  0.00  0.00    -0.348 OA
ATOM    110  O6  SGN d  64      13.659  38.168  45.686  0.00  0.00    -0.254 OA
ATOM    111  C3  SGN d  64      17.958  36.271  45.476  0.00  0.00     0.083 C 
ATOM    112  S2  SGN d  64      13.028  36.545  46.073  0.00  0.00     0.251 S 
ATOM    113  C5  SGN d  64      16.048  37.876  45.418  0.00  0.00     0.091 C 
ATOM    114  O1S SGN d  64      18.792  33.323  48.805  0.00  0.00    -0.296 OA
ATOM    115  C2  SGN d  64      17.675  35.993  46.920  0.00  0.00     0.081 C 
ATOM    116  O4S SGN d  64      12.568  35.948  44.846  0.00  0.00    -0.572 OA
ATOM    117  O3S SGN d  64      19.294  33.306  46.486  0.00  0.00    -0.296 OA
ATOM    118  S1  SGN d  64      19.480  34.026  47.733  0.00  0.00     0.156 S 
ATOM    119  O6S SGN d  64      14.051  35.711  46.671  0.00  0.00    -0.572 OA
ATOM    120  O5S SGN d  64      11.938  36.688  46.999  0.00  0.00    -0.572 OA
ATOM    121  O3  SGN d  64      18.523  35.120  44.963  0.00  0.00    -0.391 OA
ATOM    122  C1  SGN d  64      17.069  37.225  47.540  0.00  0.00     0.150 C 
ATOM    123  O2S SGN d  64      20.885  34.141  48.012  0.00  0.00    -0.296 OA
ATOM    124  C4  SGN d  64      16.621  36.606  44.764  0.00  0.00     0.095 C 
ATOM    125  O5  SGN d  64      15.859  37.565  46.830  0.00  0.00    -0.349 OA
ATOM    126  C6  SGN d  64      14.736  38.253  44.764  0.00  0.00     0.067 C 
ATOM    127  N   SGN d  64      18.911  35.698  47.603  0.00  0.00    -0.210 NA
ATOM    128  H   SGN d  64      18.620  37.101  45.339  0.00  0.00     0.089 H 
ATOM    129  H   SGN d  64      16.708  38.711  45.301  0.00  0.00     0.090 H 
ATOM    130  H   SGN d  64      17.847  33.258  48.594  0.00  0.00     0.231 HD
ATOM    131  H   SGN d  64      17.006  35.162  47.002  0.00  0.00     0.076 H 
ATOM    132  H   SGN d  64      18.345  33.227  46.297  0.00  0.00     0.231 HD
ATOM    133  H   SGN d  64      17.915  34.375  45.094  0.00  0.00     0.210 HD
ATOM    134  H   SGN d  64      16.814  37.070  48.568  0.00  0.00     0.131 H 
ATOM    135  H   SGN d  64      21.271  33.256  48.098  0.00  0.00     0.231 HD
ATOM    136  H   SGN d  64      15.948  35.778  44.848  0.00  0.00     0.091 H 
ATOM    137  H   SGN d  64      14.804  39.255  44.398  0.00  0.00     0.080 H 
ATOM    138  H   SGN d  64      14.550  37.569  43.962  0.00  0.00     0.080 H 
ATOM    139  H   SGN d  64      18.811  36.050  48.555  0.00  0.00     0.140 HD
ATOM    140  C1  IDS d  61      19.632  31.492  34.819  0.00  0.00     0.167 C 
ATOM    141  O5  IDS d  61      19.094  32.548  33.982  0.00  0.00    -0.311 OA
ATOM    142  C5  IDS d  61      17.762  32.515  33.591  0.00  0.00     0.147 C 
ATOM    143  C6  IDS d  61      17.221  33.762  32.790  0.00  0.00     0.233 C 
ATOM    144  C2  IDS d  61      19.079  30.160  34.325  0.00  0.00     0.135 C 
ATOM    145  O1S IDS d  61      20.594  32.106  32.092  0.00  0.00    -0.572 OA
ATOM    146  O3S IDS d  61      22.076  30.507  33.121  0.00  0.00    -0.572 OA
ATOM    147  O3  IDS d  61      17.123  29.788  35.522  0.00  0.00    -0.389 OA
ATOM    148  C4  IDS d  61      16.977  31.417  33.777  0.00  0.00    -0.034 C 
ATOM    149  C3  IDS d  61      17.553  30.125  34.250  0.00  0.00     0.086 C 
ATOM    150  O61 IDS d  61      16.063  33.766  32.371  0.00  0.00    -0.642 OA
ATOM    151  O62 IDS d  61      17.982  34.732  32.551  0.00  0.00    -0.642 OA
ATOM    152  O2S IDS d  61      21.150  30.218  30.933  0.00  0.00    -0.572 OA
ATOM    153  S   IDS d  61      20.930  30.716  32.248  0.00  0.00     0.252 S 
ATOM    154  O2  IDS d  61      19.536  29.887  32.989  0.00  0.00    -0.244 OA
ATOM    155  H   IDS d  61      20.701  31.505  34.780  0.00  0.00     0.134 H 
ATOM    156  H   IDS d  61      19.425  29.439  35.037  0.00  0.00     0.097 H 
ATOM    157  H   IDS d  61      17.522  28.944  35.785  0.00  0.00     0.210 HD
ATOM    158  H   IDS d  61      15.965  31.480  33.587  0.00  0.00     0.085 H 
ATOM    159  H   IDS d  61      17.217  29.410  33.529  0.00  0.00     0.093 H 
ENDROOT
TORSDOF 50
ENDMDL
MODEL 10
REMARK VINA RESULT:      -6.1      4.475     14.816
REMARK  0 active torsions:
REMARK  status: ('A' for Active; 'I' for Inactive)
REMARK       I    between atoms: O3S_3  and  S1_55 
REMARK       I    between atoms: O3_4  and  C3_87 
REMARK       I    between atoms: O4_5  and  C1_15 
REMARK       I    between atoms: O4_5  and  C4_57 
REMARK       I    between atoms: O4_7  and  C1_36 
REMARK       I    between atoms: O4_7  and  C4_89 
REMARK       I    between atoms: C4_8  and  O4_18 
REMARK       I    between atoms: C2_9  and  O2_84 
REMARK       I    between atoms: C6_10  and  C5_32 
REMARK       I    between atoms: C6_10  and  O6_102 
REMARK       I    between atoms: O6_11  and  C6_93 
REMARK       I    between atoms: O6_11  and  S2_25 
REMARK       I    between atoms: C1_13  and  O4_74 
REMARK       I    between atoms: C3_14  and  O3_71 
REMARK       I    between atoms: O4_18  and  C1_54 
REMARK       I    between atoms: S2_19  and  O6_39 
REMARK       I    between atoms: O2S_21  and  S1_45 
REMARK       I    between atoms: C5_22  and  C6_23 
REMARK       I    between atoms: C5_24  and  C6_77 
REMARK       I    between atoms: O1_27  and  C1_48 
REMARK       I    between atoms: C5_28  and  C6_30 
REMARK       I    between atoms: C5_29  and  C6_93 
REMARK       I    between atoms: O1S_31  and  S1_44 
REMARK       I    between atoms: C3_33  and  O3_69 
REMARK       I    between atoms: C2_37  and  N_99 
REMARK       I    between atoms: S2_38  and  O6_102 
REMARK       I    between atoms: O6_39  and  C6_77 
REMARK       I    between atoms: C2_40  and  O2_103 
REMARK       I    between atoms: O3S_42  and  S1_44 
REMARK       I    between atoms: S1_44  and  N_99 
REMARK       I    between atoms: S1_44  and  O2S_81 
REMARK       I    between atoms: S1_45  and  N_94 
REMARK       I    between atoms: S1_45  and  O1S_46 
REMARK       I    between atoms: S1_45  and  O3S_58 
REMARK       I    between atoms: O3_52  and  C3_105 
REMARK       I    between atoms: S1_55  and  N_100 
REMARK       I    between atoms: S1_55  and  O1S_79 
REMARK       I    between atoms: S1_55  and  O2S_83 
REMARK       I    between atoms: O3_56  and  C3_64 
REMARK       I    between atoms: C4_60  and  O4_61 
REMARK       I    between atoms: O4_61  and  C1_73 
REMARK       I    between atoms: C6_63  and  C5_80 
REMARK       I    between atoms: C3_65  and  O3_82 
REMARK       I    between atoms: S_67  and  O2_84 
REMARK       I    between atoms: C2_68  and  O2_98 
REMARK       I    between atoms: O4_74  and  C4_97 
REMARK       I    between atoms: C2_85  and  N_94 
REMARK       I    between atoms: C2_95  and  N_100 
REMARK       I    between atoms: O2_98  and  S_104 
REMARK       I    between atoms: S_101  and  O2_103 
ROOT
ATOM      1  O6S SGN d  66      21.544  43.941  35.118  0.00  0.00    -0.572 OA
ATOM      2  C4  SGN d  66      19.118  39.817  35.185  0.00  0.00     0.095 C 
ATOM      3  C6  SGN d  66      18.099  42.056  34.617  0.00  0.00     0.067 C 
ATOM      4  O4  SGN d  66      18.807  40.043  36.640  0.00  0.00    -0.348 OA
ATOM      5  O5S SGN d  66      19.502  44.457  36.223  0.00  0.00    -0.572 OA
ATOM      6  O2S SGN d  66      19.923  36.756  30.446  0.00  0.00    -0.296 OA
ATOM      7  O5  SGN d  66      18.388  40.299  32.890  0.00  0.00    -0.350 OA
ATOM      8  O1  SGN d  66      17.136  38.245  32.811  0.00  0.00    -0.369 OA
ATOM      9  C5  SGN d  66      18.090  40.548  34.306  0.00  0.00     0.091 C 
ATOM     10  S2  SGN d  66      20.323  43.385  35.665  0.00  0.00     0.251 S 
ATOM     11  S1  SGN d  66      19.094  36.088  31.430  0.00  0.00     0.156 S 
ATOM     12  O1S SGN d  66      19.344  34.654  31.454  0.00  0.00    -0.296 OA
ATOM     13  C1  SGN d  66      18.393  38.883  32.510  0.00  0.00     0.147 C 
ATOM     14  O3S SGN d  66      17.681  36.279  31.140  0.00  0.00    -0.296 OA
ATOM     15  C3  SGN d  66      19.184  38.322  34.833  0.00  0.00     0.083 C 
ATOM     16  O3  SGN d  66      20.259  37.716  35.550  0.00  0.00    -0.391 OA
ATOM     17  C2  SGN d  66      19.485  38.177  33.339  0.00  0.00     0.081 C 
ATOM     18  O4S SGN d  66      20.662  42.402  36.684  0.00  0.00    -0.572 OA
ATOM     19  N   SGN d  66      19.551  36.743  33.025  0.00  0.00    -0.210 NA
ATOM     20  O6  SGN d  66      19.400  42.628  34.345  0.00  0.00    -0.254 OA
ATOM     21  H   SGN d  66      20.089  40.222  34.991  0.00  0.00     0.091 H 
ATOM     22  H   SGN d  66      17.860  42.203  35.650  0.00  0.00     0.080 H 
ATOM     23  H   SGN d  66      17.374  42.540  33.996  0.00  0.00     0.080 H 
ATOM     24  H   SGN d  66      20.858  36.615  30.662  0.00  0.00     0.231 HD
ATOM     25  H   SGN d  66      16.428  38.670  32.301  0.00  0.00     0.212 HD
ATOM     26  H   SGN d  66      17.111  40.174  34.520  0.00  0.00     0.090 H 
ATOM     27  H   SGN d  66      20.281  34.493  31.645  0.00  0.00     0.231 HD
ATOM     28  H   SGN d  66      18.568  38.815  31.457  0.00  0.00     0.131 H 
ATOM     29  H   SGN d  66      17.480  37.227  31.117  0.00  0.00     0.231 HD
ATOM     30  H   SGN d  66      18.254  37.857  35.085  0.00  0.00     0.089 H 
ATOM     31  H   SGN d  66      21.093  38.150  35.310  0.00  0.00     0.210 HD
ATOM     32  H   SGN d  66      20.420  38.638  33.095  0.00  0.00     0.076 H 
ATOM     33  H   SGN d  66      20.520  36.464  33.177  0.00  0.00     0.140 HD
ATOM     34  O61 IDS d  65      17.727  35.441  37.984  0.00  0.00    -0.646 OA
ATOM     35  O3  IDS d  65      15.908  40.098  39.718  0.00  0.00    -0.390 OA
ATOM     36  C5  IDS d  65      18.209  37.781  37.923  0.00  0.00     0.152 C 
ATOM     37  C6  IDS d  65      18.648  36.295  37.995  0.00  0.00     0.206 C 
ATOM     38  O5  IDS d  65      19.407  38.610  38.038  0.00  0.00    -0.340 OA
ATOM     39  C1  IDS d  65      19.202  40.047  38.003  0.00  0.00     0.161 C 
ATOM     40  O1S IDS d  65      15.517  43.020  39.676  0.00  0.00    -0.572 OA
ATOM     41  C4  IDS d  65      17.117  38.183  38.976  0.00  0.00     0.103 C 
ATOM     42  O4  IDS d  65      16.964  36.971  39.720  0.00  0.00    -0.348 OA
ATOM     43  C2  IDS d  65      17.747  40.503  38.320  0.00  0.00     0.134 C 
ATOM     44  O62 IDS d  65      19.884  36.013  38.036  0.00  0.00    -0.646 OA
ATOM     45  C3  IDS d  65      17.197  39.660  39.426  0.00  0.00     0.094 C 
ATOM     46  O2S IDS d  65      15.465  41.944  37.549  0.00  0.00    -0.572 OA
ATOM     47  O3S IDS d  65      16.584  44.025  37.775  0.00  0.00    -0.572 OA
ATOM     48  O2  IDS d  65      17.739  41.841  38.795  0.00  0.00    -0.244 OA
ATOM     49  S   IDS d  65      16.257  42.767  38.441  0.00  0.00     0.252 S 
ATOM     50  H   IDS d  65      15.537  39.559  40.435  0.00  0.00     0.210 HD
ATOM     51  H   IDS d  65      17.728  37.940  36.982  0.00  0.00     0.104 H 
ATOM     52  H   IDS d  65      19.981  40.554  38.535  0.00  0.00     0.133 H 
ATOM     53  H   IDS d  65      16.098  38.420  38.754  0.00  0.00     0.092 H 
ATOM     54  H   IDS d  65      17.169  40.415  37.424  0.00  0.00     0.097 H 
ATOM     55  H   IDS d  65      17.833  39.740  40.283  0.00  0.00     0.091 H 
ATOM     56  O3S SGN d  62      21.666  32.611  46.253  0.00  0.00    -0.296 OA
ATOM     57  C1  SGN d  62      18.834  33.462  48.079  0.00  0.00     0.150 C 
ATOM     58  S2  SGN d  62      14.905  34.888  52.309  0.00  0.00     0.251 S 
ATOM     59  C5  SGN d  62      17.598  33.312  50.236  0.00  0.00     0.091 C 
ATOM     60  O5  SGN d  62      18.435  34.094  49.337  0.00  0.00    -0.349 OA
ATOM     61  O4S SGN d  62      15.320  35.724  53.387  0.00  0.00    -0.572 OA
ATOM     62  O6  SGN d  62      16.108  33.657  52.009  0.00  0.00    -0.254 OA
ATOM     63  O3  SGN d  62      19.086  30.004  49.466  0.00  0.00    -0.391 OA
ATOM     64  S1  SGN d  62      21.145  31.284  46.488  0.00  0.00     0.156 S 
ATOM     65  O6S SGN d  62      14.658  35.629  51.075  0.00  0.00    -0.572 OA
ATOM     66  O4  SGN d  62      17.459  31.269  51.486  0.00  0.00    -0.348 OA
ATOM     67  C6  SGN d  62      17.323  34.142  51.466  0.00  0.00     0.067 C 
ATOM     68  O5S SGN d  62      13.704  34.180  52.659  0.00  0.00    -0.572 OA
ATOM     69  O1S SGN d  62      21.075  30.508  45.268  0.00  0.00    -0.296 OA
ATOM     70  O2S SGN d  62      21.962  30.660  47.488  0.00  0.00    -0.296 OA
ATOM     71  C2  SGN d  62      19.405  32.084  48.384  0.00  0.00     0.081 C 
ATOM     72  C4  SGN d  62      18.306  31.995  50.599  0.00  0.00     0.095 C 
ATOM     73  N   SGN d  62      19.535  31.364  47.157  0.00  0.00    -0.210 NA
ATOM     74  C3  SGN d  62      18.472  31.249  49.266  0.00  0.00     0.083 C 
ATOM     75  H   SGN d  62      21.128  33.054  45.579  0.00  0.00     0.231 HD
ATOM     76  H   SGN d  62      19.550  34.116  47.627  0.00  0.00     0.131 H 
ATOM     77  H   SGN d  62      16.670  33.061  49.764  0.00  0.00     0.090 H 
ATOM     78  H   SGN d  62      19.182  29.550  48.614  0.00  0.00     0.210 HD
ATOM     79  H   SGN d  62      17.225  35.175  51.203  0.00  0.00     0.080 H 
ATOM     80  H   SGN d  62      18.123  34.067  52.174  0.00  0.00     0.080 H 
ATOM     81  H   SGN d  62      20.514  30.967  44.624  0.00  0.00     0.231 HD
ATOM     82  H   SGN d  62      21.979  31.214  48.285  0.00  0.00     0.231 HD
ATOM     83  H   SGN d  62      20.336  32.234  48.889  0.00  0.00     0.076 H 
ATOM     84  H   SGN d  62      19.252  32.135  51.079  0.00  0.00     0.091 H 
ATOM     85  H   SGN d  62      19.216  30.408  47.321  0.00  0.00     0.140 HD
ATOM     86  H   SGN d  62      17.510  31.101  48.821  0.00  0.00     0.089 H 
ATOM     87  O4  IDS d  63      17.762  33.294  47.143  0.00  0.00    -0.348 OA
ATOM     88  O62 IDS d  63      14.409  34.493  46.186  0.00  0.00    -0.646 OA
ATOM     89  C2  IDS d  63      18.234  32.183  44.280  0.00  0.00     0.134 C 
ATOM     90  O2S IDS d  63      17.954  29.145  43.701  0.00  0.00    -0.572 OA
ATOM     91  O61 IDS d  63      15.802  36.005  46.861  0.00  0.00    -0.646 OA
ATOM     92  C3  IDS d  63      18.940  33.391  44.910  0.00  0.00     0.094 C 
ATOM     93  C1  IDS d  63      16.906  32.632  43.612  0.00  0.00     0.161 C 
ATOM     94  O5  IDS d  63      16.044  33.162  44.652  0.00  0.00    -0.340 OA
ATOM     95  C4  IDS d  63      17.979  34.076  45.975  0.00  0.00     0.103 C 
ATOM     96  C6  IDS d  63      15.531  35.002  46.204  0.00  0.00     0.206 C 
ATOM     97  S   IDS d  63      17.192  29.731  44.796  0.00  0.00     0.252 S 
ATOM     98  O3  IDS d  63      19.185  34.270  43.834  0.00  0.00    -0.390 OA
ATOM     99  C5  IDS d  63      16.602  34.369  45.320  0.00  0.00     0.152 C 
ATOM    100  O2  IDS d  63      18.048  31.205  45.268  0.00  0.00    -0.244 OA
ATOM    101  O1S IDS d  63      17.182  28.889  45.978  0.00  0.00    -0.572 OA
ATOM    102  O3S IDS d  63      15.859  29.941  44.309  0.00  0.00    -0.572 OA
ATOM    103  H   IDS d  63      18.833  31.754  43.504  0.00  0.00     0.097 H 
ATOM    104  H   IDS d  63      19.841  33.121  45.420  0.00  0.00     0.091 H 
ATOM    105  H   IDS d  63      16.360  31.846  43.132  0.00  0.00     0.133 H 
ATOM    106  H   IDS d  63      18.472  34.975  46.282  0.00  0.00     0.092 H 
ATOM    107  H   IDS d  63      18.347  34.491  43.400  0.00  0.00     0.210 HD
ATOM    108  H   IDS d  63      16.849  35.126  44.605  0.00  0.00     0.104 H 
ATOM    109  O4  SGN d  64      17.288  33.624  42.610  0.00  0.00    -0.348 OA
ATOM    110  O6  SGN d  64      15.934  32.450  38.867  0.00  0.00    -0.254 OA
ATOM    111  C3  SGN d  64      16.264  35.799  42.154  0.00  0.00     0.083 C 
ATOM    112  S2  SGN d  64      14.221  32.258  39.322  0.00  0.00     0.251 S 
ATOM    113  C5  SGN d  64      16.790  34.187  40.324  0.00  0.00     0.091 C 
ATOM    114  O1S SGN d  64      12.726  38.618  42.216  0.00  0.00    -0.296 OA
ATOM    115  C2  SGN d  64      15.259  36.470  41.270  0.00  0.00     0.081 C 
ATOM    116  O4S SGN d  64      14.135  31.169  40.260  0.00  0.00    -0.572 OA
ATOM    117  O3S SGN d  64      13.992  37.597  43.944  0.00  0.00    -0.296 OA
ATOM    118  S1  SGN d  64      14.055  38.476  42.790  0.00  0.00     0.156 S 
ATOM    119  O6S SGN d  64      13.696  33.466  39.924  0.00  0.00    -0.572 OA
ATOM    120  O5S SGN d  64      13.465  31.956  38.137  0.00  0.00    -0.572 OA
ATOM    121  O3  SGN d  64      15.821  35.980  43.450  0.00  0.00    -0.391 OA
ATOM    122  C1  SGN d  64      15.699  36.318  39.837  0.00  0.00     0.150 C 
ATOM    123  O2S SGN d  64      14.581  39.752  43.192  0.00  0.00    -0.296 OA
ATOM    124  C4  SGN d  64      16.321  34.293  41.786  0.00  0.00     0.095 C 
ATOM    125  O5  SGN d  64      15.812  34.914  39.523  0.00  0.00    -0.349 OA
ATOM    126  C6  SGN d  64      16.863  32.734  39.904  0.00  0.00     0.067 C 
ATOM    127  N   SGN d  64      15.206  37.876  41.585  0.00  0.00    -0.210 NA
ATOM    128  H   SGN d  64      17.248  36.202  42.040  0.00  0.00     0.089 H 
ATOM    129  H   SGN d  64      17.768  34.601  40.192  0.00  0.00     0.090 H 
ATOM    130  H   SGN d  64      12.393  37.746  41.954  0.00  0.00     0.231 HD
ATOM    131  H   SGN d  64      14.297  36.027  41.417  0.00  0.00     0.076 H 
ATOM    132  H   SGN d  64      13.636  36.735  43.675  0.00  0.00     0.231 HD
ATOM    133  H   SGN d  64      14.928  35.611  43.542  0.00  0.00     0.210 HD
ATOM    134  H   SGN d  64      14.997  36.752  39.156  0.00  0.00     0.131 H 
ATOM    135  H   SGN d  64      13.998  40.147  43.858  0.00  0.00     0.231 HD
ATOM    136  H   SGN d  64      15.358  33.847  41.929  0.00  0.00     0.091 H 
ATOM    137  H   SGN d  64      17.851  32.521  39.556  0.00  0.00     0.080 H 
ATOM    138  H   SGN d  64      16.622  32.125  40.751  0.00  0.00     0.080 H 
ATOM    139  H   SGN d  64      15.001  38.365  40.713  0.00  0.00     0.140 HD
ATOM    140  C1  IDS d  61      18.118  30.805  52.682  0.00  0.00     0.167 C 
ATOM    141  O5  IDS d  61      19.124  29.823  52.322  0.00  0.00    -0.311 OA
ATOM    142  C5  IDS d  61      18.744  28.533  51.976  0.00  0.00     0.147 C 
ATOM    143  C6  IDS d  61      19.883  27.563  51.474  0.00  0.00     0.233 C 
ATOM    144  C2  IDS d  61      17.074  30.122  53.559  0.00  0.00     0.135 C 
ATOM    145  O1S IDS d  61      20.256  29.871  54.497  0.00  0.00    -0.572 OA
ATOM    146  O3S IDS d  61      19.113  31.738  55.504  0.00  0.00    -0.572 OA
ATOM    147  O3  IDS d  61      15.439  29.325  52.115  0.00  0.00    -0.389 OA
ATOM    148  C4  IDS d  61      17.476  28.073  52.167  0.00  0.00    -0.034 C 
ATOM    149  C3  IDS d  61      16.468  28.872  52.922  0.00  0.00     0.086 C 
ATOM    150  O61 IDS d  61      19.616  26.391  51.204  0.00  0.00    -0.642 OA
ATOM    151  O62 IDS d  61      21.065  27.977  51.384  0.00  0.00    -0.642 OA
ATOM    152  O2S IDS d  61      19.529  29.681  56.654  0.00  0.00    -0.572 OA
ATOM    153  S   IDS d  61      19.222  30.290  55.405  0.00  0.00     0.252 S 
ATOM    154  O2  IDS d  61      17.663  29.677  54.793  0.00  0.00    -0.244 OA
ATOM    155  H   IDS d  61      18.576  31.625  53.194  0.00  0.00     0.134 H 
ATOM    156  H   IDS d  61      16.314  30.861  53.705  0.00  0.00     0.097 H 
ATOM    157  H   IDS d  61      14.811  29.836  52.649  0.00  0.00     0.210 HD
ATOM    158  H   IDS d  61      17.207  27.155  51.781  0.00  0.00     0.085 H 
ATOM    159  H   IDS d  61      16.104  28.196  53.667  0.00  0.00     0.093 H 
ENDROOT
TORSDOF 50
ENDMDL
MODEL 11
REMARK VINA RESULT:      -6.1      1.773      2.205
REMARK  0 active torsions:
REMARK  status: ('A' for Active; 'I' for Inactive)
REMARK       I    between atoms: O3S_3  and  S1_55 
REMARK       I    between atoms: O3_4  and  C3_87 
REMARK       I    between atoms: O4_5  and  C1_15 
REMARK       I    between atoms: O4_5  and  C4_57 
REMARK       I    between atoms: O4_7  and  C1_36 
REMARK       I    between atoms: O4_7  and  C4_89 
REMARK       I    between atoms: C4_8  and  O4_18 
REMARK       I    between atoms: C2_9  and  O2_84 
REMARK       I    between atoms: C6_10  and  C5_32 
REMARK       I    between atoms: C6_10  and  O6_102 
REMARK       I    between atoms: O6_11  and  C6_93 
REMARK       I    between atoms: O6_11  and  S2_25 
REMARK       I    between atoms: C1_13  and  O4_74 
REMARK       I    between atoms: C3_14  and  O3_71 
REMARK       I    between atoms: O4_18  and  C1_54 
REMARK       I    between atoms: S2_19  and  O6_39 
REMARK       I    between atoms: O2S_21  and  S1_45 
REMARK       I    between atoms: C5_22  and  C6_23 
REMARK       I    between atoms: C5_24  and  C6_77 
REMARK       I    between atoms: O1_27  and  C1_48 
REMARK       I    between atoms: C5_28  and  C6_30 
REMARK       I    between atoms: C5_29  and  C6_93 
REMARK       I    between atoms: O1S_31  and  S1_44 
REMARK       I    between atoms: C3_33  and  O3_69 
REMARK       I    between atoms: C2_37  and  N_99 
REMARK       I    between atoms: S2_38  and  O6_102 
REMARK       I    between atoms: O6_39  and  C6_77 
REMARK       I    between atoms: C2_40  and  O2_103 
REMARK       I    between atoms: O3S_42  and  S1_44 
REMARK       I    between atoms: S1_44  and  N_99 
REMARK       I    between atoms: S1_44  and  O2S_81 
REMARK       I    between atoms: S1_45  and  N_94 
REMARK       I    between atoms: S1_45  and  O1S_46 
REMARK       I    between atoms: S1_45  and  O3S_58 
REMARK       I    between atoms: O3_52  and  C3_105 
REMARK       I    between atoms: S1_55  and  N_100 
REMARK       I    between atoms: S1_55  and  O1S_79 
REMARK       I    between atoms: S1_55  and  O2S_83 
REMARK       I    between atoms: O3_56  and  C3_64 
REMARK       I    between atoms: C4_60  and  O4_61 
REMARK       I    between atoms: O4_61  and  C1_73 
REMARK       I    between atoms: C6_63  and  C5_80 
REMARK       I    between atoms: C3_65  and  O3_82 
REMARK       I    between atoms: S_67  and  O2_84 
REMARK       I    between atoms: C2_68  and  O2_98 
REMARK       I    between atoms: O4_74  and  C4_97 
REMARK       I    between atoms: C2_85  and  N_94 
REMARK       I    between atoms: C2_95  and  N_100 
REMARK       I    between atoms: O2_98  and  S_104 
REMARK       I    between atoms: S_101  and  O2_103 
ROOT
ATOM      1  O6S SGN d  66      23.866  35.063  56.285  0.00  0.00    -0.572 OA
ATOM      2  C4  SGN d  66      19.721  36.036  54.103  0.00  0.00     0.095 C 
ATOM      3  C6  SGN d  66      20.019  34.237  55.849  0.00  0.00     0.067 C 
ATOM      4  O4  SGN d  66      20.076  35.049  53.024  0.00  0.00    -0.348 OA
ATOM      5  O5S SGN d  66      22.952  32.935  55.743  0.00  0.00    -0.572 OA
ATOM      6  O2S SGN d  66      17.098  40.564  56.358  0.00  0.00    -0.296 OA
ATOM      7  O5  SGN d  66      18.699  36.284  56.323  0.00  0.00    -0.350 OA
ATOM      8  O1  SGN d  66      16.566  36.791  55.332  0.00  0.00    -0.369 OA
ATOM      9  C5  SGN d  66      19.066  35.309  55.287  0.00  0.00     0.091 C 
ATOM     10  S2  SGN d  66      22.798  34.378  55.585  0.00  0.00     0.251 S 
ATOM     11  S1  SGN d  66      16.405  40.009  55.212  0.00  0.00     0.156 S 
ATOM     12  O1S SGN d  66      15.798  41.052  54.399  0.00  0.00    -0.296 OA
ATOM     13  C1  SGN d  66      17.786  37.338  55.868  0.00  0.00     0.147 C 
ATOM     14  O3S SGN d  66      15.342  39.108  55.630  0.00  0.00    -0.296 OA
ATOM     15  C3  SGN d  66      18.819  37.166  53.578  0.00  0.00     0.083 C 
ATOM     16  O3  SGN d  66      19.528  37.917  52.594  0.00  0.00    -0.391 OA
ATOM     17  C2  SGN d  66      18.488  38.113  54.734  0.00  0.00     0.081 C 
ATOM     18  O4S SGN d  66      22.830  34.757  54.179  0.00  0.00    -0.572 OA
ATOM     19  N   SGN d  66      17.632  39.187  54.213  0.00  0.00    -0.210 NA
ATOM     20  O6  SGN d  66      21.245  34.841  56.323  0.00  0.00    -0.254 OA
ATOM     21  H   SGN d  66      20.627  36.496  54.436  0.00  0.00     0.091 H 
ATOM     22  H   SGN d  66      20.250  33.534  55.077  0.00  0.00     0.080 H 
ATOM     23  H   SGN d  66      19.538  33.745  56.669  0.00  0.00     0.080 H 
ATOM     24  H   SGN d  66      17.801  41.159  56.054  0.00  0.00     0.231 HD
ATOM     25  H   SGN d  66      16.101  36.297  56.025  0.00  0.00     0.212 HD
ATOM     26  H   SGN d  66      18.177  34.815  54.954  0.00  0.00     0.090 H 
ATOM     27  H   SGN d  66      16.484  41.671  54.104  0.00  0.00     0.231 HD
ATOM     28  H   SGN d  66      17.544  37.961  56.703  0.00  0.00     0.131 H 
ATOM     29  H   SGN d  66      15.714  38.398  56.177  0.00  0.00     0.231 HD
ATOM     30  H   SGN d  66      17.929  36.744  53.161  0.00  0.00     0.089 H 
ATOM     31  H   SGN d  66      20.330  38.291  52.990  0.00  0.00     0.210 HD
ATOM     32  H   SGN d  66      19.383  38.537  55.143  0.00  0.00     0.076 H 
ATOM     33  H   SGN d  66      18.264  39.918  53.884  0.00  0.00     0.140 HD
ATOM     34  O61 IDS d  65      17.097  36.619  49.444  0.00  0.00    -0.646 OA
ATOM     35  O3  IDS d  65      18.880  31.779  50.623  0.00  0.00    -0.390 OA
ATOM     36  C5  IDS d  65      18.760  35.501  50.747  0.00  0.00     0.152 C 
ATOM     37  C6  IDS d  65      18.283  36.678  49.854  0.00  0.00     0.206 C 
ATOM     38  O5  IDS d  65      20.176  35.706  51.042  0.00  0.00    -0.340 OA
ATOM     39  C1  IDS d  65      20.816  34.696  51.865  0.00  0.00     0.161 C 
ATOM     40  O1S IDS d  65      20.210  29.727  52.270  0.00  0.00    -0.572 OA
ATOM     41  C4  IDS d  65      18.490  34.080  50.139  0.00  0.00     0.103 C 
ATOM     42  O4  IDS d  65      17.931  34.405  48.864  0.00  0.00    -0.348 OA
ATOM     43  C2  IDS d  65      20.064  33.333  51.921  0.00  0.00     0.134 C 
ATOM     44  O62 IDS d  65      19.081  37.631  49.605  0.00  0.00    -0.646 OA
ATOM     45  C3  IDS d  65      19.524  33.012  50.564  0.00  0.00     0.094 C 
ATOM     46  O2S IDS d  65      18.885  31.308  53.467  0.00  0.00    -0.572 OA
ATOM     47  O3S IDS d  65      20.981  30.634  54.355  0.00  0.00    -0.572 OA
ATOM     48  O2  IDS d  65      20.961  32.285  52.253  0.00  0.00    -0.244 OA
ATOM     49  S   IDS d  65      20.237  30.910  53.129  0.00  0.00     0.252 S 
ATOM     50  H   IDS d  65      18.525  31.558  49.748  0.00  0.00     0.210 HD
ATOM     51  H   IDS d  65      18.181  35.510  51.645  0.00  0.00     0.104 H 
ATOM     52  H   IDS d  65      21.865  34.646  51.657  0.00  0.00     0.133 H 
ATOM     53  H   IDS d  65      17.775  33.374  50.505  0.00  0.00     0.092 H 
ATOM     54  H   IDS d  65      19.287  33.413  52.653  0.00  0.00     0.097 H 
ATOM     55  H   IDS d  65      20.329  32.992  49.859  0.00  0.00     0.091 H 
ATOM     56  O3S SGN d  62      21.160  37.248  40.784  0.00  0.00    -0.296 OA
ATOM     57  C1  SGN d  62      20.062  34.083  39.862  0.00  0.00     0.150 C 
ATOM     58  S2  SGN d  62      19.221  28.784  37.296  0.00  0.00     0.251 S 
ATOM     59  C5  SGN d  62      19.726  32.421  38.037  0.00  0.00     0.091 C 
ATOM     60  O5  SGN d  62      20.516  32.874  39.173  0.00  0.00    -0.349 OA
ATOM     61  O4S SGN d  62      20.351  28.052  36.830  0.00  0.00    -0.572 OA
ATOM     62  O6  SGN d  62      19.351  30.459  36.816  0.00  0.00    -0.254 OA
ATOM     63  O3  SGN d  62      18.757  35.781  36.804  0.00  0.00    -0.391 OA
ATOM     64  S1  SGN d  62      20.093  37.634  39.890  0.00  0.00     0.156 S 
ATOM     65  O6S SGN d  62      19.054  28.712  38.745  0.00  0.00    -0.572 OA
ATOM     66  O4  SGN d  62      18.873  33.047  35.884  0.00  0.00    -0.348 OA
ATOM     67  C6  SGN d  62      20.377  31.181  37.474  0.00  0.00     0.067 C 
ATOM     68  O5S SGN d  62      18.019  28.295  36.678  0.00  0.00    -0.572 OA
ATOM     69  O1S SGN d  62      19.213  38.614  40.491  0.00  0.00    -0.296 OA
ATOM     70  O2S SGN d  62      20.686  38.105  38.671  0.00  0.00    -0.296 OA
ATOM     71  C2  SGN d  62      19.822  35.173  38.827  0.00  0.00     0.081 C 
ATOM     72  C4  SGN d  62      19.642  33.536  36.980  0.00  0.00     0.095 C 
ATOM     73  N   SGN d  62      19.123  36.249  39.454  0.00  0.00    -0.210 NA
ATOM     74  C3  SGN d  62      18.923  34.700  37.680  0.00  0.00     0.083 C 
ATOM     75  H   SGN d  62      20.783  36.925  41.617  0.00  0.00     0.231 HD
ATOM     76  H   SGN d  62      20.831  34.337  40.561  0.00  0.00     0.131 H 
ATOM     77  H   SGN d  62      18.726  32.189  38.342  0.00  0.00     0.090 H 
ATOM     78  H   SGN d  62      18.302  36.504  37.264  0.00  0.00     0.210 HD
ATOM     79  H   SGN d  62      20.798  30.592  38.262  0.00  0.00     0.080 H 
ATOM     80  H   SGN d  62      21.171  31.429  36.801  0.00  0.00     0.080 H 
ATOM     81  H   SGN d  62      18.837  38.253  41.309  0.00  0.00     0.231 HD
ATOM     82  H   SGN d  62      21.265  37.417  38.307  0.00  0.00     0.231 HD
ATOM     83  H   SGN d  62      20.778  35.455  38.440  0.00  0.00     0.076 H 
ATOM     84  H   SGN d  62      20.597  33.846  36.606  0.00  0.00     0.091 H 
ATOM     85  H   SGN d  62      18.396  36.566  38.813  0.00  0.00     0.140 HD
ATOM     86  H   SGN d  62      17.964  34.369  38.021  0.00  0.00     0.089 H 
ATOM     87  O4  IDS d  63      18.851  33.912  40.608  0.00  0.00    -0.348 OA
ATOM     88  O62 IDS d  63      16.659  31.429  42.230  0.00  0.00    -0.646 OA
ATOM     89  C2  IDS d  63      17.670  36.179  42.374  0.00  0.00     0.134 C 
ATOM     90  O2S IDS d  63      15.565  38.146  41.217  0.00  0.00    -0.572 OA
ATOM     91  O61 IDS d  63      18.788  31.086  42.419  0.00  0.00    -0.646 OA
ATOM     92  C3  IDS d  63      19.089  35.602  42.470  0.00  0.00     0.094 C 
ATOM     93  C1  IDS d  63      16.695  35.339  43.245  0.00  0.00     0.161 C 
ATOM     94  O5  IDS d  63      16.669  33.993  42.707  0.00  0.00    -0.340 OA
ATOM     95  C4  IDS d  63      19.082  34.083  42.000  0.00  0.00     0.103 C 
ATOM     96  C6  IDS d  63      17.807  31.828  42.436  0.00  0.00     0.206 C 
ATOM     97  S   IDS d  63      15.663  36.804  40.658  0.00  0.00     0.252 S 
ATOM     98  O3  IDS d  63      19.426  35.691  43.837  0.00  0.00    -0.390 OA
ATOM     99  C5  IDS d  63      17.986  33.305  42.777  0.00  0.00     0.152 C 
ATOM    100  O2  IDS d  63      17.295  36.229  41.023  0.00  0.00    -0.244 OA
ATOM    101  O1S IDS d  63      15.561  36.797  39.210  0.00  0.00    -0.572 OA
ATOM    102  O3S IDS d  63      14.609  36.030  41.246  0.00  0.00    -0.572 OA
ATOM    103  H   IDS d  63      17.637  37.176  42.760  0.00  0.00     0.097 H 
ATOM    104  H   IDS d  63      19.788  36.124  41.851  0.00  0.00     0.091 H 
ATOM    105  H   IDS d  63      15.684  35.690  43.245  0.00  0.00     0.133 H 
ATOM    106  H   IDS d  63      20.061  33.706  42.208  0.00  0.00     0.092 H 
ATOM    107  H   IDS d  63      18.771  35.206  44.363  0.00  0.00     0.210 HD
ATOM    108  H   IDS d  63      18.371  33.310  43.775  0.00  0.00     0.104 H 
ATOM    109  O4  SGN d  64      17.224  35.414  44.605  0.00  0.00    -0.348 OA
ATOM    110  O6  SGN d  64      14.333  36.933  47.164  0.00  0.00    -0.254 OA
ATOM    111  C3  SGN d  64      17.517  33.602  46.223  0.00  0.00     0.083 C 
ATOM    112  S2  SGN d  64      13.063  35.747  46.765  0.00  0.00     0.251 S 
ATOM    113  C5  SGN d  64      16.427  35.757  46.849  0.00  0.00     0.091 C 
ATOM    114  O1S SGN d  64      16.422  29.540  47.885  0.00  0.00    -0.296 OA
ATOM    115  C2  SGN d  64      16.845  32.930  47.379  0.00  0.00     0.081 C 
ATOM    116  O4S SGN d  64      12.686  35.952  45.390  0.00  0.00    -0.572 OA
ATOM    117  O3S SGN d  64      17.367  30.224  45.819  0.00  0.00    -0.296 OA
ATOM    118  S1  SGN d  64      17.540  30.229  47.261  0.00  0.00     0.156 S 
ATOM    119  O6S SGN d  64      13.534  34.389  46.946  0.00  0.00    -0.572 OA
ATOM    120  O5S SGN d  64      11.938  35.973  47.631  0.00  0.00    -0.572 OA
ATOM    121  O3  SGN d  64      17.696  32.628  45.259  0.00  0.00    -0.391 OA
ATOM    122  C1  SGN d  64      16.637  33.944  48.474  0.00  0.00     0.150 C 
ATOM    123  O2S SGN d  64      18.786  29.597  47.594  0.00  0.00    -0.296 OA
ATOM    124  C4  SGN d  64      16.597  34.740  45.707  0.00  0.00     0.095 C 
ATOM    125  O5  SGN d  64      15.833  35.030  47.965  0.00  0.00    -0.349 OA
ATOM    126  C6  SGN d  64      15.533  36.895  46.405  0.00  0.00     0.067 C 
ATOM    127  N   SGN d  64      17.695  31.880  47.885  0.00  0.00    -0.210 NA
ATOM    128  H   SGN d  64      18.458  34.036  46.489  0.00  0.00     0.089 H 
ATOM    129  H   SGN d  64      17.364  36.189  47.136  0.00  0.00     0.090 H 
ATOM    130  H   SGN d  64      15.594  29.984  47.646  0.00  0.00     0.231 HD
ATOM    131  H   SGN d  64      15.909  32.520  47.063  0.00  0.00     0.076 H 
ATOM    132  H   SGN d  64      16.525  30.650  45.593  0.00  0.00     0.231 HD
ATOM    133  H   SGN d  64      16.837  32.242  45.026  0.00  0.00     0.210 HD
ATOM    134  H   SGN d  64      16.127  33.524  49.315  0.00  0.00     0.131 H 
ATOM    135  H   SGN d  64      18.776  28.679  47.281  0.00  0.00     0.231 HD
ATOM    136  H   SGN d  64      15.658  34.333  45.393  0.00  0.00     0.091 H 
ATOM    137  H   SGN d  64      16.056  37.819  46.531  0.00  0.00     0.080 H 
ATOM    138  H   SGN d  64      15.278  36.743  45.377  0.00  0.00     0.080 H 
ATOM    139  H   SGN d  64      17.534  31.831  48.891  0.00  0.00     0.140 HD
ATOM    140  C1  IDS d  61      19.498  33.231  34.597  0.00  0.00     0.167 C 
ATOM    141  O5  IDS d  61      19.599  34.650  34.313  0.00  0.00    -0.311 OA
ATOM    142  C5  IDS d  61      18.473  35.362  33.918  0.00  0.00     0.147 C 
ATOM    143  C6  IDS d  61      18.636  36.923  33.752  0.00  0.00     0.233 C 
ATOM    144  C2  IDS d  61      18.599  32.593  33.543  0.00  0.00     0.135 C 
ATOM    145  O1S IDS d  61      21.185  34.385  32.462  0.00  0.00    -0.572 OA
ATOM    146  O3S IDS d  61      21.684  32.038  32.694  0.00  0.00    -0.572 OA
ATOM    147  O3  IDS d  61      16.441  32.677  34.399  0.00  0.00    -0.389 OA
ATOM    148  C4  IDS d  61      17.309  34.746  33.572  0.00  0.00    -0.034 C 
ATOM    149  C3  IDS d  61      17.230  33.264  33.425  0.00  0.00     0.086 C 
ATOM    150  O61 IDS d  61      17.688  37.599  33.353  0.00  0.00    -0.642 OA
ATOM    151  O62 IDS d  61      19.742  37.466  33.994  0.00  0.00    -0.642 OA
ATOM    152  O2S IDS d  61      21.214  33.075  30.590  0.00  0.00    -0.572 OA
ATOM    153  S   IDS d  61      20.923  33.053  31.982  0.00  0.00     0.252 S 
ATOM    154  O2  IDS d  61      19.193  32.702  32.238  0.00  0.00    -0.244 OA
ATOM    155  H   IDS d  61      20.472  32.788  34.593  0.00  0.00     0.134 H 
ATOM    156  H   IDS d  61      18.481  31.579  33.862  0.00  0.00     0.097 H 
ATOM    157  H   IDS d  61      16.420  31.716  34.263  0.00  0.00     0.210 HD
ATOM    158  H   IDS d  61      16.464  35.316  33.407  0.00  0.00     0.085 H 
ATOM    159  H   IDS d  61      16.811  33.119  32.452  0.00  0.00     0.093 H 
ENDROOT
TORSDOF 50
ENDMDL
MODEL 12
REMARK VINA RESULT:      -6.0      1.912      2.497
REMARK  0 active torsions:
REMARK  status: ('A' for Active; 'I' for Inactive)
REMARK       I    between atoms: O3S_3  and  S1_55 
REMARK       I    between atoms: O3_4  and  C3_87 
REMARK       I    between atoms: O4_5  and  C1_15 
REMARK       I    between atoms: O4_5  and  C4_57 
REMARK       I    between atoms: O4_7  and  C1_36 
REMARK       I    between atoms: O4_7  and  C4_89 
REMARK       I    between atoms: C4_8  and  O4_18 
REMARK       I    between atoms: C2_9  and  O2_84 
REMARK       I    between atoms: C6_10  and  C5_32 
REMARK       I    between atoms: C6_10  and  O6_102 
REMARK       I    between atoms: O6_11  and  C6_93 
REMARK       I    between atoms: O6_11  and  S2_25 
REMARK       I    between atoms: C1_13  and  O4_74 
REMARK       I    between atoms: C3_14  and  O3_71 
REMARK       I    between atoms: O4_18  and  C1_54 
REMARK       I    between atoms: S2_19  and  O6_39 
REMARK       I    between atoms: O2S_21  and  S1_45 
REMARK       I    between atoms: C5_22  and  C6_23 
REMARK       I    between atoms: C5_24  and  C6_77 
REMARK       I    between atoms: O1_27  and  C1_48 
REMARK       I    between atoms: C5_28  and  C6_30 
REMARK       I    between atoms: C5_29  and  C6_93 
REMARK       I    between atoms: O1S_31  and  S1_44 
REMARK       I    between atoms: C3_33  and  O3_69 
REMARK       I    between atoms: C2_37  and  N_99 
REMARK       I    between atoms: S2_38  and  O6_102 
REMARK       I    between atoms: O6_39  and  C6_77 
REMARK       I    between atoms: C2_40  and  O2_103 
REMARK       I    between atoms: O3S_42  and  S1_44 
REMARK       I    between atoms: S1_44  and  N_99 
REMARK       I    between atoms: S1_44  and  O2S_81 
REMARK       I    between atoms: S1_45  and  N_94 
REMARK       I    between atoms: S1_45  and  O1S_46 
REMARK       I    between atoms: S1_45  and  O3S_58 
REMARK       I    between atoms: O3_52  and  C3_105 
REMARK       I    between atoms: S1_55  and  N_100 
REMARK       I    between atoms: S1_55  and  O1S_79 
REMARK       I    between atoms: S1_55  and  O2S_83 
REMARK       I    between atoms: O3_56  and  C3_64 
REMARK       I    between atoms: C4_60  and  O4_61 
REMARK       I    between atoms: O4_61  and  C1_73 
REMARK       I    between atoms: C6_63  and  C5_80 
REMARK       I    between atoms: C3_65  and  O3_82 
REMARK       I    between atoms: S_67  and  O2_84 
REMARK       I    between atoms: C2_68  and  O2_98 
REMARK       I    between atoms: O4_74  and  C4_97 
REMARK       I    between atoms: C2_85  and  N_94 
REMARK       I    between atoms: C2_95  and  N_100 
REMARK       I    between atoms: O2_98  and  S_104 
REMARK       I    between atoms: S_101  and  O2_103 
ROOT
ATOM      1  O6S SGN d  66      22.278  44.578  53.249  0.00  0.00    -0.572 OA
ATOM      2  C4  SGN d  66      18.312  42.218  51.984  0.00  0.00     0.095 C 
ATOM      3  C6  SGN d  66      19.550  41.856  54.155  0.00  0.00     0.067 C 
ATOM      4  O4  SGN d  66      19.166  41.172  51.321  0.00  0.00    -0.348 OA
ATOM      5  O5S SGN d  66      22.711  42.311  53.825  0.00  0.00    -0.572 OA
ATOM      6  O2S SGN d  66      13.592  45.280  52.890  0.00  0.00    -0.296 OA
ATOM      7  O5  SGN d  66      17.309  42.921  54.113  0.00  0.00    -0.350 OA
ATOM      8  O1  SGN d  66      15.263  41.772  53.578  0.00  0.00    -0.369 OA
ATOM      9  C5  SGN d  66      18.165  41.908  53.482  0.00  0.00     0.091 C 
ATOM     10  S2  SGN d  66      21.779  43.220  53.164  0.00  0.00     0.251 S 
ATOM     11  S1  SGN d  66      13.336  43.998  52.264  0.00  0.00     0.156 S 
ATOM     12  O1S SGN d  66      12.257  44.084  51.292  0.00  0.00    -0.296 OA
ATOM     13  C1  SGN d  66      15.967  43.029  53.533  0.00  0.00     0.147 C 
ATOM     14  O3S SGN d  66      12.953  43.001  53.253  0.00  0.00    -0.296 OA
ATOM     15  C3  SGN d  66      16.937  42.356  51.309  0.00  0.00     0.083 C 
ATOM     16  O3  SGN d  66      17.114  42.805  49.966  0.00  0.00    -0.391 OA
ATOM     17  C2  SGN d  66      16.126  43.422  52.050  0.00  0.00     0.081 C 
ATOM     18  O4S SGN d  66      21.606  42.862  51.763  0.00  0.00    -0.572 OA
ATOM     19  N   SGN d  66      14.820  43.543  51.387  0.00  0.00    -0.210 NA
ATOM     20  O6  SGN d  66      20.227  43.129  54.031  0.00  0.00    -0.254 OA
ATOM     21  H   SGN d  66      18.805  43.162  51.873  0.00  0.00     0.091 H 
ATOM     22  H   SGN d  66      20.140  41.097  53.685  0.00  0.00     0.080 H 
ATOM     23  H   SGN d  66      19.419  41.636  55.194  0.00  0.00     0.080 H 
ATOM     24  H   SGN d  66      13.846  45.925  52.211  0.00  0.00     0.231 HD
ATOM     25  H   SGN d  66      15.148  41.499  54.501  0.00  0.00     0.212 HD
ATOM     26  H   SGN d  66      17.705  40.949  53.602  0.00  0.00     0.090 H 
ATOM     27  H   SGN d  66      12.482  44.743  50.617  0.00  0.00     0.231 HD
ATOM     28  H   SGN d  66      15.412  43.752  54.092  0.00  0.00     0.131 H 
ATOM     29  H   SGN d  66      13.653  42.919  53.918  0.00  0.00     0.231 HD
ATOM     30  H   SGN d  66      16.437  41.410  51.327  0.00  0.00     0.089 H 
ATOM     31  H   SGN d  66      17.568  43.662  49.969  0.00  0.00     0.210 HD
ATOM     32  H   SGN d  66      16.628  44.367  52.021  0.00  0.00     0.076 H 
ATOM     33  H   SGN d  66      14.939  44.241  50.652  0.00  0.00     0.140 HD
ATOM     34  O61 IDS d  65      15.845  39.185  48.291  0.00  0.00    -0.646 OA
ATOM     35  O3  IDS d  65      20.017  37.067  50.763  0.00  0.00    -0.390 OA
ATOM     36  C5  IDS d  65      17.839  39.795  49.459  0.00  0.00     0.152 C 
ATOM     37  C6  IDS d  65      16.794  40.008  48.333  0.00  0.00     0.206 C 
ATOM     38  O5  IDS d  65      18.898  40.787  49.284  0.00  0.00    -0.340 OA
ATOM     39  C1  IDS d  65      19.986  40.745  50.243  0.00  0.00     0.161 C 
ATOM     40  O1S IDS d  65      22.252  36.985  52.684  0.00  0.00    -0.572 OA
ATOM     41  C4  IDS d  65      18.413  38.337  49.540  0.00  0.00     0.103 C 
ATOM     42  O4  IDS d  65      17.777  37.707  48.426  0.00  0.00    -0.348 OA
ATOM     43  C2  IDS d  65      20.122  39.397  51.013  0.00  0.00     0.134 C 
ATOM     44  O62 IDS d  65      16.926  40.989  47.540  0.00  0.00    -0.646 OA
ATOM     45  C3  IDS d  65      19.863  38.265  50.070  0.00  0.00     0.094 C 
ATOM     46  O2S IDS d  65      20.262  38.040  53.466  0.00  0.00    -0.572 OA
ATOM     47  O3S IDS d  65      22.370  38.999  53.985  0.00  0.00    -0.572 OA
ATOM     48  O2  IDS d  65      21.449  39.228  51.487  0.00  0.00    -0.244 OA
ATOM     49  S   IDS d  65      21.608  38.264  52.979  0.00  0.00     0.252 S 
ATOM     50  H   IDS d  65      19.851  36.322  50.163  0.00  0.00     0.210 HD
ATOM     51  H   IDS d  65      17.347  39.930  50.399  0.00  0.00     0.104 H 
ATOM     52  H   IDS d  65      20.886  41.134  49.814  0.00  0.00     0.133 H 
ATOM     53  H   IDS d  65      18.210  37.633  50.319  0.00  0.00     0.092 H 
ATOM     54  H   IDS d  65      19.426  39.408  51.826  0.00  0.00     0.097 H 
ATOM     55  H   IDS d  65      20.548  38.323  49.250  0.00  0.00     0.091 H 
ATOM     56  O3S SGN d  62      18.932  37.659  39.344  0.00  0.00    -0.296 OA
ATOM     57  C1  SGN d  62      19.795  34.364  40.032  0.00  0.00     0.150 C 
ATOM     58  S2  SGN d  62      22.072  28.871  40.026  0.00  0.00     0.251 S 
ATOM     59  C5  SGN d  62      20.456  32.133  39.145  0.00  0.00     0.091 C 
ATOM     60  O5  SGN d  62      20.851  33.384  39.777  0.00  0.00    -0.349 OA
ATOM     61  O4S SGN d  62      23.422  28.680  39.611  0.00  0.00    -0.572 OA
ATOM     62  O6  SGN d  62      21.249  29.942  38.918  0.00  0.00    -0.254 OA
ATOM     63  O3  SGN d  62      17.787  33.545  36.993  0.00  0.00    -0.391 OA
ATOM     64  S1  SGN d  62      17.838  36.997  38.672  0.00  0.00     0.156 S 
ATOM     65  O6S SGN d  62      21.963  29.405  41.381  0.00  0.00    -0.572 OA
ATOM     66  O4  SGN d  62      19.415  31.171  37.209  0.00  0.00    -0.348 OA
ATOM     67  C6  SGN d  62      21.693  31.286  38.962  0.00  0.00     0.067 C 
ATOM     68  O5S SGN d  62      21.352  27.627  39.972  0.00  0.00    -0.572 OA
ATOM     69  O1S SGN d  62      16.557  37.557  39.047  0.00  0.00    -0.296 OA
ATOM     70  O2S SGN d  62      18.077  37.074  37.260  0.00  0.00    -0.296 OA
ATOM     71  C2  SGN d  62      18.995  34.565  38.753  0.00  0.00     0.081 C 
ATOM     72  C4  SGN d  62      19.773  32.420  37.796  0.00  0.00     0.095 C 
ATOM     73  N   SGN d  62      17.810  35.298  39.068  0.00  0.00    -0.210 NA
ATOM     74  C3  SGN d  62      18.522  33.240  38.147  0.00  0.00     0.083 C 
ATOM     75  H   SGN d  62      18.793  37.620  40.304  0.00  0.00     0.231 HD
ATOM     76  H   SGN d  62      20.286  35.257  40.359  0.00  0.00     0.131 H 
ATOM     77  H   SGN d  62      19.754  31.607  39.757  0.00  0.00     0.090 H 
ATOM     78  H   SGN d  62      17.003  34.062  37.235  0.00  0.00     0.210 HD
ATOM     79  H   SGN d  62      22.365  31.428  39.782  0.00  0.00     0.080 H 
ATOM     80  H   SGN d  62      22.219  31.552  38.069  0.00  0.00     0.080 H 
ATOM     81  H   SGN d  62      16.440  37.483  40.007  0.00  0.00     0.231 HD
ATOM     82  H   SGN d  62      18.944  36.689  37.057  0.00  0.00     0.231 HD
ATOM     83  H   SGN d  62      19.634  35.069  38.058  0.00  0.00     0.076 H 
ATOM     84  H   SGN d  62      20.395  32.949  37.104  0.00  0.00     0.091 H 
ATOM     85  H   SGN d  62      17.034  34.871  38.560  0.00  0.00     0.140 HD
ATOM     86  H   SGN d  62      17.908  32.678  38.820  0.00  0.00     0.089 H 
ATOM     87  O4  IDS d  63      18.878  33.981  41.066  0.00  0.00    -0.348 OA
ATOM     88  O62 IDS d  63      18.433  31.821  44.021  0.00  0.00    -0.646 OA
ATOM     89  C2  IDS d  63      16.621  35.875  42.051  0.00  0.00     0.134 C 
ATOM     90  O2S IDS d  63      13.785  35.735  40.793  0.00  0.00    -0.572 OA
ATOM     91  O61 IDS d  63      20.389  32.715  43.784  0.00  0.00    -0.646 OA
ATOM     92  C3  IDS d  63      18.119  36.202  42.001  0.00  0.00     0.094 C 
ATOM     93  C1  IDS d  63      16.273  35.177  43.394  0.00  0.00     0.161 C 
ATOM     94  O5  IDS d  63      17.007  33.926  43.446  0.00  0.00    -0.340 OA
ATOM     95  C4  IDS d  63      18.964  34.867  42.175  0.00  0.00     0.103 C 
ATOM     96  C6  IDS d  63      19.161  32.780  43.759  0.00  0.00     0.206 C 
ATOM     97  S   IDS d  63      14.619  34.541  40.794  0.00  0.00     0.252 S 
ATOM     98  O3  IDS d  63      18.338  37.067  43.093  0.00  0.00    -0.390 OA
ATOM     99  C5  IDS d  63      18.483  34.110  43.443  0.00  0.00     0.152 C 
ATOM    100  O2  IDS d  63      16.292  35.099  40.929  0.00  0.00    -0.244 OA
ATOM    101  O1S IDS d  63      14.550  33.814  39.539  0.00  0.00    -0.572 OA
ATOM    102  O3S IDS d  63      14.171  33.721  41.882  0.00  0.00    -0.572 OA
ATOM    103  H   IDS d  63      16.034  36.768  42.014  0.00  0.00     0.097 H 
ATOM    104  H   IDS d  63      18.413  36.646  41.073  0.00  0.00     0.091 H 
ATOM    105  H   IDS d  63      15.238  34.931  43.513  0.00  0.00     0.133 H 
ATOM    106  H   IDS d  63      19.986  35.173  42.259  0.00  0.00     0.092 H 
ATOM    107  H   IDS d  63      18.062  36.629  43.913  0.00  0.00     0.210 HD
ATOM    108  H   IDS d  63      18.792  34.767  44.228  0.00  0.00     0.104 H 
ATOM    109  O4  SGN d  64      16.660  36.124  44.437  0.00  0.00    -0.348 OA
ATOM    110  O6  SGN d  64      13.394  36.985  46.847  0.00  0.00    -0.254 OA
ATOM    111  C3  SGN d  64      17.902  35.690  46.500  0.00  0.00     0.083 C 
ATOM    112  S2  SGN d  64      13.005  35.298  47.274  0.00  0.00     0.251 S 
ATOM    113  C5  SGN d  64      15.790  37.018  46.495  0.00  0.00     0.091 C 
ATOM    114  O1S SGN d  64      19.246  32.934  49.826  0.00  0.00    -0.296 OA
ATOM    115  C2  SGN d  64      17.710  35.397  47.956  0.00  0.00     0.081 C 
ATOM    116  O4S SGN d  64      12.588  34.625  46.071  0.00  0.00    -0.572 OA
ATOM    117  O3S SGN d  64      19.665  32.950  47.491  0.00  0.00    -0.296 OA
ATOM    118  S1  SGN d  64      19.794  33.707  48.723  0.00  0.00     0.156 S 
ATOM    119  O6S SGN d  64      14.152  34.620  47.842  0.00  0.00    -0.572 OA
ATOM    120  O5S SGN d  64      11.938  35.305  48.238  0.00  0.00    -0.572 OA
ATOM    121  O3  SGN d  64      18.601  34.618  45.979  0.00  0.00    -0.391 OA
ATOM    122  C1  SGN d  64      16.963  36.544  48.585  0.00  0.00     0.150 C 
ATOM    123  O2S SGN d  64      21.179  34.017  48.949  0.00  0.00    -0.296 OA
ATOM    124  C4  SGN d  64      16.508  35.828  45.834  0.00  0.00     0.095 C 
ATOM    125  O5  SGN d  64      15.695  36.706  47.916  0.00  0.00    -0.349 OA
ATOM    126  C6  SGN d  64      14.416  37.202  45.885  0.00  0.00     0.067 C 
ATOM    127  N   SGN d  64      18.997  35.284  48.596  0.00  0.00    -0.210 NA
ATOM    128  H   SGN d  64      18.439  36.599  46.330  0.00  0.00     0.089 H 
ATOM    129  H   SGN d  64      16.324  37.934  46.345  0.00  0.00     0.090 H 
ATOM    130  H   SGN d  64      18.313  32.737  49.651  0.00  0.00     0.231 HD
ATOM    131  H   SGN d  64      17.164  34.484  48.071  0.00  0.00     0.076 H 
ATOM    132  H   SGN d  64      18.730  32.739  47.337  0.00  0.00     0.231 HD
ATOM    133  H   SGN d  64      18.106  33.800  46.139  0.00  0.00     0.210 HD
ATOM    134  H   SGN d  64      16.768  36.372  49.623  0.00  0.00     0.131 H 
ATOM    135  H   SGN d  64      21.685  33.194  49.030  0.00  0.00     0.231 HD
ATOM    136  H   SGN d  64      15.958  34.917  45.951  0.00  0.00     0.091 H 
ATOM    137  H   SGN d  64      14.334  38.199  45.507  0.00  0.00     0.080 H 
ATOM    138  H   SGN d  64      14.298  36.488  45.098  0.00  0.00     0.080 H 
ATOM    139  H   SGN d  64      18.884  35.633  49.548  0.00  0.00     0.140 HD
ATOM    140  C1  IDS d  61      19.842  31.021  35.839  0.00  0.00     0.167 C 
ATOM    141  O5  IDS d  61      19.135  31.981  35.011  0.00  0.00    -0.311 OA
ATOM    142  C5  IDS d  61      17.808  31.761  34.669  0.00  0.00     0.147 C 
ATOM    143  C6  IDS d  61      17.073  32.910  33.876  0.00  0.00     0.233 C 
ATOM    144  C2  IDS d  61      19.459  29.619  35.379  0.00  0.00     0.135 C 
ATOM    145  O1S IDS d  61      20.615  31.719  33.073  0.00  0.00    -0.572 OA
ATOM    146  O3S IDS d  61      22.336  30.353  34.063  0.00  0.00    -0.572 OA
ATOM    147  O3  IDS d  61      17.616  29.002  36.650  0.00  0.00    -0.389 OA
ATOM    148  C4  IDS d  61      17.188  30.569  34.895  0.00  0.00    -0.034 C 
ATOM    149  C3  IDS d  61      17.950  29.375  35.360  0.00  0.00     0.086 C 
ATOM    150  O61 IDS d  61      15.912  32.750  33.499  0.00  0.00    -0.642 OA
ATOM    151  O62 IDS d  61      17.686  33.971  33.600  0.00  0.00    -0.642 OA
ATOM    152  O2S IDS d  61      21.384  29.906  31.913  0.00  0.00    -0.572 OA
ATOM    153  S   IDS d  61      21.143  30.390  33.230  0.00  0.00     0.252 S 
ATOM    154  O2  IDS d  61      19.902  29.390  34.030  0.00  0.00    -0.244 OA
ATOM    155  H   IDS d  61      20.897  31.179  35.761  0.00  0.00     0.134 H 
ATOM    156  H   IDS d  61      19.925  28.963  36.085  0.00  0.00     0.097 H 
ATOM    157  H   IDS d  61      18.135  28.224  36.908  0.00  0.00     0.210 HD
ATOM    158  H   IDS d  61      16.170  30.491  34.742  0.00  0.00     0.085 H 
ATOM    159  H   IDS d  61      17.691  28.610  34.660  0.00  0.00     0.093 H 
ENDROOT
TORSDOF 50
ENDMDL
MODEL 13
REMARK VINA RESULT:      -6.0      2.178      2.811
REMARK  0 active torsions:
REMARK  status: ('A' for Active; 'I' for Inactive)
REMARK       I    between atoms: O3S_3  and  S1_55 
REMARK       I    between atoms: O3_4  and  C3_87 
REMARK       I    between atoms: O4_5  and  C1_15 
REMARK       I    between atoms: O4_5  and  C4_57 
REMARK       I    between atoms: O4_7  and  C1_36 
REMARK       I    between atoms: O4_7  and  C4_89 
REMARK       I    between atoms: C4_8  and  O4_18 
REMARK       I    between atoms: C2_9  and  O2_84 
REMARK       I    between atoms: C6_10  and  C5_32 
REMARK       I    between atoms: C6_10  and  O6_102 
REMARK       I    between atoms: O6_11  and  C6_93 
REMARK       I    between atoms: O6_11  and  S2_25 
REMARK       I    between atoms: C1_13  and  O4_74 
REMARK       I    between atoms: C3_14  and  O3_71 
REMARK       I    between atoms: O4_18  and  C1_54 
REMARK       I    between atoms: S2_19  and  O6_39 
REMARK       I    between atoms: O2S_21  and  S1_45 
REMARK       I    between atoms: C5_22  and  C6_23 
REMARK       I    between atoms: C5_24  and  C6_77 
REMARK       I    between atoms: O1_27  and  C1_48 
REMARK       I    between atoms: C5_28  and  C6_30 
REMARK       I    between atoms: C5_29  and  C6_93 
REMARK       I    between atoms: O1S_31  and  S1_44 
REMARK       I    between atoms: C3_33  and  O3_69 
REMARK       I    between atoms: C2_37  and  N_99 
REMARK       I    between atoms: S2_38  and  O6_102 
REMARK       I    between atoms: O6_39  and  C6_77 
REMARK       I    between atoms: C2_40  and  O2_103 
REMARK       I    between atoms: O3S_42  and  S1_44 
REMARK       I    between atoms: S1_44  and  N_99 
REMARK       I    between atoms: S1_44  and  O2S_81 
REMARK       I    between atoms: S1_45  and  N_94 
REMARK       I    between atoms: S1_45  and  O1S_46 
REMARK       I    between atoms: S1_45  and  O3S_58 
REMARK       I    between atoms: O3_52  and  C3_105 
REMARK       I    between atoms: S1_55  and  N_100 
REMARK       I    between atoms: S1_55  and  O1S_79 
REMARK       I    between atoms: S1_55  and  O2S_83 
REMARK       I    between atoms: O3_56  and  C3_64 
REMARK       I    between atoms: C4_60  and  O4_61 
REMARK       I    between atoms: O4_61  and  C1_73 
REMARK       I    between atoms: C6_63  and  C5_80 
REMARK       I    between atoms: C3_65  and  O3_82 
REMARK       I    between atoms: S_67  and  O2_84 
REMARK       I    between atoms: C2_68  and  O2_98 
REMARK       I    between atoms: O4_74  and  C4_97 
REMARK       I    between atoms: C2_85  and  N_94 
REMARK       I    between atoms: C2_95  and  N_100 
REMARK       I    between atoms: O2_98  and  S_104 
REMARK       I    between atoms: S_101  and  O2_103 
ROOT
ATOM      1  O6S SGN d  66      23.780  42.021  53.878  0.00  0.00    -0.572 OA
ATOM      2  C4  SGN d  66      20.429  38.775  52.816  0.00  0.00     0.095 C 
ATOM      3  C6  SGN d  66      22.253  38.426  54.526  0.00  0.00     0.067 C 
ATOM      4  O4  SGN d  66      21.328  38.222  51.743  0.00  0.00    -0.348 OA
ATOM      5  O5S SGN d  66      24.958  39.960  53.727  0.00  0.00    -0.572 OA
ATOM      6  O2S SGN d  66      15.471  39.856  55.408  0.00  0.00    -0.296 OA
ATOM      7  O5  SGN d  66      19.880  38.673  55.208  0.00  0.00    -0.350 OA
ATOM      8  O1  SGN d  66      18.164  37.039  54.789  0.00  0.00    -0.369 OA
ATOM      9  C5  SGN d  66      20.780  38.146  54.173  0.00  0.00     0.091 C 
ATOM     10  S2  SGN d  66      23.670  40.619  53.529  0.00  0.00     0.251 S 
ATOM     11  S1  SGN d  66      15.420  38.710  54.522  0.00  0.00     0.156 S 
ATOM     12  O1S SGN d  66      14.139  38.622  53.837  0.00  0.00    -0.296 OA
ATOM     13  C1  SGN d  66      18.456  38.441  54.949  0.00  0.00     0.147 C 
ATOM     14  O3S SGN d  66      15.605  37.470  55.260  0.00  0.00    -0.296 OA
ATOM     15  C3  SGN d  66      18.941  38.578  52.482  0.00  0.00     0.083 C 
ATOM     16  O3  SGN d  66      18.621  39.313  51.302  0.00  0.00    -0.391 OA
ATOM     17  C2  SGN d  66      18.097  39.147  53.625  0.00  0.00     0.081 C 
ATOM     18  O4S SGN d  66      23.233  40.506  52.144  0.00  0.00    -0.572 OA
ATOM     19  N   SGN d  66      16.680  38.955  53.285  0.00  0.00    -0.210 NA
ATOM     20  O6  SGN d  66      22.495  39.850  54.622  0.00  0.00    -0.254 OA
ATOM     21  H   SGN d  66      20.595  39.831  52.870  0.00  0.00     0.091 H 
ATOM     22  H   SGN d  66      22.881  38.014  53.765  0.00  0.00     0.080 H 
ATOM     23  H   SGN d  66      22.472  37.976  55.473  0.00  0.00     0.080 H 
ATOM     24  H   SGN d  66      15.346  40.669  54.894  0.00  0.00     0.231 HD
ATOM     25  H   SGN d  66      18.380  36.568  55.608  0.00  0.00     0.212 HD
ATOM     26  H   SGN d  66      20.652  37.085  54.117  0.00  0.00     0.090 H 
ATOM     27  H   SGN d  66      13.985  39.437  53.334  0.00  0.00     0.231 HD
ATOM     28  H   SGN d  66      17.894  38.815  55.779  0.00  0.00     0.131 H 
ATOM     29  H   SGN d  66      16.453  37.496  55.730  0.00  0.00     0.231 HD
ATOM     30  H   SGN d  66      18.744  37.536  52.341  0.00  0.00     0.089 H 
ATOM     31  H   SGN d  66      18.805  40.254  51.448  0.00  0.00     0.210 HD
ATOM     32  H   SGN d  66      18.293  40.191  53.756  0.00  0.00     0.076 H 
ATOM     33  H   SGN d  66      16.401  39.782  52.757  0.00  0.00     0.140 HD
ATOM     34  O61 IDS d  65      17.997  35.880  48.991  0.00  0.00    -0.646 OA
ATOM     35  O3  IDS d  65      23.094  34.826  49.945  0.00  0.00    -0.390 OA
ATOM     36  C5  IDS d  65      19.983  36.876  49.872  0.00  0.00     0.152 C 
ATOM     37  C6  IDS d  65      18.657  36.946  49.069  0.00  0.00     0.206 C 
ATOM     38  O5  IDS d  65      20.640  38.177  49.770  0.00  0.00    -0.340 OA
ATOM     39  C1  IDS d  65      21.914  38.311  50.453  0.00  0.00     0.161 C 
ATOM     40  O1S IDS d  65      25.695  35.117  51.303  0.00  0.00    -0.572 OA
ATOM     41  C4  IDS d  65      20.936  35.705  49.445  0.00  0.00     0.103 C 
ATOM     42  O4  IDS d  65      20.223  35.131  48.346  0.00  0.00    -0.348 OA
ATOM     43  C2  IDS d  65      22.616  36.962  50.789  0.00  0.00     0.134 C 
ATOM     44  O62 IDS d  65      18.297  38.050  48.560  0.00  0.00    -0.646 OA
ATOM     45  C3  IDS d  65      22.437  36.016  49.644  0.00  0.00     0.094 C 
ATOM     46  O2S IDS d  65      23.776  35.276  52.710  0.00  0.00    -0.572 OA
ATOM     47  O3S IDS d  65      25.598  36.759  53.051  0.00  0.00    -0.572 OA
ATOM     48  O2  IDS d  65      24.015  37.154  50.934  0.00  0.00    -0.244 OA
ATOM     49  S   IDS d  65      24.828  36.025  52.051  0.00  0.00     0.252 S 
ATOM     50  H   IDS d  65      22.986  34.202  49.211  0.00  0.00     0.210 HD
ATOM     51  H   IDS d  65      19.743  36.652  50.890  0.00  0.00     0.104 H 
ATOM     52  H   IDS d  65      22.522  39.053  49.979  0.00  0.00     0.133 H 
ATOM     53  H   IDS d  65      21.151  34.835  50.029  0.00  0.00     0.092 H 
ATOM     54  H   IDS d  65      22.189  36.582  51.693  0.00  0.00     0.097 H 
ATOM     55  H   IDS d  65      22.833  36.458  48.754  0.00  0.00     0.091 H 
ATOM     56  O3S SGN d  62      18.870  37.248  39.543  0.00  0.00    -0.296 OA
ATOM     57  C1  SGN d  62      20.758  34.359  39.137  0.00  0.00     0.150 C 
ATOM     58  S2  SGN d  62      24.371  30.047  37.209  0.00  0.00     0.251 S 
ATOM     59  C5  SGN d  62      21.745  32.693  37.570  0.00  0.00     0.091 C 
ATOM     60  O5  SGN d  62      21.935  33.855  38.427  0.00  0.00    -0.349 OA
ATOM     61  O4S SGN d  62      25.559  30.400  36.505  0.00  0.00    -0.572 OA
ATOM     62  O6  SGN d  62      23.019  30.978  36.612  0.00  0.00    -0.254 OA
ATOM     63  O3  SGN d  62      18.315  33.532  36.437  0.00  0.00    -0.391 OA
ATOM     64  S1  SGN d  62      17.862  36.405  38.942  0.00  0.00     0.156 S 
ATOM     65  O6S SGN d  62      24.486  30.238  38.653  0.00  0.00    -0.572 OA
ATOM     66  O4  SGN d  62      20.530  31.839  35.686  0.00  0.00    -0.348 OA
ATOM     67  C6  SGN d  62      23.071  32.358  36.930  0.00  0.00     0.067 C 
ATOM     68  O5S SGN d  62      24.034  28.671  36.962  0.00  0.00    -0.572 OA
ATOM     69  O1S SGN d  62      16.626  36.423  39.694  0.00  0.00    -0.296 OA
ATOM     70  O2S SGN d  62      17.683  36.832  37.584  0.00  0.00    -0.296 OA
ATOM     71  C2  SGN d  62      19.621  34.529  38.138  0.00  0.00     0.081 C 
ATOM     72  C4  SGN d  62      20.674  32.995  36.507  0.00  0.00     0.095 C 
ATOM     73  N   SGN d  62      18.410  34.750  38.862  0.00  0.00    -0.210 NA
ATOM     74  C3  SGN d  62      19.387  33.268  37.302  0.00  0.00     0.083 C 
ATOM     75  H   SGN d  62      19.010  36.978  40.464  0.00  0.00     0.231 HD
ATOM     76  H   SGN d  62      21.053  35.281  39.591  0.00  0.00     0.131 H 
ATOM     77  H   SGN d  62      21.406  31.854  38.141  0.00  0.00     0.090 H 
ATOM     78  H   SGN d  62      17.514  33.701  36.956  0.00  0.00     0.210 HD
ATOM     79  H   SGN d  62      23.872  32.552  37.612  0.00  0.00     0.080 H 
ATOM     80  H   SGN d  62      23.244  32.953  36.057  0.00  0.00     0.080 H 
ATOM     81  H   SGN d  62      16.795  36.128  40.603  0.00  0.00     0.231 HD
ATOM     82  H   SGN d  62      18.535  36.804  37.121  0.00  0.00     0.231 HD
ATOM     83  H   SGN d  62      19.887  35.342  37.496  0.00  0.00     0.076 H 
ATOM     84  H   SGN d  62      20.917  33.825  35.877  0.00  0.00     0.091 H 
ATOM     85  H   SGN d  62      17.675  34.198  38.418  0.00  0.00     0.140 HD
ATOM     86  H   SGN d  62      19.155  32.414  37.903  0.00  0.00     0.089 H 
ATOM     87  O4  IDS d  63      20.294  33.499  40.186  0.00  0.00    -0.348 OA
ATOM     88  O62 IDS d  63      21.269  30.779  42.477  0.00  0.00    -0.646 OA
ATOM     89  C2  IDS d  63      17.952  34.304  42.062  0.00  0.00     0.134 C 
ATOM     90  O2S IDS d  63      15.036  33.480  41.386  0.00  0.00    -0.572 OA
ATOM     91  O61 IDS d  63      22.766  32.300  42.116  0.00  0.00    -0.646 OA
ATOM     92  C3  IDS d  63      19.232  35.113  41.813  0.00  0.00     0.094 C 
ATOM     93  C1  IDS d  63      18.184  33.281  43.208  0.00  0.00     0.161 C 
ATOM     94  O5  IDS d  63      19.219  32.361  42.778  0.00  0.00    -0.340 OA
ATOM     95  C4  IDS d  63      20.427  34.127  41.454  0.00  0.00     0.103 C 
ATOM     96  C6  IDS d  63      21.608  31.957  42.347  0.00  0.00     0.206 C 
ATOM     97  S   IDS d  63      16.135  32.654  40.903  0.00  0.00     0.252 S 
ATOM     98  O3  IDS d  63      19.489  35.770  43.034  0.00  0.00    -0.390 OA
ATOM     99  C5  IDS d  63      20.531  33.021  42.539  0.00  0.00     0.152 C 
ATOM    100  O2  IDS d  63      17.562  33.699  40.858  0.00  0.00    -0.244 OA
ATOM    101  O1S IDS d  63      15.935  32.207  39.537  0.00  0.00    -0.572 OA
ATOM    102  O3S IDS d  63      16.239  31.536  41.795  0.00  0.00    -0.572 OA
ATOM    103  H   IDS d  63      17.154  34.941  42.381  0.00  0.00     0.097 H 
ATOM    104  H   IDS d  63      19.132  35.802  41.001  0.00  0.00     0.091 H 
ATOM    105  H   IDS d  63      17.328  32.688  43.454  0.00  0.00     0.133 H 
ATOM    106  H   IDS d  63      21.309  34.733  41.418  0.00  0.00     0.092 H 
ATOM    107  H   IDS d  63      19.574  35.114  43.743  0.00  0.00     0.210 HD
ATOM    108  H   IDS d  63      20.845  33.576  43.398  0.00  0.00     0.104 H 
ATOM    109  O4  SGN d  64      18.560  34.079  44.373  0.00  0.00    -0.348 OA
ATOM    110  O6  SGN d  64      15.952  33.319  47.510  0.00  0.00    -0.254 OA
ATOM    111  C3  SGN d  64      20.378  33.688  45.962  0.00  0.00     0.083 C 
ATOM    112  S2  SGN d  64      16.172  31.549  47.532  0.00  0.00     0.251 S 
ATOM    113  C5  SGN d  64      18.061  34.214  46.723  0.00  0.00     0.091 C 
ATOM    114  O1S SGN d  64      23.269  30.940  48.096  0.00  0.00    -0.296 OA
ATOM    115  C2  SGN d  64      20.672  33.069  47.293  0.00  0.00     0.081 C 
ATOM    116  O4S SGN d  64      15.650  31.025  46.297  0.00  0.00    -0.572 OA
ATOM    117  O3S SGN d  64      23.026  31.550  45.817  0.00  0.00    -0.296 OA
ATOM    118  S1  SGN d  64      23.267  32.051  47.158  0.00  0.00     0.156 S 
ATOM    119  O6S SGN d  64      17.570  31.193  47.664  0.00  0.00    -0.572 OA
ATOM    120  O5S SGN d  64      15.443  31.013  48.650  0.00  0.00    -0.572 OA
ATOM    121  O3  SGN d  64      21.179  33.033  45.045  0.00  0.00    -0.391 OA
ATOM    122  C1  SGN d  64      19.835  33.756  48.341  0.00  0.00     0.150 C 
ATOM    123  O2S SGN d  64      24.521  32.753  47.187  0.00  0.00    -0.296 OA
ATOM    124  C4  SGN d  64      18.875  33.483  45.640  0.00  0.00     0.095 C 
ATOM    125  O5  SGN d  64      18.440  33.615  47.998  0.00  0.00    -0.349 OA
ATOM    126  C6  SGN d  64      16.579  34.047  46.463  0.00  0.00     0.067 C 
ATOM    127  N   SGN d  64      22.063  33.267  47.618  0.00  0.00    -0.210 NA
ATOM    128  H   SGN d  64      20.578  34.739  45.942  0.00  0.00     0.089 H 
ATOM    129  H   SGN d  64      18.262  35.265  46.725  0.00  0.00     0.090 H 
ATOM    130  H   SGN d  64      22.415  30.483  48.058  0.00  0.00     0.231 HD
ATOM    131  H   SGN d  64      20.450  32.023  47.261  0.00  0.00     0.076 H 
ATOM    132  H   SGN d  64      22.180  31.076  45.795  0.00  0.00     0.231 HD
ATOM    133  H   SGN d  64      20.990  32.082  45.072  0.00  0.00     0.210 HD
ATOM    134  H   SGN d  64      19.980  33.329  49.311  0.00  0.00     0.131 H 
ATOM    135  H   SGN d  64      25.236  32.145  46.943  0.00  0.00     0.231 HD
ATOM    136  H   SGN d  64      18.649  32.437  45.611  0.00  0.00     0.091 H 
ATOM    137  H   SGN d  64      16.127  35.013  46.391  0.00  0.00     0.080 H 
ATOM    138  H   SGN d  64      16.455  33.502  45.550  0.00  0.00     0.080 H 
ATOM    139  H   SGN d  64      22.117  33.365  48.632  0.00  0.00     0.140 HD
ATOM    140  C1  IDS d  61      20.598  32.110  34.271  0.00  0.00     0.167 C 
ATOM    141  O5  IDS d  61      19.460  32.924  33.884  0.00  0.00    -0.311 OA
ATOM    142  C5  IDS d  61      18.203  32.347  33.760  0.00  0.00     0.147 C 
ATOM    143  C6  IDS d  61      16.996  33.319  33.463  0.00  0.00     0.233 C 
ATOM    144  C2  IDS d  61      20.508  30.779  33.532  0.00  0.00     0.135 C 
ATOM    145  O1S IDS d  61      20.379  33.552  31.700  0.00  0.00    -0.572 OA
ATOM    146  O3S IDS d  61      22.610  32.669  31.932  0.00  0.00    -0.572 OA
ATOM    147  O3  IDS d  61      19.316  29.349  34.922  0.00  0.00    -0.389 OA
ATOM    148  C4  IDS d  61      18.019  30.997  33.771  0.00  0.00    -0.034 C 
ATOM    149  C3  IDS d  61      19.177  30.057  33.741  0.00  0.00     0.086 C 
ATOM    150  O61 IDS d  61      15.867  32.859  33.289  0.00  0.00    -0.642 OA
ATOM    151  O62 IDS d  61      17.196  34.555  33.370  0.00  0.00    -0.642 OA
ATOM    152  O2S IDS d  61      21.277  32.362  29.969  0.00  0.00    -0.572 OA
ATOM    153  S   IDS d  61      21.275  32.470  31.388  0.00  0.00     0.252 S 
ATOM    154  O2  IDS d  61      20.618  30.979  32.113  0.00  0.00    -0.244 OA
ATOM    155  H   IDS d  61      21.508  32.622  34.035  0.00  0.00     0.134 H 
ATOM    156  H   IDS d  61      21.308  30.191  33.932  0.00  0.00     0.097 H 
ATOM    157  H   IDS d  61      20.079  28.754  34.854  0.00  0.00     0.210 HD
ATOM    158  H   IDS d  61      17.060  30.617  33.802  0.00  0.00     0.085 H 
ATOM    159  H   IDS d  61      18.960  29.402  32.924  0.00  0.00     0.093 H 
ENDROOT
TORSDOF 50
ENDMDL
MODEL 14
REMARK VINA RESULT:      -6.0      4.517      8.442
REMARK  0 active torsions:
REMARK  status: ('A' for Active; 'I' for Inactive)
REMARK       I    between atoms: O3S_3  and  S1_55 
REMARK       I    between atoms: O3_4  and  C3_87 
REMARK       I    between atoms: O4_5  and  C1_15 
REMARK       I    between atoms: O4_5  and  C4_57 
REMARK       I    between atoms: O4_7  and  C1_36 
REMARK       I    between atoms: O4_7  and  C4_89 
REMARK       I    between atoms: C4_8  and  O4_18 
REMARK       I    between atoms: C2_9  and  O2_84 
REMARK       I    between atoms: C6_10  and  C5_32 
REMARK       I    between atoms: C6_10  and  O6_102 
REMARK       I    between atoms: O6_11  and  C6_93 
REMARK       I    between atoms: O6_11  and  S2_25 
REMARK       I    between atoms: C1_13  and  O4_74 
REMARK       I    between atoms: C3_14  and  O3_71 
REMARK       I    between atoms: O4_18  and  C1_54 
REMARK       I    between atoms: S2_19  and  O6_39 
REMARK       I    between atoms: O2S_21  and  S1_45 
REMARK       I    between atoms: C5_22  and  C6_23 
REMARK       I    between atoms: C5_24  and  C6_77 
REMARK       I    between atoms: O1_27  and  C1_48 
REMARK       I    between atoms: C5_28  and  C6_30 
REMARK       I    between atoms: C5_29  and  C6_93 
REMARK       I    between atoms: O1S_31  and  S1_44 
REMARK       I    between atoms: C3_33  and  O3_69 
REMARK       I    between atoms: C2_37  and  N_99 
REMARK       I    between atoms: S2_38  and  O6_102 
REMARK       I    between atoms: O6_39  and  C6_77 
REMARK       I    between atoms: C2_40  and  O2_103 
REMARK       I    between atoms: O3S_42  and  S1_44 
REMARK       I    between atoms: S1_44  and  N_99 
REMARK       I    between atoms: S1_44  and  O2S_81 
REMARK       I    between atoms: S1_45  and  N_94 
REMARK       I    between atoms: S1_45  and  O1S_46 
REMARK       I    between atoms: S1_45  and  O3S_58 
REMARK       I    between atoms: O3_52  and  C3_105 
REMARK       I    between atoms: S1_55  and  N_100 
REMARK       I    between atoms: S1_55  and  O1S_79 
REMARK       I    between atoms: S1_55  and  O2S_83 
REMARK       I    between atoms: O3_56  and  C3_64 
REMARK       I    between atoms: C4_60  and  O4_61 
REMARK       I    between atoms: O4_61  and  C1_73 
REMARK       I    between atoms: C6_63  and  C5_80 
REMARK       I    between atoms: C3_65  and  O3_82 
REMARK       I    between atoms: S_67  and  O2_84 
REMARK       I    between atoms: C2_68  and  O2_98 
REMARK       I    between atoms: O4_74  and  C4_97 
REMARK       I    between atoms: C2_85  and  N_94 
REMARK       I    between atoms: C2_95  and  N_100 
REMARK       I    between atoms: O2_98  and  S_104 
REMARK       I    between atoms: S_101  and  O2_103 
ROOT
ATOM      1  O6S SGN d  66      12.755  26.376  55.208  0.00  0.00    -0.572 OA
ATOM      2  C4  SGN d  66      16.704  28.849  54.120  0.00  0.00     0.095 C 
ATOM      3  C6  SGN d  66      14.710  29.816  55.328  0.00  0.00     0.067 C 
ATOM      4  O4  SGN d  66      16.088  29.222  52.800  0.00  0.00    -0.348 OA
ATOM      5  O5S SGN d  66      11.958  28.459  54.382  0.00  0.00    -0.572 OA
ATOM      6  O2S SGN d  66      20.951  27.868  57.792  0.00  0.00    -0.296 OA
ATOM      7  O5  SGN d  66      16.874  29.470  56.491  0.00  0.00    -0.350 OA
ATOM      8  O1  SGN d  66      18.872  30.740  56.059  0.00  0.00    -0.369 OA
ATOM      9  C5  SGN d  66      16.245  29.828  55.212  0.00  0.00     0.091 C 
ATOM     10  S2  SGN d  66      13.140  27.627  54.585  0.00  0.00     0.251 S 
ATOM     11  S1  SGN d  66      21.323  28.747  56.701  0.00  0.00     0.156 S 
ATOM     12  O1S SGN d  66      22.695  28.514  56.273  0.00  0.00    -0.296 OA
ATOM     13  C1  SGN d  66      18.340  29.464  56.466  0.00  0.00     0.147 C 
ATOM     14  O3S SGN d  66      21.222  30.144  57.098  0.00  0.00    -0.296 OA
ATOM     15  C3  SGN d  66      18.239  28.783  54.044  0.00  0.00     0.083 C 
ATOM     16  O3  SGN d  66      18.623  27.748  53.140  0.00  0.00    -0.391 OA
ATOM     17  C2  SGN d  66      18.789  28.418  55.425  0.00  0.00     0.081 C 
ATOM     18  O4S SGN d  66      13.805  27.344  53.320  0.00  0.00    -0.572 OA
ATOM     19  N   SGN d  66      20.254  28.354  55.330  0.00  0.00    -0.210 NA
ATOM     20  O6  SGN d  66      14.233  28.498  55.687  0.00  0.00    -0.254 OA
ATOM     21  H   SGN d  66      16.367  27.865  54.373  0.00  0.00     0.091 H 
ATOM     22  H   SGN d  66      14.285  30.099  54.388  0.00  0.00     0.080 H 
ATOM     23  H   SGN d  66      14.417  30.507  56.091  0.00  0.00     0.080 H 
ATOM     24  H   SGN d  66      21.026  26.945  57.503  0.00  0.00     0.231 HD
ATOM     25  H   SGN d  66      18.605  31.420  56.698  0.00  0.00     0.212 HD
ATOM     26  H   SGN d  66      16.548  30.820  54.949  0.00  0.00     0.090 H 
ATOM     27  H   SGN d  66      22.796  27.589  56.002  0.00  0.00     0.231 HD
ATOM     28  H   SGN d  66      18.695  29.243  57.450  0.00  0.00     0.131 H 
ATOM     29  H   SGN d  66      20.317  30.332  57.390  0.00  0.00     0.231 HD
ATOM     30  H   SGN d  66      18.618  29.729  53.717  0.00  0.00     0.089 H 
ATOM     31  H   SGN d  66      18.270  26.900  53.451  0.00  0.00     0.210 HD
ATOM     32  H   SGN d  66      18.412  27.468  55.743  0.00  0.00     0.076 H 
ATOM     33  H   SGN d  66      20.479  27.396  55.062  0.00  0.00     0.140 HD
ATOM     34  O61 IDS d  65      20.143  30.412  50.293  0.00  0.00    -0.646 OA
ATOM     35  O3  IDS d  65      15.192  32.254  49.991  0.00  0.00    -0.390 OA
ATOM     36  C5  IDS d  65      17.910  29.901  50.973  0.00  0.00     0.152 C 
ATOM     37  C6  IDS d  65      19.319  29.483  50.475  0.00  0.00     0.206 C 
ATOM     38  O5  IDS d  65      17.079  28.701  51.035  0.00  0.00    -0.340 OA
ATOM     39  C1  IDS d  65      15.708  28.887  51.473  0.00  0.00     0.161 C 
ATOM     40  O1S IDS d  65      12.395  32.610  50.853  0.00  0.00    -0.572 OA
ATOM     41  C4  IDS d  65      17.235  31.034  50.122  0.00  0.00     0.103 C 
ATOM     42  O4  IDS d  65      18.196  31.234  49.082  0.00  0.00    -0.348 OA
ATOM     43  C2  IDS d  65      15.184  30.350  51.361  0.00  0.00     0.134 C 
ATOM     44  O62 IDS d  65      19.576  28.254  50.301  0.00  0.00    -0.646 OA
ATOM     45  C3  IDS d  65      15.691  30.959  50.093  0.00  0.00     0.094 C 
ATOM     46  O2S IDS d  65      14.015  32.579  52.603  0.00  0.00    -0.572 OA
ATOM     47  O3S IDS d  65      11.950  31.447  52.906  0.00  0.00    -0.572 OA
ATOM     48  O2  IDS d  65      13.768  30.364  51.273  0.00  0.00    -0.244 OA
ATOM     49  S   IDS d  65      12.976  31.819  51.936  0.00  0.00     0.252 S 
ATOM     50  H   IDS d  65      15.513  32.662  49.172  0.00  0.00     0.210 HD
ATOM     51  H   IDS d  65      18.016  30.339  51.943  0.00  0.00     0.104 H 
ATOM     52  H   IDS d  65      15.073  28.128  51.066  0.00  0.00     0.133 H 
ATOM     53  H   IDS d  65      17.070  32.040  50.447  0.00  0.00     0.092 H 
ATOM     54  H   IDS d  65      15.516  30.888  52.224  0.00  0.00     0.097 H 
ATOM     55  H   IDS d  65      15.377  30.361  49.263  0.00  0.00     0.091 H 
ATOM     56  O3S SGN d  62      20.583  26.878  41.392  0.00  0.00    -0.296 OA
ATOM     57  C1  SGN d  62      19.266  29.778  40.003  0.00  0.00     0.150 C 
ATOM     58  S2  SGN d  62      16.736  33.875  36.513  0.00  0.00     0.251 S 
ATOM     59  C5  SGN d  62      18.818  31.111  37.947  0.00  0.00     0.091 C 
ATOM     60  O5  SGN d  62      18.313  30.225  38.987  0.00  0.00    -0.349 OA
ATOM     61  O4S SGN d  62      15.635  33.500  35.689  0.00  0.00    -0.572 OA
ATOM     62  O6  SGN d  62      18.001  32.674  36.408  0.00  0.00    -0.254 OA
ATOM     63  O3  SGN d  62      22.208  29.627  37.709  0.00  0.00    -0.391 OA
ATOM     64  S1  SGN d  62      21.794  27.424  40.826  0.00  0.00     0.156 S 
ATOM     65  O6S SGN d  62      16.364  34.059  37.913  0.00  0.00    -0.572 OA
ATOM     66  O4  SGN d  62      20.438  31.329  36.191  0.00  0.00    -0.348 OA
ATOM     67  C6  SGN d  62      17.682  31.431  37.006  0.00  0.00     0.067 C 
ATOM     68  O5S SGN d  62      17.322  35.099  36.038  0.00  0.00    -0.572 OA
ATOM     69  O1S SGN d  62      22.876  27.448  41.787  0.00  0.00    -0.296 OA
ATOM     70  O2S SGN d  62      22.118  26.659  39.656  0.00  0.00    -0.296 OA
ATOM     71  C2  SGN d  62      20.506  29.237  39.305  0.00  0.00     0.081 C 
ATOM     72  C4  SGN d  62      19.983  30.435  37.204  0.00  0.00     0.095 C 
ATOM     73  N   SGN d  62      21.536  29.061  40.279  0.00  0.00    -0.210 NA
ATOM     74  C3  SGN d  62      21.067  30.218  38.271  0.00  0.00     0.083 C 
ATOM     75  H   SGN d  62      20.342  27.380  42.187  0.00  0.00     0.231 HD
ATOM     76  H   SGN d  62      18.760  29.036  40.584  0.00  0.00     0.131 H 
ATOM     77  H   SGN d  62      19.190  32.019  38.374  0.00  0.00     0.090 H 
ATOM     78  H   SGN d  62      22.879  29.499  38.397  0.00  0.00     0.210 HD
ATOM     79  H   SGN d  62      16.761  31.505  37.547  0.00  0.00     0.080 H 
ATOM     80  H   SGN d  62      17.558  30.664  36.270  0.00  0.00     0.080 H 
ATOM     81  H   SGN d  62      22.613  27.974  42.558  0.00  0.00     0.231 HD
ATOM     82  H   SGN d  62      21.366  26.671  39.043  0.00  0.00     0.231 HD
ATOM     83  H   SGN d  62      20.221  28.328  38.819  0.00  0.00     0.076 H 
ATOM     84  H   SGN d  62      19.715  29.509  36.737  0.00  0.00     0.091 H 
ATOM     85  H   SGN d  62      22.410  29.397  39.874  0.00  0.00     0.140 HD
ATOM     86  H   SGN d  62      21.333  31.161  38.702  0.00  0.00     0.089 H 
ATOM     87  O4  IDS d  63      19.687  30.809  40.905  0.00  0.00    -0.348 OA
ATOM     88  O62 IDS d  63      18.802  34.103  42.308  0.00  0.00    -0.646 OA
ATOM     89  C2  IDS d  63      21.542  30.223  43.328  0.00  0.00     0.134 C 
ATOM     90  O2S IDS d  63      24.622  30.510  43.061  0.00  0.00    -0.572 OA
ATOM     91  O61 IDS d  63      17.160  32.724  42.011  0.00  0.00    -0.646 OA
ATOM     92  C3  IDS d  63      20.206  29.532  43.022  0.00  0.00     0.094 C 
ATOM     93  C1  IDS d  63      21.296  31.515  44.153  0.00  0.00     0.161 C 
ATOM     94  O5  IDS d  63      20.501  32.416  43.340  0.00  0.00    -0.340 OA
ATOM     95  C4  IDS d  63      19.255  30.532  42.232  0.00  0.00     0.103 C 
ATOM     96  C6  IDS d  63      18.307  32.977  42.379  0.00  0.00     0.206 C 
ATOM     97  S   IDS d  63      23.759  31.314  42.206  0.00  0.00     0.252 S 
ATOM     98  O3  IDS d  63      19.657  29.229  44.285  0.00  0.00    -0.390 OA
ATOM     99  C5  IDS d  63      19.157  31.874  43.005  0.00  0.00     0.152 C 
ATOM    100  O2  IDS d  63      22.210  30.464  42.118  0.00  0.00    -0.244 OA
ATOM    101  O1S IDS d  63      24.243  31.386  40.839  0.00  0.00    -0.572 OA
ATOM    102  O3S IDS d  63      23.693  32.621  42.792  0.00  0.00    -0.572 OA
ATOM    103  H   IDS d  63      22.167  29.595  43.927  0.00  0.00     0.097 H 
ATOM    104  H   IDS d  63      20.324  28.658  42.417  0.00  0.00     0.091 H 
ATOM    105  H   IDS d  63      22.184  32.047  44.423  0.00  0.00     0.133 H 
ATOM    106  H   IDS d  63      18.306  30.042  42.161  0.00  0.00     0.092 H 
ATOM    107  H   IDS d  63      19.565  30.045  44.802  0.00  0.00     0.210 HD
ATOM    108  H   IDS d  63      18.625  31.587  43.888  0.00  0.00     0.104 H 
ATOM    109  O4  SGN d  64      20.617  31.077  45.371  0.00  0.00    -0.348 OA
ATOM    110  O6  SGN d  64      22.778  32.276  48.704  0.00  0.00    -0.254 OA
ATOM    111  C3  SGN d  64      18.654  32.056  46.454  0.00  0.00     0.083 C 
ATOM    112  S2  SGN d  64      22.840  34.010  48.293  0.00  0.00     0.251 S 
ATOM    113  C5  SGN d  64      20.706  31.467  47.744  0.00  0.00     0.091 C 
ATOM    114  O1S SGN d  64      15.932  35.561  47.332  0.00  0.00    -0.296 OA
ATOM    115  C2  SGN d  64      18.253  33.012  47.534  0.00  0.00     0.081 C 
ATOM    116  O4S SGN d  64      23.629  34.150  47.097  0.00  0.00    -0.572 OA
ATOM    117  O3S SGN d  64      16.436  34.385  45.334  0.00  0.00    -0.296 OA
ATOM    118  S1  SGN d  64      15.908  34.260  46.681  0.00  0.00     0.156 S 
ATOM    119  O6S SGN d  64      21.514  34.547  48.071  0.00  0.00    -0.572 OA
ATOM    120  O5S SGN d  64      23.457  34.716  49.384  0.00  0.00    -0.572 OA
ATOM    121  O3  SGN d  64      18.123  32.554  45.279  0.00  0.00    -0.391 OA
ATOM    122  C1  SGN d  64      18.793  32.510  48.848  0.00  0.00     0.150 C 
ATOM    123  O2S SGN d  64      14.570  33.738  46.622  0.00  0.00    -0.296 OA
ATOM    124  C4  SGN d  64      20.202  31.999  46.390  0.00  0.00     0.095 C 
ATOM    125  O5  SGN d  64      20.229  32.400  48.757  0.00  0.00    -0.349 OA
ATOM    126  C6  SGN d  64      22.219  31.391  47.744  0.00  0.00     0.067 C 
ATOM    127  N   SGN d  64      16.815  33.063  47.620  0.00  0.00    -0.210 NA
ATOM    128  H   SGN d  64      18.296  31.063  46.629  0.00  0.00     0.089 H 
ATOM    129  H   SGN d  64      20.343  30.479  47.939  0.00  0.00     0.090 H 
ATOM    130  H   SGN d  64      16.843  35.892  47.359  0.00  0.00     0.231 HD
ATOM    131  H   SGN d  64      18.640  33.985  47.315  0.00  0.00     0.076 H 
ATOM    132  H   SGN d  64      17.339  34.738  45.372  0.00  0.00     0.231 HD
ATOM    133  H   SGN d  64      18.454  33.454  45.131  0.00  0.00     0.210 HD
ATOM    134  H   SGN d  64      18.564  33.176  49.653  0.00  0.00     0.131 H 
ATOM    135  H   SGN d  64      14.008  34.346  46.117  0.00  0.00     0.231 HD
ATOM    136  H   SGN d  64      20.593  32.972  46.175  0.00  0.00     0.091 H 
ATOM    137  H   SGN d  64      22.518  30.391  47.975  0.00  0.00     0.080 H 
ATOM    138  H   SGN d  64      22.571  31.677  46.775  0.00  0.00     0.080 H 
ATOM    139  H   SGN d  64      16.585  33.224  48.601  0.00  0.00     0.140 HD
ATOM    140  C1  IDS d  61      20.554  30.728  34.885  0.00  0.00     0.167 C 
ATOM    141  O5  IDS d  61      21.596  29.718  34.914  0.00  0.00    -0.311 OA
ATOM    142  C5  IDS d  61      22.932  30.097  34.909  0.00  0.00     0.147 C 
ATOM    143  C6  IDS d  61      24.001  28.948  35.072  0.00  0.00     0.233 C 
ATOM    144  C2  IDS d  61      20.971  31.818  33.902  0.00  0.00     0.135 C 
ATOM    145  O1S IDS d  61      20.950  28.684  32.787  0.00  0.00    -0.572 OA
ATOM    146  O3S IDS d  61      18.879  29.850  32.385  0.00  0.00    -0.572 OA
ATOM    147  O3  IDS d  61      22.137  33.396  35.145  0.00  0.00    -0.389 OA
ATOM    148  C4  IDS d  61      23.323  31.377  34.658  0.00  0.00    -0.034 C 
ATOM    149  C3  IDS d  61      22.349  32.409  34.198  0.00  0.00     0.086 C 
ATOM    150  O61 IDS d  61      25.202  29.216  35.022  0.00  0.00    -0.642 OA
ATOM    151  O62 IDS d  61      23.626  27.759  35.218  0.00  0.00    -0.642 OA
ATOM    152  O2S IDS d  61      20.539  29.509  30.696  0.00  0.00    -0.572 OA
ATOM    153  S   IDS d  61      20.298  29.753  32.077  0.00  0.00     0.252 S 
ATOM    154  O2  IDS d  61      21.058  31.290  32.568  0.00  0.00    -0.244 OA
ATOM    155  H   IDS d  61      19.624  30.284  34.597  0.00  0.00     0.134 H 
ATOM    156  H   IDS d  61      20.221  32.575  34.000  0.00  0.00     0.097 H 
ATOM    157  H   IDS d  61      21.499  34.042  34.802  0.00  0.00     0.210 HD
ATOM    158  H   IDS d  61      24.313  31.639  34.788  0.00  0.00     0.085 H 
ATOM    159  H   IDS d  61      22.794  32.814  33.314  0.00  0.00     0.093 H 
ENDROOT
TORSDOF 50
ENDMDL
MODEL 15
REMARK VINA RESULT:      -5.9      5.135     16.121
REMARK  0 active torsions:
REMARK  status: ('A' for Active; 'I' for Inactive)
REMARK       I    between atoms: O3S_3  and  S1_55 
REMARK       I    between atoms: O3_4  and  C3_87 
REMARK       I    between atoms: O4_5  and  C1_15 
REMARK       I    between atoms: O4_5  and  C4_57 
REMARK       I    between atoms: O4_7  and  C1_36 
REMARK       I    between atoms: O4_7  and  C4_89 
REMARK       I    between atoms: C4_8  and  O4_18 
REMARK       I    between atoms: C2_9  and  O2_84 
REMARK       I    between atoms: C6_10  and  C5_32 
REMARK       I    between atoms: C6_10  and  O6_102 
REMARK       I    between atoms: O6_11  and  C6_93 
REMARK       I    between atoms: O6_11  and  S2_25 
REMARK       I    between atoms: C1_13  and  O4_74 
REMARK       I    between atoms: C3_14  and  O3_71 
REMARK       I    between atoms: O4_18  and  C1_54 
REMARK       I    between atoms: S2_19  and  O6_39 
REMARK       I    between atoms: O2S_21  and  S1_45 
REMARK       I    between atoms: C5_22  and  C6_23 
REMARK       I    between atoms: C5_24  and  C6_77 
REMARK       I    between atoms: O1_27  and  C1_48 
REMARK       I    between atoms: C5_28  and  C6_30 
REMARK       I    between atoms: C5_29  and  C6_93 
REMARK       I    between atoms: O1S_31  and  S1_44 
REMARK       I    between atoms: C3_33  and  O3_69 
REMARK       I    between atoms: C2_37  and  N_99 
REMARK       I    between atoms: S2_38  and  O6_102 
REMARK       I    between atoms: O6_39  and  C6_77 
REMARK       I    between atoms: C2_40  and  O2_103 
REMARK       I    between atoms: O3S_42  and  S1_44 
REMARK       I    between atoms: S1_44  and  N_99 
REMARK       I    between atoms: S1_44  and  O2S_81 
REMARK       I    between atoms: S1_45  and  N_94 
REMARK       I    between atoms: S1_45  and  O1S_46 
REMARK       I    between atoms: S1_45  and  O3S_58 
REMARK       I    between atoms: O3_52  and  C3_105 
REMARK       I    between atoms: S1_55  and  N_100 
REMARK       I    between atoms: S1_55  and  O1S_79 
REMARK       I    between atoms: S1_55  and  O2S_83 
REMARK       I    between atoms: O3_56  and  C3_64 
REMARK       I    between atoms: C4_60  and  O4_61 
REMARK       I    between atoms: O4_61  and  C1_73 
REMARK       I    between atoms: C6_63  and  C5_80 
REMARK       I    between atoms: C3_65  and  O3_82 
REMARK       I    between atoms: S_67  and  O2_84 
REMARK       I    between atoms: C2_68  and  O2_98 
REMARK       I    between atoms: O4_74  and  C4_97 
REMARK       I    between atoms: C2_85  and  N_94 
REMARK       I    between atoms: C2_95  and  N_100 
REMARK       I    between atoms: O2_98  and  S_104 
REMARK       I    between atoms: S_101  and  O2_103 
ROOT
ATOM      1  O6S SGN d  66      22.067  26.574  32.550  0.00  0.00    -0.572 OA
ATOM      2  C4  SGN d  66      20.430  30.271  35.108  0.00  0.00     0.095 C 
ATOM      3  C6  SGN d  66      22.330  30.419  33.452  0.00  0.00     0.067 C 
ATOM      4  O4  SGN d  66      21.406  29.927  36.200  0.00  0.00    -0.348 OA
ATOM      5  O5S SGN d  66      24.021  27.693  33.317  0.00  0.00    -0.572 OA
ATOM      6  O2S SGN d  66      15.689  32.514  32.878  0.00  0.00    -0.296 OA
ATOM      7  O5  SGN d  66      20.144  31.501  33.001  0.00  0.00    -0.350 OA
ATOM      8  O1  SGN d  66      19.301  33.419  34.186  0.00  0.00    -0.369 OA
ATOM      9  C5  SGN d  66      21.112  31.150  34.048  0.00  0.00     0.091 C 
ATOM     10  S2  SGN d  66      22.564  27.635  33.403  0.00  0.00     0.251 S 
ATOM     11  S1  SGN d  66      16.090  33.136  34.125  0.00  0.00     0.156 S 
ATOM     12  O1S SGN d  66      14.937  33.500  34.935  0.00  0.00    -0.296 OA
ATOM     13  C1  SGN d  66      18.954  32.207  33.487  0.00  0.00     0.147 C 
ATOM     14  O3S SGN d  66      16.853  34.351  33.882  0.00  0.00    -0.296 OA
ATOM     15  C3  SGN d  66      19.163  30.948  35.657  0.00  0.00     0.083 C 
ATOM     16  O3  SGN d  66      18.473  30.035  36.510  0.00  0.00    -0.391 OA
ATOM     17  C2  SGN d  66      18.233  31.282  34.488  0.00  0.00     0.081 C 
ATOM     18  O4S SGN d  66      22.130  27.389  34.771  0.00  0.00    -0.572 OA
ATOM     19  N   SGN d  66      17.027  31.921  35.033  0.00  0.00    -0.210 NA
ATOM     20  O6  SGN d  66      21.925  29.187  32.811  0.00  0.00    -0.254 OA
ATOM     21  H   SGN d  66      20.116  29.356  34.649  0.00  0.00     0.091 H 
ATOM     22  H   SGN d  66      23.023  30.196  34.236  0.00  0.00     0.080 H 
ATOM     23  H   SGN d  66      22.788  31.053  32.721  0.00  0.00     0.080 H 
ATOM     24  H   SGN d  66      15.184  31.708  33.067  0.00  0.00     0.231 HD
ATOM     25  H   SGN d  66      19.757  34.023  33.579  0.00  0.00     0.212 HD
ATOM     26  H   SGN d  66      21.462  32.052  34.506  0.00  0.00     0.090 H 
ATOM     27  H   SGN d  66      14.406  32.708  35.115  0.00  0.00     0.231 HD
ATOM     28  H   SGN d  66      18.342  32.460  32.647  0.00  0.00     0.131 H 
ATOM     29  H   SGN d  66      17.631  34.142  33.342  0.00  0.00     0.231 HD
ATOM     30  H   SGN d  66      19.437  31.831  36.194  0.00  0.00     0.089 H 
ATOM     31  H   SGN d  66      18.232  29.242  36.007  0.00  0.00     0.210 HD
ATOM     32  H   SGN d  66      17.956  30.393  33.959  0.00  0.00     0.076 H 
ATOM     33  H   SGN d  66      16.377  31.164  35.246  0.00  0.00     0.140 HD
ATOM     34  O61 IDS d  65      19.275  32.233  39.980  0.00  0.00    -0.646 OA
ATOM     35  O3  IDS d  65      24.365  31.258  38.913  0.00  0.00    -0.390 OA
ATOM     36  C5  IDS d  65      20.672  30.896  38.575  0.00  0.00     0.152 C 
ATOM     37  C6  IDS d  65      19.401  31.106  39.440  0.00  0.00     0.206 C 
ATOM     38  O5  IDS d  65      20.679  29.510  38.115  0.00  0.00    -0.340 OA
ATOM     39  C1  IDS d  65      21.805  29.110  37.291  0.00  0.00     0.161 C 
ATOM     40  O1S IDS d  65      26.655  30.413  37.258  0.00  0.00    -0.572 OA
ATOM     41  C4  IDS d  65      22.013  31.280  39.294  0.00  0.00     0.103 C 
ATOM     42  O4  IDS d  65      21.555  31.639  40.600  0.00  0.00    -0.348 OA
ATOM     43  C2  IDS d  65      23.051  30.038  37.400  0.00  0.00     0.134 C 
ATOM     44  O62 IDS d  65      18.557  30.165  39.542  0.00  0.00    -0.646 OA
ATOM     45  C3  IDS d  65      23.232  30.453  38.825  0.00  0.00     0.094 C 
ATOM     46  O2S IDS d  65      24.962  31.647  36.119  0.00  0.00    -0.572 OA
ATOM     47  O3S IDS d  65      25.960  29.777  35.050  0.00  0.00    -0.572 OA
ATOM     48  O2  IDS d  65      24.228  29.332  37.037  0.00  0.00    -0.244 OA
ATOM     49  S   IDS d  65      25.528  30.329  36.331  0.00  0.00     0.252 S 
ATOM     50  H   IDS d  65      24.494  31.536  39.833  0.00  0.00     0.210 HD
ATOM     51  H   IDS d  65      20.624  31.570  37.746  0.00  0.00     0.104 H 
ATOM     52  H   IDS d  65      21.990  28.060  37.385  0.00  0.00     0.133 H 
ATOM     53  H   IDS d  65      22.628  32.121  39.052  0.00  0.00     0.092 H 
ATOM     54  H   IDS d  65      22.897  30.877  36.754  0.00  0.00     0.097 H 
ATOM     55  H   IDS d  65      23.331  29.582  39.438  0.00  0.00     0.091 H 
ATOM     56  O3S SGN d  62      18.821  27.143  48.091  0.00  0.00    -0.296 OA
ATOM     57  C1  SGN d  62      21.758  28.536  49.319  0.00  0.00     0.150 C 
ATOM     58  S2  SGN d  62      26.765  29.769  52.280  0.00  0.00     0.251 S 
ATOM     59  C5  SGN d  62      23.271  28.876  51.268  0.00  0.00     0.091 C 
ATOM     60  O5  SGN d  62      22.985  28.170  50.027  0.00  0.00    -0.349 OA
ATOM     61  O4S SGN d  62      27.625  28.699  52.665  0.00  0.00    -0.572 OA
ATOM     62  O6  SGN d  62      25.104  29.363  52.640  0.00  0.00    -0.254 OA
ATOM     63  O3  SGN d  62      19.756  29.240  52.391  0.00  0.00    -0.391 OA
ATOM     64  S1  SGN d  62      18.250  28.038  49.070  0.00  0.00     0.156 S 
ATOM     65  O6S SGN d  62      26.880  30.112  50.865  0.00  0.00    -0.572 OA
ATOM     66  O4  SGN d  62      22.435  29.382  53.459  0.00  0.00    -0.348 OA
ATOM     67  C6  SGN d  62      24.563  28.334  51.832  0.00  0.00     0.067 C 
ATOM     68  O5S SGN d  62      27.054  30.945  53.055  0.00  0.00    -0.572 OA
ATOM     69  O1S SGN d  62      17.186  28.844  48.510  0.00  0.00    -0.296 OA
ATOM     70  O2S SGN d  62      17.811  27.250  50.186  0.00  0.00    -0.296 OA
ATOM     71  C2  SGN d  62      20.599  28.508  50.306  0.00  0.00     0.081 C 
ATOM     72  C4  SGN d  62      22.108  28.687  52.257  0.00  0.00     0.095 C 
ATOM     73  N   SGN d  62      19.465  29.125  49.693  0.00  0.00    -0.210 NA
ATOM     74  C3  SGN d  62      20.889  29.322  51.570  0.00  0.00     0.083 C 
ATOM     75  H   SGN d  62      19.126  27.654  47.325  0.00  0.00     0.231 HD
ATOM     76  H   SGN d  62      21.645  27.827  48.526  0.00  0.00     0.131 H 
ATOM     77  H   SGN d  62      23.376  29.926  51.089  0.00  0.00     0.090 H 
ATOM     78  H   SGN d  62      18.999  29.645  51.940  0.00  0.00     0.210 HD
ATOM     79  H   SGN d  62      25.240  28.089  51.040  0.00  0.00     0.080 H 
ATOM     80  H   SGN d  62      24.396  27.441  52.397  0.00  0.00     0.080 H 
ATOM     81  H   SGN d  62      17.529  29.358  47.761  0.00  0.00     0.231 HD
ATOM     82  H   SGN d  62      18.555  26.729  50.527  0.00  0.00     0.231 HD
ATOM     83  H   SGN d  62      20.434  27.484  50.568  0.00  0.00     0.076 H 
ATOM     84  H   SGN d  62      21.917  27.663  52.505  0.00  0.00     0.091 H 
ATOM     85  H   SGN d  62      19.022  29.725  50.390  0.00  0.00     0.140 HD
ATOM     86  H   SGN d  62      21.099  30.349  51.357  0.00  0.00     0.089 H 
ATOM     87  O4  IDS d  63      21.793  29.838  48.722  0.00  0.00    -0.348 OA
ATOM     88  O62 IDS d  63      24.019  32.513  47.503  0.00  0.00    -0.646 OA
ATOM     89  C2  IDS d  63      19.467  30.905  46.959  0.00  0.00     0.134 C 
ATOM     90  O2S IDS d  63      17.176  32.581  48.216  0.00  0.00    -0.572 OA
ATOM     91  O61 IDS d  63      24.662  30.486  47.104  0.00  0.00    -0.646 OA
ATOM     92  C3  IDS d  63      20.239  29.596  46.744  0.00  0.00     0.094 C 
ATOM     93  C1  IDS d  63      20.202  32.077  46.253  0.00  0.00     0.161 C 
ATOM     94  O5  IDS d  63      21.506  32.220  46.872  0.00  0.00    -0.340 OA
ATOM     95  C4  IDS d  63      21.719  29.750  47.304  0.00  0.00     0.103 C 
ATOM     96  C6  IDS d  63      23.793  31.355  47.149  0.00  0.00     0.206 C 
ATOM     97  S   IDS d  63      18.491  32.598  48.842  0.00  0.00     0.252 S 
ATOM     98  O3  IDS d  63      20.260  29.412  45.346  0.00  0.00    -0.390 OA
ATOM     99  C5  IDS d  63      22.372  31.022  46.700  0.00  0.00     0.152 C 
ATOM    100  O2  IDS d  63      19.304  31.110  48.337  0.00  0.00    -0.244 OA
ATOM    101  O1S IDS d  63      18.418  32.531  50.290  0.00  0.00    -0.572 OA
ATOM    102  O3S IDS d  63      19.137  33.807  48.421  0.00  0.00    -0.572 OA
ATOM    103  H   IDS d  63      18.493  30.850  46.519  0.00  0.00     0.097 H 
ATOM    104  H   IDS d  63      19.791  28.767  47.250  0.00  0.00     0.091 H 
ATOM    105  H   IDS d  63      19.715  33.026  46.342  0.00  0.00     0.133 H 
ATOM    106  H   IDS d  63      22.238  28.860  47.014  0.00  0.00     0.092 H 
ATOM    107  H   IDS d  63      20.673  30.182  44.925  0.00  0.00     0.210 HD
ATOM    108  H   IDS d  63      22.466  30.759  45.668  0.00  0.00     0.104 H 
ATOM    109  O4  SGN d  64      20.264  31.706  44.841  0.00  0.00    -0.348 OA
ATOM    110  O6  SGN d  64      18.476  34.647  42.524  0.00  0.00    -0.254 OA
ATOM    111  C3  SGN d  64      22.171  31.845  43.315  0.00  0.00     0.083 C 
ATOM    112  S2  SGN d  64      19.456  36.008  43.132  0.00  0.00     0.251 S 
ATOM    113  C5  SGN d  64      19.916  32.705  42.680  0.00  0.00     0.091 C 
ATOM    114  O1S SGN d  64      26.113  33.656  42.034  0.00  0.00    -0.296 OA
ATOM    115  C2  SGN d  64      22.796  32.731  42.282  0.00  0.00     0.081 C 
ATOM    116  O4S SGN d  64      19.137  36.192  44.524  0.00  0.00    -0.572 OA
ATOM    117  O3S SGN d  64      25.474  32.395  43.938  0.00  0.00    -0.296 OA
ATOM    118  S1  SGN d  64      25.558  32.392  42.489  0.00  0.00     0.156 S 
ATOM    119  O6S SGN d  64      20.873  35.746  42.983  0.00  0.00    -0.572 OA
ATOM    120  O5S SGN d  64      19.115  37.187  42.382  0.00  0.00    -0.572 OA
ATOM    121  O3  SGN d  64      23.115  31.686  44.311  0.00  0.00    -0.391 OA
ATOM    122  C1  SGN d  64      21.813  32.929  41.157  0.00  0.00     0.150 C 
ATOM    123  O2S SGN d  64      26.372  31.288  42.061  0.00  0.00    -0.296 OA
ATOM    124  C4  SGN d  64      20.894  32.540  43.857  0.00  0.00     0.095 C 
ATOM    125  O5  SGN d  64      20.604  33.516  41.683  0.00  0.00    -0.349 OA
ATOM    126  C6  SGN d  64      18.646  33.383  43.149  0.00  0.00     0.067 C 
ATOM    127  N   SGN d  64      23.975  32.092  41.752  0.00  0.00    -0.210 NA
ATOM    128  H   SGN d  64      21.884  30.892  42.922  0.00  0.00     0.089 H 
ATOM    129  H   SGN d  64      19.632  31.759  42.267  0.00  0.00     0.090 H 
ATOM    130  H   SGN d  64      25.548  34.385  42.334  0.00  0.00     0.231 HD
ATOM    131  H   SGN d  64      23.057  33.670  42.723  0.00  0.00     0.076 H 
ATOM    132  H   SGN d  64      24.924  33.140  44.229  0.00  0.00     0.231 HD
ATOM    133  H   SGN d  64      23.367  32.556  44.659  0.00  0.00     0.210 HD
ATOM    134  H   SGN d  64      22.197  33.584  40.403  0.00  0.00     0.131 H 
ATOM    135  H   SGN d  64      27.264  31.383  42.429  0.00  0.00     0.231 HD
ATOM    136  H   SGN d  64      21.152  33.481  44.296  0.00  0.00     0.091 H 
ATOM    137  H   SGN d  64      17.810  32.760  42.910  0.00  0.00     0.080 H 
ATOM    138  H   SGN d  64      18.714  33.534  44.206  0.00  0.00     0.080 H 
ATOM    139  H   SGN d  64      24.048  32.375  40.774  0.00  0.00     0.140 HD
ATOM    140  C1  IDS d  61      22.281  28.592  54.656  0.00  0.00     0.167 C 
ATOM    141  O5  IDS d  61      20.878  28.272  54.840  0.00  0.00    -0.311 OA
ATOM    142  C5  IDS d  61      19.999  29.239  55.311  0.00  0.00     0.147 C 
ATOM    143  C6  IDS d  61      18.471  28.852  55.362  0.00  0.00     0.233 C 
ATOM    144  C2  IDS d  61      22.739  29.439  55.839  0.00  0.00     0.135 C 
ATOM    145  O1S IDS d  61      21.276  26.529  56.520  0.00  0.00    -0.572 OA
ATOM    146  O3S IDS d  61      23.678  26.377  56.379  0.00  0.00    -0.572 OA
ATOM    147  O3  IDS d  61      22.396  31.651  55.220  0.00  0.00    -0.389 OA
ATOM    148  C4  IDS d  61      20.432  30.426  55.819  0.00  0.00    -0.034 C 
ATOM    149  C3  IDS d  61      21.880  30.684  56.064  0.00  0.00     0.086 C 
ATOM    150  O61 IDS d  61      17.651  29.649  55.820  0.00  0.00    -0.642 OA
ATOM    151  O62 IDS d  61      18.097  27.719  54.969  0.00  0.00    -0.642 OA
ATOM    152  O2S IDS d  61      22.490  26.457  58.454  0.00  0.00    -0.572 OA
ATOM    153  S   IDS d  61      22.535  26.909  57.106  0.00  0.00     0.252 S 
ATOM    154  O2  IDS d  61      22.654  28.688  57.062  0.00  0.00    -0.244 OA
ATOM    155  H   IDS d  61      22.854  27.691  54.581  0.00  0.00     0.134 H 
ATOM    156  H   IDS d  61      23.741  29.727  55.597  0.00  0.00     0.097 H 
ATOM    157  H   IDS d  61      23.337  31.784  55.416  0.00  0.00     0.210 HD
ATOM    158  H   IDS d  61      19.743  31.163  56.040  0.00  0.00     0.085 H 
ATOM    159  H   IDS d  61      21.921  31.002  57.084  0.00  0.00     0.093 H 
ENDROOT
TORSDOF 50
ENDMDL
MODEL 16
REMARK VINA RESULT:      -5.9      3.644     15.584
REMARK  0 active torsions:
REMARK  status: ('A' for Active; 'I' for Inactive)
REMARK       I    between atoms: O3S_3  and  S1_55 
REMARK       I    between atoms: O3_4  and  C3_87 
REMARK       I    between atoms: O4_5  and  C1_15 
REMARK       I    between atoms: O4_5  and  C4_57 
REMARK       I    between atoms: O4_7  and  C1_36 
REMARK       I    between atoms: O4_7  and  C4_89 
REMARK       I    between atoms: C4_8  and  O4_18 
REMARK       I    between atoms: C2_9  and  O2_84 
REMARK       I    between atoms: C6_10  and  C5_32 
REMARK       I    between atoms: C6_10  and  O6_102 
REMARK       I    between atoms: O6_11  and  C6_93 
REMARK       I    between atoms: O6_11  and  S2_25 
REMARK       I    between atoms: C1_13  and  O4_74 
REMARK       I    between atoms: C3_14  and  O3_71 
REMARK       I    between atoms: O4_18  and  C1_54 
REMARK       I    between atoms: S2_19  and  O6_39 
REMARK       I    between atoms: O2S_21  and  S1_45 
REMARK       I    between atoms: C5_22  and  C6_23 
REMARK       I    between atoms: C5_24  and  C6_77 
REMARK       I    between atoms: O1_27  and  C1_48 
REMARK       I    between atoms: C5_28  and  C6_30 
REMARK       I    between atoms: C5_29  and  C6_93 
REMARK       I    between atoms: O1S_31  and  S1_44 
REMARK       I    between atoms: C3_33  and  O3_69 
REMARK       I    between atoms: C2_37  and  N_99 
REMARK       I    between atoms: S2_38  and  O6_102 
REMARK       I    between atoms: O6_39  and  C6_77 
REMARK       I    between atoms: C2_40  and  O2_103 
REMARK       I    between atoms: O3S_42  and  S1_44 
REMARK       I    between atoms: S1_44  and  N_99 
REMARK       I    between atoms: S1_44  and  O2S_81 
REMARK       I    between atoms: S1_45  and  N_94 
REMARK       I    between atoms: S1_45  and  O1S_46 
REMARK       I    between atoms: S1_45  and  O3S_58 
REMARK       I    between atoms: O3_52  and  C3_105 
REMARK       I    between atoms: S1_55  and  N_100 
REMARK       I    between atoms: S1_55  and  O1S_79 
REMARK       I    between atoms: S1_55  and  O2S_83 
REMARK       I    between atoms: O3_56  and  C3_64 
REMARK       I    between atoms: C4_60  and  O4_61 
REMARK       I    between atoms: O4_61  and  C1_73 
REMARK       I    between atoms: C6_63  and  C5_80 
REMARK       I    between atoms: C3_65  and  O3_82 
REMARK       I    between atoms: S_67  and  O2_84 
REMARK       I    between atoms: C2_68  and  O2_98 
REMARK       I    between atoms: O4_74  and  C4_97 
REMARK       I    between atoms: C2_85  and  N_94 
REMARK       I    between atoms: C2_95  and  N_100 
REMARK       I    between atoms: O2_98  and  S_104 
REMARK       I    between atoms: S_101  and  O2_103 
ROOT
ATOM      1  O6S SGN d  66      20.933  42.646  34.243  0.00  0.00    -0.572 OA
ATOM      2  C4  SGN d  66      18.942  38.416  35.261  0.00  0.00     0.095 C 
ATOM      3  C6  SGN d  66      17.773  40.272  34.011  0.00  0.00     0.067 C 
ATOM      4  O4  SGN d  66      18.448  38.980  36.565  0.00  0.00    -0.348 OA
ATOM      5  O5S SGN d  66      18.738  43.173  34.993  0.00  0.00    -0.572 OA
ATOM      6  O2S SGN d  66      20.580  34.328  31.643  0.00  0.00    -0.296 OA
ATOM      7  O5  SGN d  66      18.431  38.170  32.871  0.00  0.00    -0.350 OA
ATOM      8  O1  SGN d  66      17.409  36.027  33.266  0.00  0.00    -0.369 OA
ATOM      9  C5  SGN d  66      17.952  38.747  34.134  0.00  0.00     0.091 C 
ATOM     10  S2  SGN d  66      19.720  42.106  34.824  0.00  0.00     0.251 S 
ATOM     11  S1  SGN d  66      19.717  33.847  32.704  0.00  0.00     0.156 S 
ATOM     12  O1S SGN d  66      20.106  32.516  33.146  0.00  0.00    -0.296 OA
ATOM     13  C1  SGN d  66      18.621  36.716  32.902  0.00  0.00     0.147 C 
ATOM     14  O3S SGN d  66      18.334  33.771  32.259  0.00  0.00    -0.296 OA
ATOM     15  C3  SGN d  66      19.198  36.902  35.346  0.00  0.00     0.083 C 
ATOM     16  O3  SGN d  66      20.241  36.652  36.287  0.00  0.00    -0.391 OA
ATOM     17  C2  SGN d  66      19.678  36.403  33.981  0.00  0.00     0.081 C 
ATOM     18  O4S SGN d  66      20.039  41.482  36.100  0.00  0.00    -0.572 OA
ATOM     19  N   SGN d  66      19.923  34.957  34.084  0.00  0.00    -0.210 NA
ATOM     20  O6  SGN d  66      19.032  40.911  33.697  0.00  0.00    -0.254 OA
ATOM     21  H   SGN d  66      19.883  38.875  35.041  0.00  0.00     0.091 H 
ATOM     22  H   SGN d  66      17.406  40.658  34.940  0.00  0.00     0.080 H 
ATOM     23  H   SGN d  66      17.078  40.475  33.223  0.00  0.00     0.080 H 
ATOM     24  H   SGN d  66      21.494  34.370  31.965  0.00  0.00     0.231 HD
ATOM     25  H   SGN d  66      16.724  36.205  32.603  0.00  0.00     0.212 HD
ATOM     26  H   SGN d  66      16.997  38.322  34.363  0.00  0.00     0.090 H 
ATOM     27  H   SGN d  66      21.027  32.533  33.450  0.00  0.00     0.231 HD
ATOM     28  H   SGN d  66      18.920  36.391  31.928  0.00  0.00     0.131 H 
ATOM     29  H   SGN d  66      18.042  34.646  31.957  0.00  0.00     0.231 HD
ATOM     30  H   SGN d  66      18.297  36.406  35.641  0.00  0.00     0.089 H 
ATOM     31  H   SGN d  66      21.048  37.108  36.004  0.00  0.00     0.210 HD
ATOM     32  H   SGN d  66      20.584  36.897  33.694  0.00  0.00     0.076 H 
ATOM     33  H   SGN d  66      20.892  34.856  34.386  0.00  0.00     0.140 HD
ATOM     34  O61 IDS d  65      17.692  34.806  39.046  0.00  0.00    -0.646 OA
ATOM     35  O3  IDS d  65      15.230  39.485  39.262  0.00  0.00    -0.390 OA
ATOM     36  C5  IDS d  65      17.940  37.087  38.375  0.00  0.00     0.152 C 
ATOM     37  C6  IDS d  65      18.516  35.742  38.893  0.00  0.00     0.206 C 
ATOM     38  O5  IDS d  65      19.028  38.062  38.351  0.00  0.00    -0.340 OA
ATOM     39  C1  IDS d  65      18.685  39.398  37.901  0.00  0.00     0.161 C 
ATOM     40  O1S IDS d  65      14.554  42.214  38.377  0.00  0.00    -0.572 OA
ATOM     41  C4  IDS d  65      16.702  37.612  39.183  0.00  0.00     0.103 C 
ATOM     42  O4  IDS d  65      16.589  36.634  40.219  0.00  0.00    -0.348 OA
ATOM     43  C2  IDS d  65      17.164  39.733  37.959  0.00  0.00     0.134 C 
ATOM     44  O62 IDS d  65      19.761  35.642  39.110  0.00  0.00    -0.646 OA
ATOM     45  C3  IDS d  65      16.581  39.153  39.208  0.00  0.00     0.094 C 
ATOM     46  O2S IDS d  65      14.851  40.612  36.636  0.00  0.00    -0.572 OA
ATOM     47  O3S IDS d  65      15.723  42.803  36.363  0.00  0.00    -0.572 OA
ATOM     48  O2  IDS d  65      16.969  41.137  38.041  0.00  0.00    -0.244 OA
ATOM     49  S   IDS d  65      15.450  41.738  37.324  0.00  0.00     0.252 S 
ATOM     50  H   IDS d  65      14.838  39.114  40.068  0.00  0.00     0.210 HD
ATOM     51  H   IDS d  65      17.554  36.925  37.391  0.00  0.00     0.104 H 
ATOM     52  H   IDS d  65      19.344  40.124  38.331  0.00  0.00     0.133 H 
ATOM     53  H   IDS d  65      15.696  37.649  38.822  0.00  0.00     0.092 H 
ATOM     54  H   IDS d  65      16.704  39.336  37.079  0.00  0.00     0.097 H 
ATOM     55  H   IDS d  65      17.105  39.540  40.057  0.00  0.00     0.091 H 
ATOM     56  O3S SGN d  62      20.939  34.815  48.066  0.00  0.00    -0.296 OA
ATOM     57  C1  SGN d  62      17.849  35.754  49.348  0.00  0.00     0.150 C 
ATOM     58  S2  SGN d  62      13.345  37.745  52.682  0.00  0.00     0.251 S 
ATOM     59  C5  SGN d  62      16.399  36.030  51.354  0.00  0.00     0.091 C 
ATOM     60  O5  SGN d  62      17.250  36.644  50.344  0.00  0.00    -0.349 OA
ATOM     61  O4S SGN d  62      13.549  38.885  53.514  0.00  0.00    -0.572 OA
ATOM     62  O6  SGN d  62      14.692  36.642  52.835  0.00  0.00    -0.254 OA
ATOM     63  O3  SGN d  62      18.290  32.855  51.658  0.00  0.00    -0.391 OA
ATOM     64  S1  SGN d  62      20.531  33.544  48.619  0.00  0.00     0.156 S 
ATOM     65  O6S SGN d  62      13.165  38.092  51.275  0.00  0.00    -0.572 OA
ATOM     66  O4  SGN d  62      16.326  34.395  53.109  0.00  0.00    -0.348 OA
ATOM     67  C6  SGN d  62      15.905  37.117  52.278  0.00  0.00     0.067 C 
ATOM     68  O5S SGN d  62      12.190  37.010  53.117  0.00  0.00    -0.572 OA
ATOM     69  O1S SGN d  62      20.678  32.468  47.662  0.00  0.00    -0.296 OA
ATOM     70  O2S SGN d  62      21.289  33.320  49.816  0.00  0.00    -0.296 OA
ATOM     71  C2  SGN d  62      18.518  34.593  50.070  0.00  0.00     0.081 C 
ATOM     72  C4  SGN d  62      17.190  34.960  52.125  0.00  0.00     0.095 C 
ATOM     73  N   SGN d  62      18.856  33.594  49.107  0.00  0.00    -0.210 NA
ATOM     74  C3  SGN d  62      17.580  33.912  51.071  0.00  0.00     0.083 C 
ATOM     75  H   SGN d  62      20.439  34.990  47.254  0.00  0.00     0.231 HD
ATOM     76  H   SGN d  62      18.541  36.350  48.791  0.00  0.00     0.131 H 
ATOM     77  H   SGN d  62      15.561  35.546  50.898  0.00  0.00     0.090 H 
ATOM     78  H   SGN d  62      18.526  32.206  50.978  0.00  0.00     0.210 HD
ATOM     79  H   SGN d  62      15.734  38.020  51.731  0.00  0.00     0.080 H 
ATOM     80  H   SGN d  62      16.624  37.336  53.040  0.00  0.00     0.080 H 
ATOM     81  H   SGN d  62      20.150  32.663  46.871  0.00  0.00     0.231 HD
ATOM     82  H   SGN d  62      21.161  34.064  50.425  0.00  0.00     0.231 HD
ATOM     83  H   SGN d  62      19.366  34.990  50.586  0.00  0.00     0.076 H 
ATOM     84  H   SGN d  62      18.058  35.342  52.623  0.00  0.00     0.091 H 
ATOM     85  H   SGN d  62      18.619  32.684  49.503  0.00  0.00     0.140 HD
ATOM     86  H   SGN d  62      16.694  33.529  50.608  0.00  0.00     0.089 H 
ATOM     87  O4  IDS d  63      16.912  35.207  48.412  0.00  0.00    -0.348 OA
ATOM     88  O62 IDS d  63      13.584  35.668  46.892  0.00  0.00    -0.646 OA
ATOM     89  C2  IDS d  63      17.813  33.441  46.019  0.00  0.00     0.134 C 
ATOM     90  O2S IDS d  63      17.907  30.349  46.289  0.00  0.00    -0.572 OA
ATOM     91  O61 IDS d  63      14.733  37.471  47.230  0.00  0.00    -0.646 OA
ATOM     92  C3  IDS d  63      18.318  34.854  46.343  0.00  0.00     0.094 C 
ATOM     93  C1  IDS d  63      16.529  33.522  45.148  0.00  0.00     0.161 C 
ATOM     94  O5  IDS d  63      15.507  34.196  45.926  0.00  0.00    -0.340 OA
ATOM     95  C4  IDS d  63      17.179  35.670  47.094  0.00  0.00     0.103 C 
ATOM     96  C6  IDS d  63      14.640  36.302  46.858  0.00  0.00     0.206 C 
ATOM     97  S   IDS d  63      16.971  31.104  47.112  0.00  0.00     0.252 S 
ATOM     98  O3  IDS d  63      18.593  35.437  45.089  0.00  0.00    -0.390 OA
ATOM     99  C5  IDS d  63      15.862  35.599  46.274  0.00  0.00     0.152 C 
ATOM    100  O2  IDS d  63      17.616  32.747  47.223  0.00  0.00    -0.244 OA
ATOM    101  O1S IDS d  63      16.913  30.614  48.477  0.00  0.00    -0.572 OA
ATOM    102  O3S IDS d  63      15.687  31.004  46.481  0.00  0.00    -0.572 OA
ATOM    103  H   IDS d  63      18.535  32.900  45.445  0.00  0.00     0.097 H 
ATOM    104  H   IDS d  63      19.178  34.847  46.979  0.00  0.00     0.091 H 
ATOM    105  H   IDS d  63      16.123  32.574  44.864  0.00  0.00     0.133 H 
ATOM    106  H   IDS d  63      17.542  36.674  47.178  0.00  0.00     0.092 H 
ATOM    107  H   IDS d  63      17.791  35.425  44.544  0.00  0.00     0.210 HD
ATOM    108  H   IDS d  63      16.111  36.162  45.400  0.00  0.00     0.104 H 
ATOM    109  O4  SGN d  64      16.921  34.251  43.944  0.00  0.00    -0.348 OA
ATOM    110  O6  SGN d  64      16.122  31.957  40.580  0.00  0.00    -0.254 OA
ATOM    111  C3  SGN d  64      15.740  36.075  42.819  0.00  0.00     0.083 C 
ATOM    112  S2  SGN d  64      14.396  31.675  40.931  0.00  0.00     0.251 S 
ATOM    113  C5  SGN d  64      16.628  34.114  41.559  0.00  0.00     0.091 C 
ATOM    114  O1S SGN d  64      11.952  38.332  41.808  0.00  0.00    -0.296 OA
ATOM    115  C2  SGN d  64      14.779  36.352  41.705  0.00  0.00     0.081 C 
ATOM    116  O4S SGN d  64      14.315  30.875  42.125  0.00  0.00    -0.572 OA
ATOM    117  O3S SGN d  64      13.112  37.981  43.848  0.00  0.00    -0.296 OA
ATOM    118  S1  SGN d  64      13.215  38.521  42.504  0.00  0.00     0.156 S 
ATOM    119  O6S SGN d  64      13.688  32.924  41.128  0.00  0.00    -0.572 OA
ATOM    120  O5S SGN d  64      13.813  30.974  39.819  0.00  0.00    -0.572 OA
ATOM    121  O3  SGN d  64      15.138  36.538  43.973  0.00  0.00    -0.391 OA
ATOM    122  C1  SGN d  64      15.391  35.880  40.411  0.00  0.00     0.150 C 
ATOM    123  O2S SGN d  64      13.562  39.913  42.575  0.00  0.00    -0.296 OA
ATOM    124  C4  SGN d  64      15.990  34.546  42.891  0.00  0.00     0.095 C 
ATOM    125  O5  SGN d  64      15.679  34.469  40.512  0.00  0.00    -0.349 OA
ATOM    126  C6  SGN d  64      16.894  32.623  41.568  0.00  0.00     0.067 C 
ATOM    127  N   SGN d  64      14.550  37.772  41.610  0.00  0.00    -0.210 NA
ATOM    128  H   SGN d  64      16.685  36.556  42.677  0.00  0.00     0.089 H 
ATOM    129  H   SGN d  64      17.569  34.599  41.397  0.00  0.00     0.090 H 
ATOM    130  H   SGN d  64      11.740  37.387  41.773  0.00  0.00     0.231 HD
ATOM    131  H   SGN d  64      13.856  35.845  41.892  0.00  0.00     0.076 H 
ATOM    132  H   SGN d  64      12.877  37.040  43.802  0.00  0.00     0.231 HD
ATOM    133  H   SGN d  64      14.283  36.096  44.092  0.00  0.00     0.210 HD
ATOM    134  H   SGN d  64      14.730  36.023  39.582  0.00  0.00     0.131 H 
ATOM    135  H   SGN d  64      12.871  40.394  43.056  0.00  0.00     0.231 HD
ATOM    136  H   SGN d  64      15.067  34.035  43.074  0.00  0.00     0.091 H 
ATOM    137  H   SGN d  64      17.932  32.453  41.373  0.00  0.00     0.080 H 
ATOM    138  H   SGN d  64      16.622  32.237  42.528  0.00  0.00     0.080 H 
ATOM    139  H   SGN d  64      14.396  37.980  40.624  0.00  0.00     0.140 HD
ATOM    140  C1  IDS d  61      16.890  34.355  54.436  0.00  0.00     0.167 C 
ATOM    141  O5  IDS d  61      18.024  33.450  54.446  0.00  0.00    -0.311 OA
ATOM    142  C5  IDS d  61      17.818  32.077  54.443  0.00  0.00     0.147 C 
ATOM    143  C6  IDS d  61      19.097  31.161  54.325  0.00  0.00     0.233 C 
ATOM    144  C2  IDS d  61      15.828  33.804  55.381  0.00  0.00     0.135 C 
ATOM    145  O1S IDS d  61      18.894  34.221  56.605  0.00  0.00    -0.572 OA
ATOM    146  O3S IDS d  61      17.461  36.128  56.957  0.00  0.00    -0.572 OA
ATOM    147  O3  IDS d  61      14.455  32.448  54.089  0.00  0.00    -0.389 OA
ATOM    148  C4  IDS d  61      16.589  31.527  54.651  0.00  0.00    -0.034 C 
ATOM    149  C3  IDS d  61      15.427  32.362  55.070  0.00  0.00     0.086 C 
ATOM    150  O61 IDS d  61      18.981  29.936  54.371  0.00  0.00    -0.642 OA
ATOM    151  O62 IDS d  61      20.234  31.684  54.219  0.00  0.00    -0.642 OA
ATOM    152  O2S IDS d  61      17.950  34.523  58.664  0.00  0.00    -0.572 OA
ATOM    153  S   IDS d  61      17.727  34.732  57.274  0.00  0.00     0.252 S 
ATOM    154  O2  IDS d  61      16.316  33.784  56.734  0.00  0.00    -0.244 OA
ATOM    155  H   IDS d  61      17.203  35.334  54.734  0.00  0.00     0.134 H 
ATOM    156  H   IDS d  61      14.986  34.452  55.254  0.00  0.00     0.097 H 
ATOM    157  H   IDS d  61      13.722  32.999  54.407  0.00  0.00     0.210 HD
ATOM    158  H   IDS d  61      16.459  30.512  54.516  0.00  0.00     0.085 H 
ATOM    159  H   IDS d  61      15.051  31.869  55.942  0.00  0.00     0.093 H 
ENDROOT
TORSDOF 50
ENDMDL
MODEL 17
REMARK VINA RESULT:      -5.9      1.248      1.326
REMARK  0 active torsions:
REMARK  status: ('A' for Active; 'I' for Inactive)
REMARK       I    between atoms: O3S_3  and  S1_55 
REMARK       I    between atoms: O3_4  and  C3_87 
REMARK       I    between atoms: O4_5  and  C1_15 
REMARK       I    between atoms: O4_5  and  C4_57 
REMARK       I    between atoms: O4_7  and  C1_36 
REMARK       I    between atoms: O4_7  and  C4_89 
REMARK       I    between atoms: C4_8  and  O4_18 
REMARK       I    between atoms: C2_9  and  O2_84 
REMARK       I    between atoms: C6_10  and  C5_32 
REMARK       I    between atoms: C6_10  and  O6_102 
REMARK       I    between atoms: O6_11  and  C6_93 
REMARK       I    between atoms: O6_11  and  S2_25 
REMARK       I    between atoms: C1_13  and  O4_74 
REMARK       I    between atoms: C3_14  and  O3_71 
REMARK       I    between atoms: O4_18  and  C1_54 
REMARK       I    between atoms: S2_19  and  O6_39 
REMARK       I    between atoms: O2S_21  and  S1_45 
REMARK       I    between atoms: C5_22  and  C6_23 
REMARK       I    between atoms: C5_24  and  C6_77 
REMARK       I    between atoms: O1_27  and  C1_48 
REMARK       I    between atoms: C5_28  and  C6_30 
REMARK       I    between atoms: C5_29  and  C6_93 
REMARK       I    between atoms: O1S_31  and  S1_44 
REMARK       I    between atoms: C3_33  and  O3_69 
REMARK       I    between atoms: C2_37  and  N_99 
REMARK       I    between atoms: S2_38  and  O6_102 
REMARK       I    between atoms: O6_39  and  C6_77 
REMARK       I    between atoms: C2_40  and  O2_103 
REMARK       I    between atoms: O3S_42  and  S1_44 
REMARK       I    between atoms: S1_44  and  N_99 
REMARK       I    between atoms: S1_44  and  O2S_81 
REMARK       I    between atoms: S1_45  and  N_94 
REMARK       I    between atoms: S1_45  and  O1S_46 
REMARK       I    between atoms: S1_45  and  O3S_58 
REMARK       I    between atoms: O3_52  and  C3_105 
REMARK       I    between atoms: S1_55  and  N_100 
REMARK       I    between atoms: S1_55  and  O1S_79 
REMARK       I    between atoms: S1_55  and  O2S_83 
REMARK       I    between atoms: O3_56  and  C3_64 
REMARK       I    between atoms: C4_60  and  O4_61 
REMARK       I    between atoms: O4_61  and  C1_73 
REMARK       I    between atoms: C6_63  and  C5_80 
REMARK       I    between atoms: C3_65  and  O3_82 
REMARK       I    between atoms: S_67  and  O2_84 
REMARK       I    between atoms: C2_68  and  O2_98 
REMARK       I    between atoms: O4_74  and  C4_97 
REMARK       I    between atoms: C2_85  and  N_94 
REMARK       I    between atoms: C2_95  and  N_100 
REMARK       I    between atoms: O2_98  and  S_104 
REMARK       I    between atoms: S_101  and  O2_103 
ROOT
ATOM      1  O6S SGN d  66      25.901  40.364  53.763  0.00  0.00    -0.572 OA
ATOM      2  C4  SGN d  66      21.412  39.620  52.280  0.00  0.00     0.095 C 
ATOM      3  C6  SGN d  66      22.436  38.529  54.314  0.00  0.00     0.067 C 
ATOM      4  O4  SGN d  66      21.901  38.484  51.424  0.00  0.00    -0.348 OA
ATOM      5  O5S SGN d  66      25.584  38.013  53.944  0.00  0.00    -0.572 OA
ATOM      6  O2S SGN d  66      17.892  43.817  53.851  0.00  0.00    -0.296 OA
ATOM      7  O5  SGN d  66      20.649  40.237  54.532  0.00  0.00    -0.350 OA
ATOM      8  O1  SGN d  66      18.354  39.898  53.894  0.00  0.00    -0.369 OA
ATOM      9  C5  SGN d  66      21.150  39.126  53.712  0.00  0.00     0.091 C 
ATOM     10  S2  SGN d  66      24.998  39.266  53.476  0.00  0.00     0.251 S 
ATOM     11  S1  SGN d  66      17.253  42.803  53.035  0.00  0.00     0.156 S 
ATOM     12  O1S SGN d  66      16.272  43.387  52.131  0.00  0.00    -0.296 OA
ATOM     13  C1  SGN d  66      19.420  40.858  54.028  0.00  0.00     0.147 C 
ATOM     14  O3S SGN d  66      16.557  41.828  53.861  0.00  0.00    -0.296 OA
ATOM     15  C3  SGN d  66      20.163  40.294  51.689  0.00  0.00     0.083 C 
ATOM     16  O3  SGN d  66      20.495  40.882  50.432  0.00  0.00    -0.391 OA
ATOM     17  C2  SGN d  66      19.719  41.422  52.624  0.00  0.00     0.081 C 
ATOM     18  O4S SGN d  66      24.743  39.221  52.043  0.00  0.00    -0.572 OA
ATOM     19  N   SGN d  66      18.530  42.057  52.040  0.00  0.00    -0.210 NA
ATOM     20  O6  SGN d  66      23.483  39.526  54.374  0.00  0.00    -0.254 OA
ATOM     21  H   SGN d  66      22.180  40.364  52.306  0.00  0.00     0.091 H 
ATOM     22  H   SGN d  66      22.763  37.713  53.705  0.00  0.00     0.080 H 
ATOM     23  H   SGN d  66      22.225  38.191  55.308  0.00  0.00     0.080 H 
ATOM     24  H   SGN d  66      18.348  44.453  53.279  0.00  0.00     0.231 HD
ATOM     25  H   SGN d  66      18.143  39.525  54.764  0.00  0.00     0.212 HD
ATOM     26  H   SGN d  66      20.408  38.355  53.691  0.00  0.00     0.090 H 
ATOM     27  H   SGN d  66      16.706  44.044  51.565  0.00  0.00     0.231 HD
ATOM     28  H   SGN d  66      19.114  41.615  54.719  0.00  0.00     0.131 H 
ATOM     29  H   SGN d  66      17.185  41.419  54.478  0.00  0.00     0.231 HD
ATOM     30  H   SGN d  66      19.389  39.565  51.572  0.00  0.00     0.089 H 
ATOM     31  H   SGN d  66      21.197  41.539  50.558  0.00  0.00     0.210 HD
ATOM     32  H   SGN d  66      20.496  42.152  52.732  0.00  0.00     0.076 H 
ATOM     33  H   SGN d  66      18.876  42.795  51.425  0.00  0.00     0.140 HD
ATOM     34  O61 IDS d  65      18.172  38.180  48.238  0.00  0.00    -0.646 OA
ATOM     35  O3  IDS d  65      21.416  34.473  50.171  0.00  0.00    -0.390 OA
ATOM     36  C5  IDS d  65      20.237  37.926  49.414  0.00  0.00     0.152 C 
ATOM     37  C6  IDS d  65      19.331  38.642  48.377  0.00  0.00     0.206 C 
ATOM     38  O5  IDS d  65      21.557  38.549  49.363  0.00  0.00    -0.340 OA
ATOM     39  C1  IDS d  65      22.561  38.006  50.260  0.00  0.00     0.161 C 
ATOM     40  O1S IDS d  65      23.479  33.373  51.967  0.00  0.00    -0.572 OA
ATOM     41  C4  IDS d  65      20.317  36.370  49.234  0.00  0.00     0.103 C 
ATOM     42  O4  IDS d  65      19.532  36.167  48.056  0.00  0.00    -0.348 OA
ATOM     43  C2  IDS d  65      22.250  36.576  50.794  0.00  0.00     0.134 C 
ATOM     44  O62 IDS d  65      19.779  39.649  47.751  0.00  0.00    -0.646 OA
ATOM     45  C3  IDS d  65      21.661  35.757  49.689  0.00  0.00     0.094 C 
ATOM     46  O2S IDS d  65      21.913  34.855  52.985  0.00  0.00    -0.572 OA
ATOM     47  O3S IDS d  65      24.208  35.000  53.575  0.00  0.00    -0.572 OA
ATOM     48  O2  IDS d  65      23.447  35.921  51.183  0.00  0.00    -0.244 OA
ATOM     49  S   IDS d  65      23.269  34.721  52.491  0.00  0.00     0.252 S 
ATOM     50  H   IDS d  65      21.033  33.930  49.464  0.00  0.00     0.210 HD
ATOM     51  H   IDS d  65      19.797  38.050  50.381  0.00  0.00     0.104 H 
ATOM     52  H   IDS d  65      23.544  38.158  49.867  0.00  0.00     0.133 H 
ATOM     53  H   IDS d  65      19.889  35.645  49.894  0.00  0.00     0.092 H 
ATOM     54  H   IDS d  65      21.581  36.669  51.623  0.00  0.00     0.097 H 
ATOM     55  H   IDS d  65      22.342  35.733  48.864  0.00  0.00     0.091 H 
ATOM     56  O3S SGN d  62      20.760  37.274  39.051  0.00  0.00    -0.296 OA
ATOM     57  C1  SGN d  62      20.522  33.809  39.159  0.00  0.00     0.150 C 
ATOM     58  S2  SGN d  62      20.941  27.960  38.170  0.00  0.00     0.251 S 
ATOM     59  C5  SGN d  62      20.457  31.664  37.895  0.00  0.00     0.091 C 
ATOM     60  O5  SGN d  62      21.218  32.603  38.707  0.00  0.00    -0.349 OA
ATOM     61  O4S SGN d  62      22.168  27.426  37.679  0.00  0.00    -0.572 OA
ATOM     62  O6  SGN d  62      20.518  29.405  37.284  0.00  0.00    -0.254 OA
ATOM     63  O3  SGN d  62      18.408  34.184  36.105  0.00  0.00    -0.391 OA
ATOM     64  S1  SGN d  62      19.524  37.112  38.322  0.00  0.00     0.156 S 
ATOM     65  O6S SGN d  62      20.985  28.267  39.597  0.00  0.00    -0.572 OA
ATOM     66  O4  SGN d  62      19.196  31.416  35.868  0.00  0.00    -0.348 OA
ATOM     67  C6  SGN d  62      21.364  30.514  37.530  0.00  0.00     0.067 C 
ATOM     68  O5S SGN d  62      19.865  27.034  37.940  0.00  0.00    -0.572 OA
ATOM     69  O1S SGN d  62      18.480  37.976  38.831  0.00  0.00    -0.296 OA
ATOM     70  O2S SGN d  62      19.797  37.344  36.933  0.00  0.00    -0.296 OA
ATOM     71  C2  SGN d  62      19.848  34.462  37.961  0.00  0.00     0.081 C 
ATOM     72  C4  SGN d  62      19.922  32.372  36.638  0.00  0.00     0.095 C 
ATOM     73  N   SGN d  62      18.951  35.467  38.436  0.00  0.00    -0.210 NA
ATOM     74  C3  SGN d  62      18.989  33.474  37.165  0.00  0.00     0.083 C 
ATOM     75  H   SGN d  62      20.600  37.121  39.996  0.00  0.00     0.231 HD
ATOM     76  H   SGN d  62      21.265  34.434  39.608  0.00  0.00     0.131 H 
ATOM     77  H   SGN d  62      19.614  31.291  38.439  0.00  0.00     0.090 H 
ATOM     78  H   SGN d  62      17.824  34.873  36.458  0.00  0.00     0.210 HD
ATOM     79  H   SGN d  62      22.033  30.298  38.336  0.00  0.00     0.080 H 
ATOM     80  H   SGN d  62      21.962  30.746  36.672  0.00  0.00     0.080 H 
ATOM     81  H   SGN d  62      18.330  37.784  39.771  0.00  0.00     0.231 HD
ATOM     82  H   SGN d  62      20.500  36.745  36.637  0.00  0.00     0.231 HD
ATOM     83  H   SGN d  62      20.625  34.847  37.334  0.00  0.00     0.076 H 
ATOM     84  H   SGN d  62      20.690  32.786  36.018  0.00  0.00     0.091 H 
ATOM     85  H   SGN d  62      18.089  35.398  37.895  0.00  0.00     0.140 HD
ATOM     86  H   SGN d  62      18.218  33.030  37.759  0.00  0.00     0.089 H 
ATOM     87  O4  IDS d  63      19.515  33.567  40.150  0.00  0.00    -0.348 OA
ATOM     88  O62 IDS d  63      18.360  31.196  42.727  0.00  0.00    -0.646 OA
ATOM     89  C2  IDS d  63      17.959  35.883  41.516  0.00  0.00     0.134 C 
ATOM     90  O2S IDS d  63      15.245  36.856  40.360  0.00  0.00    -0.572 OA
ATOM     91  O61 IDS d  63      20.503  31.455  42.566  0.00  0.00    -0.646 OA
ATOM     92  C3  IDS d  63      19.484  35.725  41.463  0.00  0.00     0.094 C 
ATOM     93  C1  IDS d  63      17.386  35.117  42.739  0.00  0.00     0.161 C 
ATOM     94  O5  IDS d  63      17.684  33.709  42.559  0.00  0.00    -0.340 OA
ATOM     95  C4  IDS d  63      19.859  34.182  41.385  0.00  0.00     0.103 C 
ATOM     96  C6  IDS d  63      19.359  31.906  42.598  0.00  0.00     0.206 C 
ATOM     97  S   IDS d  63      15.658  35.477  40.134  0.00  0.00     0.252 S 
ATOM     98  O3  IDS d  63      19.948  36.282  42.673  0.00  0.00    -0.390 OA
ATOM     99  C5  IDS d  63      19.143  33.415  42.530  0.00  0.00     0.152 C 
ATOM    100  O2  IDS d  63      17.419  35.450  40.295  0.00  0.00    -0.244 OA
ATOM    101  O1S IDS d  63      15.382  35.030  38.781  0.00  0.00    -0.572 OA
ATOM    102  O3S IDS d  63      14.956  34.671  41.090  0.00  0.00    -0.572 OA
ATOM    103  H   IDS d  63      17.686  36.910  41.647  0.00  0.00     0.097 H 
ATOM    104  H   IDS d  63      19.918  36.203  40.610  0.00  0.00     0.091 H 
ATOM    105  H   IDS d  63      16.325  35.193  42.856  0.00  0.00     0.133 H 
ATOM    106  H   IDS d  63      20.924  34.133  41.479  0.00  0.00     0.092 H 
ATOM    107  H   IDS d  63      19.534  35.824  43.420  0.00  0.00     0.210 HD
ATOM    108  H   IDS d  63      19.631  33.801  43.400  0.00  0.00     0.104 H 
ATOM    109  O4  SGN d  64      18.036  35.705  43.908  0.00  0.00    -0.348 OA
ATOM    110  O6  SGN d  64      15.172  37.138  46.547  0.00  0.00    -0.254 OA
ATOM    111  C3  SGN d  64      19.043  34.565  45.823  0.00  0.00     0.083 C 
ATOM    112  S2  SGN d  64      14.262  35.612  46.707  0.00  0.00     0.251 S 
ATOM    113  C5  SGN d  64      17.461  36.472  46.115  0.00  0.00     0.091 C 
ATOM    114  O1S SGN d  64      19.390  31.011  48.602  0.00  0.00    -0.296 OA
ATOM    115  C2  SGN d  64      18.745  34.109  47.218  0.00  0.00     0.081 C 
ATOM    116  O4S SGN d  64      13.673  35.316  45.427  0.00  0.00    -0.572 OA
ATOM    117  O3S SGN d  64      19.831  31.284  46.286  0.00  0.00    -0.296 OA
ATOM    118  S1  SGN d  64      20.173  31.745  47.620  0.00  0.00     0.156 S 
ATOM    119  O6S SGN d  64      15.126  34.523  47.113  0.00  0.00    -0.572 OA
ATOM    120  O5S SGN d  64      13.237  35.794  47.699  0.00  0.00    -0.572 OA
ATOM    121  O3  SGN d  64      19.375  33.430  45.108  0.00  0.00    -0.391 OA
ATOM    122  C1  SGN d  64      18.390  35.311  48.054  0.00  0.00     0.150 C 
ATOM    123  O2S SGN d  64      21.581  31.561  47.840  0.00  0.00    -0.296 OA
ATOM    124  C4  SGN d  64      17.775  35.244  45.242  0.00  0.00     0.095 C 
ATOM    125  O5  SGN d  64      17.249  35.973  47.468  0.00  0.00    -0.349 OA
ATOM    126  C6  SGN d  64      16.227  37.178  45.596  0.00  0.00     0.067 C 
ATOM    127  N   SGN d  64      19.919  33.491  47.782  0.00  0.00    -0.210 NA
ATOM    128  H   SGN d  64      19.843  35.274  45.784  0.00  0.00     0.089 H 
ATOM    129  H   SGN d  64      18.260  37.184  46.096  0.00  0.00     0.090 H 
ATOM    130  H   SGN d  64      18.446  31.151  48.432  0.00  0.00     0.231 HD
ATOM    131  H   SGN d  64      17.936  33.408  47.203  0.00  0.00     0.076 H 
ATOM    132  H   SGN d  64      18.880  31.407  46.136  0.00  0.00     0.231 HD
ATOM    133  H   SGN d  64      18.643  32.795  45.151  0.00  0.00     0.210 HD
ATOM    134  H   SGN d  64      18.133  35.038  49.056  0.00  0.00     0.131 H 
ATOM    135  H   SGN d  64      21.799  30.619  47.767  0.00  0.00     0.231 HD
ATOM    136  H   SGN d  64      16.963  34.547  45.229  0.00  0.00     0.091 H 
ATOM    137  H   SGN d  64      16.470  38.199  45.388  0.00  0.00     0.080 H 
ATOM    138  H   SGN d  64      15.901  36.680  44.707  0.00  0.00     0.080 H 
ATOM    139  H   SGN d  64      19.907  33.694  48.782  0.00  0.00     0.140 HD
ATOM    140  C1  IDS d  61      19.575  31.370  34.477  0.00  0.00     0.167 C 
ATOM    141  O5  IDS d  61      19.223  32.628  33.844  0.00  0.00    -0.311 OA
ATOM    142  C5  IDS d  61      17.900  32.898  33.522  0.00  0.00     0.147 C 
ATOM    143  C6  IDS d  61      17.580  34.335  32.955  0.00  0.00     0.233 C 
ATOM    144  C2  IDS d  61      18.775  30.257  33.809  0.00  0.00     0.135 C 
ATOM    145  O1S IDS d  61      20.574  32.240  31.835  0.00  0.00    -0.572 OA
ATOM    146  O3S IDS d  61      21.758  30.256  32.523  0.00  0.00    -0.572 OA
ATOM    147  O3  IDS d  61      16.811  30.050  35.032  0.00  0.00    -0.389 OA
ATOM    148  C4  IDS d  61      16.930  31.942  33.574  0.00  0.00    -0.034 C 
ATOM    149  C3  IDS d  61      17.268  30.508  33.808  0.00  0.00     0.086 C 
ATOM    150  O61 IDS d  61      16.434  34.614  32.601  0.00  0.00    -0.642 OA
ATOM    151  O62 IDS d  61      18.502  35.179  32.833  0.00  0.00    -0.642 OA
ATOM    152  O2S IDS d  61      20.747  30.498  30.367  0.00  0.00    -0.572 OA
ATOM    153  S   IDS d  61      20.652  30.806  31.753  0.00  0.00     0.252 S 
ATOM    154  O2  IDS d  61      19.145  30.129  32.426  0.00  0.00    -0.244 OA
ATOM    155  H   IDS d  61      20.628  31.199  34.386  0.00  0.00     0.134 H 
ATOM    156  H   IDS d  61      18.998  29.380  34.381  0.00  0.00     0.097 H 
ATOM    157  H   IDS d  61      17.053  29.117  35.139  0.00  0.00     0.210 HD
ATOM    158  H   IDS d  61      15.943  32.215  33.448  0.00  0.00     0.085 H 
ATOM    159  H   IDS d  61      16.790  29.992  33.002  0.00  0.00     0.093 H 
ENDROOT
TORSDOF 50
ENDMDL
MODEL 18
REMARK VINA RESULT:      -5.9      4.261      7.978
REMARK  0 active torsions:
REMARK  status: ('A' for Active; 'I' for Inactive)
REMARK       I    between atoms: O3S_3  and  S1_55 
REMARK       I    between atoms: O3_4  and  C3_87 
REMARK       I    between atoms: O4_5  and  C1_15 
REMARK       I    between atoms: O4_5  and  C4_57 
REMARK       I    between atoms: O4_7  and  C1_36 
REMARK       I    between atoms: O4_7  and  C4_89 
REMARK       I    between atoms: C4_8  and  O4_18 
REMARK       I    between atoms: C2_9  and  O2_84 
REMARK       I    between atoms: C6_10  and  C5_32 
REMARK       I    between atoms: C6_10  and  O6_102 
REMARK       I    between atoms: O6_11  and  C6_93 
REMARK       I    between atoms: O6_11  and  S2_25 
REMARK       I    between atoms: C1_13  and  O4_74 
REMARK       I    between atoms: C3_14  and  O3_71 
REMARK       I    between atoms: O4_18  and  C1_54 
REMARK       I    between atoms: S2_19  and  O6_39 
REMARK       I    between atoms: O2S_21  and  S1_45 
REMARK       I    between atoms: C5_22  and  C6_23 
REMARK       I    between atoms: C5_24  and  C6_77 
REMARK       I    between atoms: O1_27  and  C1_48 
REMARK       I    between atoms: C5_28  and  C6_30 
REMARK       I    between atoms: C5_29  and  C6_93 
REMARK       I    between atoms: O1S_31  and  S1_44 
REMARK       I    between atoms: C3_33  and  O3_69 
REMARK       I    between atoms: C2_37  and  N_99 
REMARK       I    between atoms: S2_38  and  O6_102 
REMARK       I    between atoms: O6_39  and  C6_77 
REMARK       I    between atoms: C2_40  and  O2_103 
REMARK       I    between atoms: O3S_42  and  S1_44 
REMARK       I    between atoms: S1_44  and  N_99 
REMARK       I    between atoms: S1_44  and  O2S_81 
REMARK       I    between atoms: S1_45  and  N_94 
REMARK       I    between atoms: S1_45  and  O1S_46 
REMARK       I    between atoms: S1_45  and  O3S_58 
REMARK       I    between atoms: O3_52  and  C3_105 
REMARK       I    between atoms: S1_55  and  N_100 
REMARK       I    between atoms: S1_55  and  O1S_79 
REMARK       I    between atoms: S1_55  and  O2S_83 
REMARK       I    between atoms: O3_56  and  C3_64 
REMARK       I    between atoms: C4_60  and  O4_61 
REMARK       I    between atoms: O4_61  and  C1_73 
REMARK       I    between atoms: C6_63  and  C5_80 
REMARK       I    between atoms: C3_65  and  O3_82 
REMARK       I    between atoms: S_67  and  O2_84 
REMARK       I    between atoms: C2_68  and  O2_98 
REMARK       I    between atoms: O4_74  and  C4_97 
REMARK       I    between atoms: C2_85  and  N_94 
REMARK       I    between atoms: C2_95  and  N_100 
REMARK       I    between atoms: O2_98  and  S_104 
REMARK       I    between atoms: S_101  and  O2_103 
ROOT
ATOM      1  O6S SGN d  66      12.831  28.800  53.492  0.00  0.00    -0.572 OA
ATOM      2  C4  SGN d  66      16.713  31.259  52.159  0.00  0.00     0.095 C 
ATOM      3  C6  SGN d  66      14.574  32.318  52.983  0.00  0.00     0.067 C 
ATOM      4  O4  SGN d  66      16.187  31.293  50.749  0.00  0.00    -0.348 OA
ATOM      5  O5S SGN d  66      11.990  30.592  52.174  0.00  0.00    -0.572 OA
ATOM      6  O2S SGN d  66      20.689  31.404  56.239  0.00  0.00    -0.296 OA
ATOM      7  O5  SGN d  66      16.651  32.388  54.339  0.00  0.00    -0.350 OA
ATOM      8  O1  SGN d  66      18.604  33.676  53.776  0.00  0.00    -0.369 OA
ATOM      9  C5  SGN d  66      16.111  32.415  52.973  0.00  0.00     0.091 C 
ATOM     10  S2  SGN d  66      13.196  29.911  52.636  0.00  0.00     0.251 S 
ATOM     11  S1  SGN d  66      21.101  32.052  55.009  0.00  0.00     0.156 S 
ATOM     12  O1S SGN d  66      22.514  31.832  54.738  0.00  0.00    -0.296 OA
ATOM     13  C1  SGN d  66      18.112  32.483  54.417  0.00  0.00     0.147 C 
ATOM     14  O3S SGN d  66      20.889  33.490  55.079  0.00  0.00    -0.296 OA
ATOM     15  C3  SGN d  66      18.250  31.290  52.204  0.00  0.00     0.083 C 
ATOM     16  O3  SGN d  66      18.764  30.115  51.579  0.00  0.00    -0.391 OA
ATOM     17  C2  SGN d  66      18.703  31.272  53.666  0.00  0.00     0.081 C 
ATOM     18  O4S SGN d  66      13.978  29.411  51.513  0.00  0.00    -0.572 OA
ATOM     19  N   SGN d  66      20.172  31.296  53.688  0.00  0.00    -0.210 NA
ATOM     20  O6  SGN d  66      14.144  31.077  53.591  0.00  0.00    -0.254 OA
ATOM     21  H   SGN d  66      16.411  30.331  52.599  0.00  0.00     0.091 H 
ATOM     22  H   SGN d  66      14.213  32.359  51.977  0.00  0.00     0.080 H 
ATOM     23  H   SGN d  66      14.181  33.134  53.554  0.00  0.00     0.080 H 
ATOM     24  H   SGN d  66      20.839  30.448  56.166  0.00  0.00     0.231 HD
ATOM     25  H   SGN d  66      18.248  34.457  54.229  0.00  0.00     0.212 HD
ATOM     26  H   SGN d  66      16.378  33.346  52.519  0.00  0.00     0.090 H 
ATOM     27  H   SGN d  66      22.688  30.879  54.685  0.00  0.00     0.231 HD
ATOM     28  H   SGN d  66      18.396  32.506  55.448  0.00  0.00     0.131 H 
ATOM     29  H   SGN d  66      19.954  33.671  55.260  0.00  0.00     0.231 HD
ATOM     30  H   SGN d  66      18.601  32.168  51.703  0.00  0.00     0.089 H 
ATOM     31  H   SGN d  66      18.435  29.331  52.045  0.00  0.00     0.210 HD
ATOM     32  H   SGN d  66      18.354  30.388  54.159  0.00  0.00     0.076 H 
ATOM     33  H   SGN d  66      20.471  30.321  53.654  0.00  0.00     0.140 HD
ATOM     34  O61 IDS d  65      20.364  32.205  48.325  0.00  0.00    -0.646 OA
ATOM     35  O3  IDS d  65      15.360  33.575  47.286  0.00  0.00    -0.390 OA
ATOM     36  C5  IDS d  65      18.114  31.692  48.946  0.00  0.00     0.152 C 
ATOM     37  C6  IDS d  65      19.580  31.279  48.651  0.00  0.00     0.206 C 
ATOM     38  O5  IDS d  65      17.349  30.477  49.215  0.00  0.00    -0.340 OA
ATOM     39  C1  IDS d  65      15.939  30.653  49.506  0.00  0.00     0.161 C 
ATOM     40  O1S IDS d  65      12.486  33.905  47.854  0.00  0.00    -0.572 OA
ATOM     41  C4  IDS d  65      17.450  32.563  47.823  0.00  0.00     0.103 C 
ATOM     42  O4  IDS d  65      18.481  32.603  46.832  0.00  0.00    -0.348 OA
ATOM     43  C2  IDS d  65      15.345  32.016  49.039  0.00  0.00     0.134 C 
ATOM     44  O62 IDS d  65      19.919  30.063  48.771  0.00  0.00    -0.646 OA
ATOM     45  C3  IDS d  65      15.921  32.371  47.705  0.00  0.00     0.094 C 
ATOM     46  O2S IDS d  65      13.954  34.370  49.675  0.00  0.00    -0.572 OA
ATOM     47  O3S IDS d  65      11.938  33.183  50.078  0.00  0.00    -0.572 OA
ATOM     48  O2  IDS d  65      13.942  31.907  48.853  0.00  0.00    -0.244 OA
ATOM     49  S   IDS d  65      13.019  33.410  49.122  0.00  0.00     0.252 S 
ATOM     50  H   IDS d  65      15.725  33.819  46.421  0.00  0.00     0.210 HD
ATOM     51  H   IDS d  65      18.115  32.335  49.801  0.00  0.00     0.104 H 
ATOM     52  H   IDS d  65      15.383  29.780  49.235  0.00  0.00     0.133 H 
ATOM     53  H   IDS d  65      17.203  33.600  47.906  0.00  0.00     0.092 H 
ATOM     54  H   IDS d  65      15.574  32.750  49.783  0.00  0.00     0.097 H 
ATOM     55  H   IDS d  65      15.710  31.587  47.008  0.00  0.00     0.091 H 
ATOM     56  O3S SGN d  62      21.735  26.874  40.476  0.00  0.00    -0.296 OA
ATOM     57  C1  SGN d  62      20.378  29.304  38.394  0.00  0.00     0.150 C 
ATOM     58  S2  SGN d  62      17.922  32.357  33.921  0.00  0.00     0.251 S 
ATOM     59  C5  SGN d  62      20.029  30.126  36.069  0.00  0.00     0.091 C 
ATOM     60  O5  SGN d  62      19.489  29.451  37.241  0.00  0.00    -0.349 OA
ATOM     61  O4S SGN d  62      16.915  31.734  33.127  0.00  0.00    -0.572 OA
ATOM     62  O6  SGN d  62      19.256  31.256  34.170  0.00  0.00    -0.254 OA
ATOM     63  O3  SGN d  62      23.504  28.874  36.397  0.00  0.00    -0.391 OA
ATOM     64  S1  SGN d  62      22.957  27.371  39.887  0.00  0.00     0.156 S 
ATOM     65  O6S SGN d  62      17.425  32.811  35.217  0.00  0.00    -0.572 OA
ATOM     66  O4  SGN d  62      21.773  30.076  34.423  0.00  0.00    -0.348 OA
ATOM     67  C6  SGN d  62      18.958  30.152  35.005  0.00  0.00     0.067 C 
ATOM     68  O5S SGN d  62      18.476  33.488  33.228  0.00  0.00    -0.572 OA
ATOM     69  O1S SGN d  62      23.953  27.680  40.891  0.00  0.00    -0.296 OA
ATOM     70  O2S SGN d  62      23.418  26.398  38.940  0.00  0.00    -0.296 OA
ATOM     71  C2  SGN d  62      21.700  28.716  37.919  0.00  0.00     0.081 C 
ATOM     72  C4  SGN d  62      21.287  29.391  35.575  0.00  0.00     0.095 C 
ATOM     73  N   SGN d  62      22.654  28.829  38.976  0.00  0.00    -0.210 NA
ATOM     74  C3  SGN d  62      22.289  29.488  36.736  0.00  0.00     0.083 C 
ATOM     75  H   SGN d  62      21.402  27.518  41.122  0.00  0.00     0.231 HD
ATOM     76  H   SGN d  62      19.868  28.669  39.088  0.00  0.00     0.131 H 
ATOM     77  H   SGN d  62      20.313  31.129  36.309  0.00  0.00     0.090 H 
ATOM     78  H   SGN d  62      24.122  28.946  37.141  0.00  0.00     0.210 HD
ATOM     79  H   SGN d  62      17.993  30.274  35.452  0.00  0.00     0.080 H 
ATOM     80  H   SGN d  62      18.938  29.237  34.449  0.00  0.00     0.080 H 
ATOM     81  H   SGN d  62      23.597  28.340  41.508  0.00  0.00     0.231 HD
ATOM     82  H   SGN d  62      22.720  26.223  38.289  0.00  0.00     0.231 HD
ATOM     83  H   SGN d  62      21.507  27.705  37.627  0.00  0.00     0.076 H 
ATOM     84  H   SGN d  62      21.111  28.370  35.307  0.00  0.00     0.091 H 
ATOM     85  H   SGN d  62      23.538  29.133  38.568  0.00  0.00     0.140 HD
ATOM     86  H   SGN d  62      22.466  30.519  36.965  0.00  0.00     0.089 H 
ATOM     87  O4  IDS d  63      20.665  30.533  39.073  0.00  0.00    -0.348 OA
ATOM     88  O62 IDS d  63      19.485  33.978  39.650  0.00  0.00    -0.646 OA
ATOM     89  C2  IDS d  63      22.343  30.618  41.687  0.00  0.00     0.134 C 
ATOM     90  O2S IDS d  63      25.414  31.064  41.575  0.00  0.00    -0.572 OA
ATOM     91  O61 IDS d  63      17.953  32.453  39.553  0.00  0.00    -0.646 OA
ATOM     92  C3  IDS d  63      21.077  29.783  41.450  0.00  0.00     0.094 C 
ATOM     93  C1  IDS d  63      21.958  32.037  42.188  0.00  0.00     0.161 C 
ATOM     94  O5  IDS d  63      21.184  32.681  41.144  0.00  0.00    -0.340 OA
ATOM     95  C4  IDS d  63      20.141  30.517  40.395  0.00  0.00     0.103 C 
ATOM     96  C6  IDS d  63      19.049  32.861  39.934  0.00  0.00     0.206 C 
ATOM     97  S   IDS d  63      24.581  31.600  40.506  0.00  0.00     0.252 S 
ATOM     98  O3  IDS d  63      20.443  29.721  42.709  0.00  0.00    -0.390 OA
ATOM     99  C5  IDS d  63      19.904  31.984  40.844  0.00  0.00     0.152 C 
ATOM    100  O2  IDS d  63      23.095  30.641  40.502  0.00  0.00    -0.244 OA
ATOM    101  O1S IDS d  63      25.171  31.410  39.194  0.00  0.00    -0.572 OA
ATOM    102  O3S IDS d  63      24.394  32.994  40.783  0.00  0.00    -0.572 OA
ATOM    103  H   IDS d  63      22.951  30.182  42.451  0.00  0.00     0.097 H 
ATOM    104  H   IDS d  63      21.293  28.810  41.062  0.00  0.00     0.091 H 
ATOM    105  H   IDS d  63      22.790  32.678  42.393  0.00  0.00     0.133 H 
ATOM    106  H   IDS d  63      19.230  29.957  40.370  0.00  0.00     0.092 H 
ATOM    107  H   IDS d  63      20.264  30.620  43.025  0.00  0.00     0.210 HD
ATOM    108  H   IDS d  63      19.318  31.857  41.730  0.00  0.00     0.104 H 
ATOM    109  O4  SGN d  64      21.206  31.824  43.423  0.00  0.00    -0.348 OA
ATOM    110  O6  SGN d  64      23.014  33.867  46.549  0.00  0.00    -0.254 OA
ATOM    111  C3  SGN d  64      19.108  32.869  44.125  0.00  0.00     0.083 C 
ATOM    112  S2  SGN d  64      23.013  35.472  45.771  0.00  0.00     0.251 S 
ATOM    113  C5  SGN d  64      21.077  32.723  45.652  0.00  0.00     0.091 C 
ATOM    114  O1S SGN d  64      16.132  36.274  44.020  0.00  0.00    -0.296 OA
ATOM    115  C2  SGN d  64      18.567  34.004  44.938  0.00  0.00     0.081 C 
ATOM    116  O4S SGN d  64      23.889  35.407  44.630  0.00  0.00    -0.572 OA
ATOM    117  O3S SGN d  64      16.864  34.735  42.370  0.00  0.00    -0.296 OA
ATOM    118  S1  SGN d  64      16.234  34.866  43.672  0.00  0.00     0.156 S 
ATOM    119  O6S SGN d  64      21.681  35.851  45.346  0.00  0.00    -0.572 OA
ATOM    120  O5S SGN d  64      23.498  36.439  46.718  0.00  0.00    -0.572 OA
ATOM    121  O3  SGN d  64      18.650  33.062  42.836  0.00  0.00    -0.391 OA
ATOM    122  C1  SGN d  64      19.023  33.838  46.364  0.00  0.00     0.150 C 
ATOM    123  O2S SGN d  64      14.938  34.248  43.638  0.00  0.00    -0.296 OA
ATOM    124  C4  SGN d  64      20.658  32.912  44.182  0.00  0.00     0.095 C 
ATOM    125  O5  SGN d  64      20.466  33.815  46.399  0.00  0.00    -0.349 OA
ATOM    126  C6  SGN d  64      22.586  32.758  45.772  0.00  0.00     0.067 C 
ATOM    127  N   SGN d  64      17.126  33.969  44.912  0.00  0.00    -0.210 NA
ATOM    128  H   SGN d  64      18.793  31.914  44.490  0.00  0.00     0.089 H 
ATOM    129  H   SGN d  64      20.754  31.776  46.034  0.00  0.00     0.090 H 
ATOM    130  H   SGN d  64      17.018  36.668  44.036  0.00  0.00     0.231 HD
ATOM    131  H   SGN d  64      18.916  34.933  44.536  0.00  0.00     0.076 H 
ATOM    132  H   SGN d  64      17.740  35.152  42.391  0.00  0.00     0.231 HD
ATOM    133  H   SGN d  64      18.941  33.930  42.516  0.00  0.00     0.210 HD
ATOM    134  H   SGN d  64      18.692  34.644  46.985  0.00  0.00     0.131 H 
ATOM    135  H   SGN d  64      14.386  34.690  42.974  0.00  0.00     0.231 HD
ATOM    136  H   SGN d  64      21.010  33.841  43.785  0.00  0.00     0.091 H 
ATOM    137  H   SGN d  64      22.920  31.855  46.238  0.00  0.00     0.080 H 
ATOM    138  H   SGN d  64      23.001  32.853  44.790  0.00  0.00     0.080 H 
ATOM    139  H   SGN d  64      16.807  34.320  45.815  0.00  0.00     0.140 HD
ATOM    140  C1  IDS d  61      22.031  29.218  33.293  0.00  0.00     0.167 C 
ATOM    141  O5  IDS d  61      23.121  28.316  33.616  0.00  0.00    -0.311 OA
ATOM    142  C5  IDS d  61      24.430  28.780  33.619  0.00  0.00     0.147 C 
ATOM    143  C6  IDS d  61      25.544  27.774  34.105  0.00  0.00     0.233 C 
ATOM    144  C2  IDS d  61      22.466  30.097  32.125  0.00  0.00     0.135 C 
ATOM    145  O1S IDS d  61      22.712  26.803  31.730  0.00  0.00    -0.572 OA
ATOM    146  O3S IDS d  61      20.619  27.702  30.940  0.00  0.00    -0.572 OA
ATOM    147  O3  IDS d  61      23.436  31.986  33.066  0.00  0.00    -0.389 OA
ATOM    148  C4  IDS d  61      24.769  30.001  33.119  0.00  0.00    -0.034 C 
ATOM    149  C3  IDS d  61      23.780  30.836  32.377  0.00  0.00     0.086 C 
ATOM    150  O61 IDS d  61      26.728  28.111  34.079  0.00  0.00    -0.642 OA
ATOM    151  O62 IDS d  61      25.225  26.620  34.483  0.00  0.00    -0.642 OA
ATOM    152  O2S IDS d  61      22.430  27.125  29.486  0.00  0.00    -0.572 OA
ATOM    153  S   IDS d  61      22.062  27.643  30.759  0.00  0.00     0.252 S 
ATOM    154  O2  IDS d  61      22.693  29.301  30.949  0.00  0.00    -0.244 OA
ATOM    155  H   IDS d  61      21.154  28.656  33.047  0.00  0.00     0.134 H 
ATOM    156  H   IDS d  61      21.669  30.801  32.002  0.00  0.00     0.097 H 
ATOM    157  H   IDS d  61      22.793  32.494  32.546  0.00  0.00     0.210 HD
ATOM    158  H   IDS d  61      25.728  30.356  33.256  0.00  0.00     0.085 H 
ATOM    159  H   IDS d  61      24.274  31.072  31.458  0.00  0.00     0.093 H 
ENDROOT
TORSDOF 50
ENDMDL
MODEL 19
REMARK VINA RESULT:      -5.8      2.862     16.248
REMARK  0 active torsions:
REMARK  status: ('A' for Active; 'I' for Inactive)
REMARK       I    between atoms: O3S_3  and  S1_55 
REMARK       I    between atoms: O3_4  and  C3_87 
REMARK       I    between atoms: O4_5  and  C1_15 
REMARK       I    between atoms: O4_5  and  C4_57 
REMARK       I    between atoms: O4_7  and  C1_36 
REMARK       I    between atoms: O4_7  and  C4_89 
REMARK       I    between atoms: C4_8  and  O4_18 
REMARK       I    between atoms: C2_9  and  O2_84 
REMARK       I    between atoms: C6_10  and  C5_32 
REMARK       I    between atoms: C6_10  and  O6_102 
REMARK       I    between atoms: O6_11  and  C6_93 
REMARK       I    between atoms: O6_11  and  S2_25 
REMARK       I    between atoms: C1_13  and  O4_74 
REMARK       I    between atoms: C3_14  and  O3_71 
REMARK       I    between atoms: O4_18  and  C1_54 
REMARK       I    between atoms: S2_19  and  O6_39 
REMARK       I    between atoms: O2S_21  and  S1_45 
REMARK       I    between atoms: C5_22  and  C6_23 
REMARK       I    between atoms: C5_24  and  C6_77 
REMARK       I    between atoms: O1_27  and  C1_48 
REMARK       I    between atoms: C5_28  and  C6_30 
REMARK       I    between atoms: C5_29  and  C6_93 
REMARK       I    between atoms: O1S_31  and  S1_44 
REMARK       I    between atoms: C3_33  and  O3_69 
REMARK       I    between atoms: C2_37  and  N_99 
REMARK       I    between atoms: S2_38  and  O6_102 
REMARK       I    between atoms: O6_39  and  C6_77 
REMARK       I    between atoms: C2_40  and  O2_103 
REMARK       I    between atoms: O3S_42  and  S1_44 
REMARK       I    between atoms: S1_44  and  N_99 
REMARK       I    between atoms: S1_44  and  O2S_81 
REMARK       I    between atoms: S1_45  and  N_94 
REMARK       I    between atoms: S1_45  and  O1S_46 
REMARK       I    between atoms: S1_45  and  O3S_58 
REMARK       I    between atoms: O3_52  and  C3_105 
REMARK       I    between atoms: S1_55  and  N_100 
REMARK       I    between atoms: S1_55  and  O1S_79 
REMARK       I    between atoms: S1_55  and  O2S_83 
REMARK       I    between atoms: O3_56  and  C3_64 
REMARK       I    between atoms: C4_60  and  O4_61 
REMARK       I    between atoms: O4_61  and  C1_73 
REMARK       I    between atoms: C6_63  and  C5_80 
REMARK       I    between atoms: C3_65  and  O3_82 
REMARK       I    between atoms: S_67  and  O2_84 
REMARK       I    between atoms: C2_68  and  O2_98 
REMARK       I    between atoms: O4_74  and  C4_97 
REMARK       I    between atoms: C2_85  and  N_94 
REMARK       I    between atoms: C2_95  and  N_100 
REMARK       I    between atoms: O2_98  and  S_104 
REMARK       I    between atoms: S_101  and  O2_103 
ROOT
ATOM      1  O6S SGN d  66      22.039  35.267  30.117  0.00  0.00    -0.572 OA
ATOM      2  C4  SGN d  66      22.023  31.831  33.446  0.00  0.00     0.095 C 
ATOM      3  C6  SGN d  66      20.448  31.905  31.474  0.00  0.00     0.067 C 
ATOM      4  O4  SGN d  66      21.049  32.642  34.257  0.00  0.00    -0.348 OA
ATOM      5  O5S SGN d  66      19.740  34.918  30.617  0.00  0.00    -0.572 OA
ATOM      6  O2S SGN d  66      26.103  27.950  32.570  0.00  0.00    -0.296 OA
ATOM      7  O5  SGN d  66      22.227  30.183  31.636  0.00  0.00    -0.350 OA
ATOM      8  O1  SGN d  66      22.234  28.375  33.223  0.00  0.00    -0.369 OA
ATOM      9  C5  SGN d  66      21.269  30.991  32.403  0.00  0.00     0.091 C 
ATOM     10  S2  SGN d  66      21.110  34.577  30.990  0.00  0.00     0.251 S 
ATOM     11  S1  SGN d  66      25.341  27.722  33.782  0.00  0.00     0.156 S 
ATOM     12  O1S SGN d  66      26.184  27.212  34.853  0.00  0.00    -0.296 OA
ATOM     13  C1  SGN d  66      23.046  29.279  32.449  0.00  0.00     0.147 C 
ATOM     14  O3S SGN d  66      24.283  26.749  33.560  0.00  0.00    -0.296 OA
ATOM     15  C3  SGN d  66      22.914  30.944  34.332  0.00  0.00     0.083 C 
ATOM     16  O3  SGN d  66      23.717  31.772  35.173  0.00  0.00    -0.391 OA
ATOM     17  C2  SGN d  66      23.859  30.140  33.437  0.00  0.00     0.081 C 
ATOM     18  O4S SGN d  66      21.385  34.952  32.370  0.00  0.00    -0.572 OA
ATOM     19  N   SGN d  66      24.706  29.305  34.301  0.00  0.00    -0.210 NA
ATOM     20  O6  SGN d  66      21.313  32.823  30.764  0.00  0.00    -0.254 OA
ATOM     21  H   SGN d  66      22.674  32.511  32.939  0.00  0.00     0.091 H 
ATOM     22  H   SGN d  66      19.749  32.464  32.061  0.00  0.00     0.080 H 
ATOM     23  H   SGN d  66      19.932  31.297  30.761  0.00  0.00     0.080 H 
ATOM     24  H   SGN d  66      26.800  28.601  32.743  0.00  0.00     0.231 HD
ATOM     25  H   SGN d  66      21.710  27.818  32.627  0.00  0.00     0.212 HD
ATOM     26  H   SGN d  66      20.589  30.332  32.901  0.00  0.00     0.090 H 
ATOM     27  H   SGN d  66      26.903  27.840  35.026  0.00  0.00     0.231 HD
ATOM     28  H   SGN d  66      23.668  28.705  31.795  0.00  0.00     0.131 H 
ATOM     29  H   SGN d  66      23.701  27.059  32.849  0.00  0.00     0.231 HD
ATOM     30  H   SGN d  66      22.297  30.297  34.920  0.00  0.00     0.089 H 
ATOM     31  H   SGN d  66      24.267  32.351  34.624  0.00  0.00     0.210 HD
ATOM     32  H   SGN d  66      24.478  30.793  32.857  0.00  0.00     0.076 H 
ATOM     33  H   SGN d  66      25.520  29.874  34.534  0.00  0.00     0.140 HD
ATOM     34  O61 IDS d  65      21.745  30.611  38.677  0.00  0.00    -0.646 OA
ATOM     35  O3  IDS d  65      17.444  32.757  36.465  0.00  0.00    -0.390 OA
ATOM     36  C5  IDS d  65      21.070  31.987  36.843  0.00  0.00     0.152 C 
ATOM     37  C6  IDS d  65      22.063  31.600  37.971  0.00  0.00     0.206 C 
ATOM     38  O5  IDS d  65      21.569  33.202  36.202  0.00  0.00    -0.340 OA
ATOM     39  C1  IDS d  65      20.765  33.735  35.118  0.00  0.00     0.161 C 
ATOM     40  O1S IDS d  65      15.816  33.875  34.276  0.00  0.00    -0.572 OA
ATOM     41  C4  IDS d  65      19.583  32.146  37.319  0.00  0.00     0.103 C 
ATOM     42  O4  IDS d  65      19.700  31.934  38.728  0.00  0.00    -0.348 OA
ATOM     43  C2  IDS d  65      19.289  33.237  35.098  0.00  0.00     0.134 C 
ATOM     44  O62 IDS d  65      23.134  32.265  38.111  0.00  0.00    -0.646 OA
ATOM     45  C3  IDS d  65      18.772  33.175  36.500  0.00  0.00     0.094 C 
ATOM     46  O2S IDS d  65      17.189  32.016  33.691  0.00  0.00    -0.572 OA
ATOM     47  O3S IDS d  65      17.004  33.846  32.190  0.00  0.00    -0.572 OA
ATOM     48  O2  IDS d  65      18.463  34.161  34.407  0.00  0.00    -0.244 OA
ATOM     49  S   IDS d  65      17.040  33.455  33.596  0.00  0.00     0.252 S 
ATOM     50  H   IDS d  65      17.095  32.712  37.369  0.00  0.00     0.210 HD
ATOM     51  H   IDS d  65      21.030  31.179  36.144  0.00  0.00     0.104 H 
ATOM     52  H   IDS d  65      20.906  34.792  35.025  0.00  0.00     0.133 H 
ATOM     53  H   IDS d  65      18.780  31.483  37.076  0.00  0.00     0.092 H 
ATOM     54  H   IDS d  65      19.269  32.279  34.621  0.00  0.00     0.097 H 
ATOM     55  H   IDS d  65      18.858  34.141  36.952  0.00  0.00     0.091 H 
ATOM     56  O3S SGN d  62      22.528  36.845  45.918  0.00  0.00    -0.296 OA
ATOM     57  C1  SGN d  62      19.152  36.606  46.701  0.00  0.00     0.150 C 
ATOM     58  S2  SGN d  62      13.620  37.440  48.718  0.00  0.00     0.251 S 
ATOM     59  C5  SGN d  62      17.329  37.094  48.327  0.00  0.00     0.091 C 
ATOM     60  O5  SGN d  62      18.008  37.435  47.084  0.00  0.00    -0.349 OA
ATOM     61  O4S SGN d  62      13.091  38.763  48.765  0.00  0.00    -0.572 OA
ATOM     62  O6  SGN d  62      15.248  37.422  49.349  0.00  0.00    -0.254 OA
ATOM     63  O3  SGN d  62      20.337  35.978  50.185  0.00  0.00    -0.391 OA
ATOM     64  S1  SGN d  62      22.633  36.034  47.108  0.00  0.00     0.156 S 
ATOM     65  O6S SGN d  62      13.620  36.874  47.371  0.00  0.00    -0.572 OA
ATOM     66  O4  SGN d  62      17.619  36.810  50.691  0.00  0.00    -0.348 OA
ATOM     67  C6  SGN d  62      16.202  38.078  48.533  0.00  0.00     0.067 C 
ATOM     68  O5S SGN d  62      12.862  36.568  49.573  0.00  0.00    -0.572 OA
ATOM     69  O1S SGN d  62      23.463  34.867  46.896  0.00  0.00    -0.296 OA
ATOM     70  O2S SGN d  62      23.121  36.867  48.169  0.00  0.00    -0.296 OA
ATOM     71  C2  SGN d  62      20.096  36.497  47.890  0.00  0.00     0.081 C 
ATOM     72  C4  SGN d  62      18.327  37.136  49.497  0.00  0.00     0.095 C 
ATOM     73  N   SGN d  62      21.058  35.477  47.615  0.00  0.00    -0.210 NA
ATOM     74  C3  SGN d  62      19.375  36.061  49.169  0.00  0.00     0.083 C 
ATOM     75  H   SGN d  62      22.199  36.302  45.184  0.00  0.00     0.231 HD
ATOM     76  H   SGN d  62      19.601  37.085  45.857  0.00  0.00     0.131 H 
ATOM     77  H   SGN d  62      16.929  36.103  48.278  0.00  0.00     0.090 H 
ATOM     78  H   SGN d  62      20.988  35.295  49.960  0.00  0.00     0.210 HD
ATOM     79  H   SGN d  62      15.765  38.345  47.593  0.00  0.00     0.080 H 
ATOM     80  H   SGN d  62      16.552  38.980  48.990  0.00  0.00     0.080 H 
ATOM     81  H   SGN d  62      23.095  34.335  46.172  0.00  0.00     0.231 HD
ATOM     82  H   SGN d  62      22.535  37.633  48.274  0.00  0.00     0.231 HD
ATOM     83  H   SGN d  62      20.531  37.463  48.035  0.00  0.00     0.076 H 
ATOM     84  H   SGN d  62      18.789  38.092  49.633  0.00  0.00     0.091 H 
ATOM     85  H   SGN d  62      21.179  34.925  48.464  0.00  0.00     0.140 HD
ATOM     86  H   SGN d  62      18.889  35.114  49.063  0.00  0.00     0.089 H 
ATOM     87  O4  IDS d  63      18.801  35.276  46.297  0.00  0.00    -0.348 OA
ATOM     88  O62 IDS d  63      16.063  33.155  45.034  0.00  0.00    -0.646 OA
ATOM     89  C2  IDS d  63      20.916  33.273  45.213  0.00  0.00     0.134 C 
ATOM     90  O2S IDS d  63      22.345  31.297  47.135  0.00  0.00    -0.572 OA
ATOM     91  O61 IDS d  63      16.156  35.163  44.233  0.00  0.00    -0.646 OA
ATOM     92  C3  IDS d  63      20.636  34.679  44.665  0.00  0.00     0.094 C 
ATOM     93  C1  IDS d  63      19.967  32.242  44.543  0.00  0.00     0.161 C 
ATOM     94  O5  IDS d  63      18.606  32.598  44.896  0.00  0.00    -0.340 OA
ATOM     95  C4  IDS d  63      19.115  35.062  44.926  0.00  0.00     0.103 C 
ATOM     96  C6  IDS d  63      16.691  34.110  44.575  0.00  0.00     0.206 C 
ATOM     97  S   IDS d  63      21.012  31.775  47.474  0.00  0.00     0.252 S 
ATOM     98  O3  IDS d  63      20.887  34.585  43.281  0.00  0.00    -0.390 OA
ATOM     99  C5  IDS d  63      18.196  33.934  44.385  0.00  0.00     0.152 C 
ATOM    100  O2  IDS d  63      20.794  33.303  46.611  0.00  0.00    -0.244 OA
ATOM    101  O1S IDS d  63      20.880  32.100  48.883  0.00  0.00    -0.572 OA
ATOM    102  O3S IDS d  63      20.091  30.739  47.103  0.00  0.00    -0.572 OA
ATOM    103  H   IDS d  63      21.913  32.964  44.979  0.00  0.00     0.097 H 
ATOM    104  H   IDS d  63      21.238  35.430  45.131  0.00  0.00     0.091 H 
ATOM    105  H   IDS d  63      20.113  31.231  44.861  0.00  0.00     0.133 H 
ATOM    106  H   IDS d  63      18.952  35.988  44.415  0.00  0.00     0.092 H 
ATOM    107  H   IDS d  63      20.323  33.897  42.895  0.00  0.00     0.210 HD
ATOM    108  H   IDS d  63      18.348  34.006  43.329  0.00  0.00     0.104 H 
ATOM    109  O4  SGN d  64      20.241  32.334  43.111  0.00  0.00    -0.348 OA
ATOM    110  O6  SGN d  64      21.348  28.614  41.642  0.00  0.00    -0.254 OA
ATOM    111  C3  SGN d  64      18.644  32.444  41.261  0.00  0.00     0.083 C 
ATOM    112  S2  SGN d  64      19.910  27.731  42.220  0.00  0.00     0.251 S 
ATOM    113  C5  SGN d  64      20.584  30.875  41.228  0.00  0.00     0.091 C 
ATOM    114  O1S SGN d  64      14.576  31.607  39.466  0.00  0.00    -0.296 OA
ATOM    115  C2  SGN d  64      17.938  31.587  40.256  0.00  0.00     0.081 C 
ATOM    116  O4S SGN d  64      19.939  27.740  43.660  0.00  0.00    -0.572 OA
ATOM    117  O3S SGN d  64      15.281  32.982  41.266  0.00  0.00    -0.296 OA
ATOM    118  S1  SGN d  64      15.424  32.726  39.844  0.00  0.00     0.156 S 
ATOM    119  O6S SGN d  64      18.687  28.349  41.750  0.00  0.00    -0.572 OA
ATOM    120  O5S SGN d  64      19.975  26.382  41.728  0.00  0.00    -0.572 OA
ATOM    121  O3  SGN d  64      17.657  33.054  42.011  0.00  0.00    -0.391 OA
ATOM    122  C1  SGN d  64      18.968  30.904  39.395  0.00  0.00     0.150 C 
ATOM    123  O2S SGN d  64      15.073  33.910  39.109  0.00  0.00    -0.296 OA
ATOM    124  C4  SGN d  64      19.539  31.537  42.145  0.00  0.00     0.095 C 
ATOM    125  O5  SGN d  64      19.837  30.114  40.234  0.00  0.00    -0.349 OA
ATOM    126  C6  SGN d  64      21.490  29.971  42.037  0.00  0.00     0.067 C 
ATOM    127  N   SGN d  64      17.114  32.417  39.412  0.00  0.00    -0.210 NA
ATOM    128  H   SGN d  64      19.271  33.181  40.806  0.00  0.00     0.089 H 
ATOM    129  H   SGN d  64      21.209  31.603  40.754  0.00  0.00     0.090 H 
ATOM    130  H   SGN d  64      14.832  30.822  39.974  0.00  0.00     0.231 HD
ATOM    131  H   SGN d  64      17.331  30.865  40.761  0.00  0.00     0.076 H 
ATOM    132  H   SGN d  64      15.517  32.184  41.764  0.00  0.00     0.231 HD
ATOM    133  H   SGN d  64      17.094  32.377  42.418  0.00  0.00     0.210 HD
ATOM    134  H   SGN d  64      18.519  30.250  38.677  0.00  0.00     0.131 H 
ATOM    135  H   SGN d  64      14.151  34.145  39.296  0.00  0.00     0.231 HD
ATOM    136  H   SGN d  64      18.936  30.810  42.649  0.00  0.00     0.091 H 
ATOM    137  H   SGN d  64      22.505  30.273  41.889  0.00  0.00     0.080 H 
ATOM    138  H   SGN d  64      21.217  30.054  43.068  0.00  0.00     0.080 H 
ATOM    139  H   SGN d  64      17.107  31.982  38.490  0.00  0.00     0.140 HD
ATOM    140  C1  IDS d  61      17.828  37.741  51.772  0.00  0.00     0.167 C 
ATOM    141  O5  IDS d  61      19.215  37.682  52.194  0.00  0.00    -0.311 OA
ATOM    142  C5  IDS d  61      19.663  36.617  52.964  0.00  0.00     0.147 C 
ATOM    143  C6  IDS d  61      21.210  36.558  53.273  0.00  0.00     0.233 C 
ATOM    144  C2  IDS d  61      16.953  37.306  52.943  0.00  0.00     0.135 C 
ATOM    145  O1S IDS d  61      19.132  39.758  53.496  0.00  0.00    -0.572 OA
ATOM    146  O3S IDS d  61      16.951  40.552  52.846  0.00  0.00    -0.572 OA
ATOM    147  O3  IDS d  61      16.675  35.010  52.722  0.00  0.00    -0.389 OA
ATOM    148  C4  IDS d  61      18.808  35.723  53.534  0.00  0.00    -0.034 C 
ATOM    149  C3  IDS d  61      17.333  35.938  53.510  0.00  0.00     0.086 C 
ATOM    150  O61 IDS d  61      21.658  35.667  53.995  0.00  0.00    -0.642 OA
ATOM    151  O62 IDS d  61      21.975  37.440  52.810  0.00  0.00    -0.642 OA
ATOM    152  O2S IDS d  61      17.722  40.546  55.112  0.00  0.00    -0.572 OA
ATOM    153  S   IDS d  61      17.744  39.872  53.859  0.00  0.00     0.252 S 
ATOM    154  O2  IDS d  61      17.081  38.226  54.040  0.00  0.00    -0.244 OA
ATOM    155  H   IDS d  61      17.585  38.735  51.457  0.00  0.00     0.134 H 
ATOM    156  H   IDS d  61      15.960  37.272  52.544  0.00  0.00     0.097 H 
ATOM    157  H   IDS d  61      15.721  35.190  52.738  0.00  0.00     0.210 HD
ATOM    158  H   IDS d  61      19.189  34.879  53.991  0.00  0.00     0.085 H 
ATOM    159  H   IDS d  61      17.039  35.850  54.535  0.00  0.00     0.093 H 
ENDROOT
TORSDOF 50
ENDMDL
MODEL 20
REMARK VINA RESULT:      -5.8      4.882     14.590
REMARK  0 active torsions:
REMARK  status: ('A' for Active; 'I' for Inactive)
REMARK       I    between atoms: O3S_3  and  S1_55 
REMARK       I    between atoms: O3_4  and  C3_87 
REMARK       I    between atoms: O4_5  and  C1_15 
REMARK       I    between atoms: O4_5  and  C4_57 
REMARK       I    between atoms: O4_7  and  C1_36 
REMARK       I    between atoms: O4_7  and  C4_89 
REMARK       I    between atoms: C4_8  and  O4_18 
REMARK       I    between atoms: C2_9  and  O2_84 
REMARK       I    between atoms: C6_10  and  C5_32 
REMARK       I    between atoms: C6_10  and  O6_102 
REMARK       I    between atoms: O6_11  and  C6_93 
REMARK       I    between atoms: O6_11  and  S2_25 
REMARK       I    between atoms: C1_13  and  O4_74 
REMARK       I    between atoms: C3_14  and  O3_71 
REMARK       I    between atoms: O4_18  and  C1_54 
REMARK       I    between atoms: S2_19  and  O6_39 
REMARK       I    between atoms: O2S_21  and  S1_45 
REMARK       I    between atoms: C5_22  and  C6_23 
REMARK       I    between atoms: C5_24  and  C6_77 
REMARK       I    between atoms: O1_27  and  C1_48 
REMARK       I    between atoms: C5_28  and  C6_30 
REMARK       I    between atoms: C5_29  and  C6_93 
REMARK       I    between atoms: O1S_31  and  S1_44 
REMARK       I    between atoms: C3_33  and  O3_69 
REMARK       I    between atoms: C2_37  and  N_99 
REMARK       I    between atoms: S2_38  and  O6_102 
REMARK       I    between atoms: O6_39  and  C6_77 
REMARK       I    between atoms: C2_40  and  O2_103 
REMARK       I    between atoms: O3S_42  and  S1_44 
REMARK       I    between atoms: S1_44  and  N_99 
REMARK       I    between atoms: S1_44  and  O2S_81 
REMARK       I    between atoms: S1_45  and  N_94 
REMARK       I    between atoms: S1_45  and  O1S_46 
REMARK       I    between atoms: S1_45  and  O3S_58 
REMARK       I    between atoms: O3_52  and  C3_105 
REMARK       I    between atoms: S1_55  and  N_100 
REMARK       I    between atoms: S1_55  and  O1S_79 
REMARK       I    between atoms: S1_55  and  O2S_83 
REMARK       I    between atoms: O3_56  and  C3_64 
REMARK       I    between atoms: C4_60  and  O4_61 
REMARK       I    between atoms: O4_61  and  C1_73 
REMARK       I    between atoms: C6_63  and  C5_80 
REMARK       I    between atoms: C3_65  and  O3_82 
REMARK       I    between atoms: S_67  and  O2_84 
REMARK       I    between atoms: C2_68  and  O2_98 
REMARK       I    between atoms: O4_74  and  C4_97 
REMARK       I    between atoms: C2_85  and  N_94 
REMARK       I    between atoms: C2_95  and  N_100 
REMARK       I    between atoms: O2_98  and  S_104 
REMARK       I    between atoms: S_101  and  O2_103 
ROOT
ATOM      1  O6S SGN d  66      23.915  44.928  36.424  0.00  0.00    -0.572 OA
ATOM      2  C4  SGN d  66      21.326  40.989  35.601  0.00  0.00     0.095 C 
ATOM      3  C6  SGN d  66      20.571  43.330  35.031  0.00  0.00     0.067 C 
ATOM      4  O4  SGN d  66      20.716  41.124  36.970  0.00  0.00    -0.348 OA
ATOM      5  O5S SGN d  66      21.710  45.498  37.109  0.00  0.00    -0.572 OA
ATOM      6  O2S SGN d  66      22.992  38.250  30.889  0.00  0.00    -0.296 OA
ATOM      7  O5  SGN d  66      21.142  41.695  33.255  0.00  0.00    -0.350 OA
ATOM      8  O1  SGN d  66      19.835  39.744  32.726  0.00  0.00    -0.369 OA
ATOM      9  C5  SGN d  66      20.555  41.854  34.592  0.00  0.00     0.091 C 
ATOM     10  S2  SGN d  66      22.577  44.418  36.646  0.00  0.00     0.251 S 
ATOM     11  S1  SGN d  66      21.935  37.568  31.609  0.00  0.00     0.156 S 
ATOM     12  O1S SGN d  66      22.101  36.123  31.557  0.00  0.00    -0.296 OA
ATOM     13  C1  SGN d  66      21.158  40.314  32.760  0.00  0.00     0.147 C 
ATOM     14  O3S SGN d  66      20.632  37.878  31.042  0.00  0.00    -0.296 OA
ATOM     15  C3  SGN d  66      21.392  39.524  35.139  0.00  0.00     0.083 C 
ATOM     16  O3  SGN d  66      22.251  38.792  36.012  0.00  0.00    -0.391 OA
ATOM     17  C2  SGN d  66      22.004  39.473  33.737  0.00  0.00     0.081 C 
ATOM     18  O4S SGN d  66      22.634  43.338  37.621  0.00  0.00    -0.572 OA
ATOM     19  N   SGN d  66      22.065  38.066  33.316  0.00  0.00    -0.210 NA
ATOM     20  O6  SGN d  66      21.928  43.829  35.096  0.00  0.00    -0.254 OA
ATOM     21  H   SGN d  66      22.336  41.339  35.657  0.00  0.00     0.091 H 
ATOM     22  H   SGN d  66      20.120  43.413  35.998  0.00  0.00     0.080 H 
ATOM     23  H   SGN d  66      20.026  43.909  34.315  0.00  0.00     0.080 H 
ATOM     24  H   SGN d  66      23.849  38.029  31.286  0.00  0.00     0.231 HD
ATOM     25  H   SGN d  66      19.278  40.254  32.118  0.00  0.00     0.212 HD
ATOM     26  H   SGN d  66      19.534  41.533  34.557  0.00  0.00     0.090 H 
ATOM     27  H   SGN d  66      22.964  35.883  31.929  0.00  0.00     0.231 HD
ATOM     28  H   SGN d  66      21.556  40.315  31.767  0.00  0.00     0.131 H 
ATOM     29  H   SGN d  66      20.489  38.837  31.062  0.00  0.00     0.231 HD
ATOM     30  H   SGN d  66      20.407  39.106  35.143  0.00  0.00     0.089 H 
ATOM     31  H   SGN d  66      23.138  39.184  35.995  0.00  0.00     0.210 HD
ATOM     32  H   SGN d  66      22.993  39.886  33.741  0.00  0.00     0.076 H 
ATOM     33  H   SGN d  66      22.962  37.710  33.647  0.00  0.00     0.140 HD
ATOM     34  O61 IDS d  65      19.135  36.519  37.634  0.00  0.00    -0.646 OA
ATOM     35  O3  IDS d  65      17.220  41.144  39.349  0.00  0.00    -0.390 OA
ATOM     36  C5  IDS d  65      19.737  38.817  37.888  0.00  0.00     0.152 C 
ATOM     37  C6  IDS d  65      20.074  37.303  37.918  0.00  0.00     0.206 C 
ATOM     38  O5  IDS d  65      20.921  39.550  38.330  0.00  0.00    -0.340 OA
ATOM     39  C1  IDS d  65      20.803  40.996  38.381  0.00  0.00     0.161 C 
ATOM     40  O1S IDS d  65      16.997  44.080  39.487  0.00  0.00    -0.572 OA
ATOM     41  C4  IDS d  65      18.464  39.212  38.715  0.00  0.00     0.103 C 
ATOM     42  O4  IDS d  65      18.090  37.960  39.296  0.00  0.00    -0.348 OA
ATOM     43  C2  IDS d  65      19.339  41.526  38.419  0.00  0.00     0.134 C 
ATOM     44  O62 IDS d  65      21.254  36.934  38.197  0.00  0.00    -0.646 OA
ATOM     45  C3  IDS d  65      18.518  40.641  39.301  0.00  0.00     0.094 C 
ATOM     46  O2S IDS d  65      17.357  43.177  37.310  0.00  0.00    -0.572 OA
ATOM     47  O3S IDS d  65      18.505  45.151  37.956  0.00  0.00    -0.572 OA
ATOM     48  O2  IDS d  65      19.296  42.821  38.999  0.00  0.00    -0.244 OA
ATOM     49  S   IDS d  65      17.976  43.872  38.421  0.00  0.00     0.252 S 
ATOM     50  H   IDS d  65      16.675  40.578  39.919  0.00  0.00     0.210 HD
ATOM     51  H   IDS d  65      19.483  39.081  36.883  0.00  0.00     0.104 H 
ATOM     52  H   IDS d  65      21.471  41.406  39.110  0.00  0.00     0.133 H 
ATOM     53  H   IDS d  65      17.531  39.535  38.302  0.00  0.00     0.092 H 
ATOM     54  H   IDS d  65      18.968  41.548  37.415  0.00  0.00     0.097 H 
ATOM     55  H   IDS d  65      18.954  40.611  40.278  0.00  0.00     0.091 H 
ATOM     56  O3S SGN d  62      21.018  32.798  46.266  0.00  0.00    -0.296 OA
ATOM     57  C1  SGN d  62      17.903  33.701  47.513  0.00  0.00     0.150 C 
ATOM     58  S2  SGN d  62      13.221  35.068  50.915  0.00  0.00     0.251 S 
ATOM     59  C5  SGN d  62      16.218  33.472  49.333  0.00  0.00     0.091 C 
ATOM     60  O5  SGN d  62      17.271  34.261  48.708  0.00  0.00    -0.349 OA
ATOM     61  O4S SGN d  62      13.431  35.789  52.127  0.00  0.00    -0.572 OA
ATOM     62  O6  SGN d  62      14.396  33.783  50.770  0.00  0.00    -0.254 OA
ATOM     63  O3  SGN d  62      17.669  30.138  48.606  0.00  0.00    -0.391 OA
ATOM     64  S1  SGN d  62      20.391  31.497  46.264  0.00  0.00     0.156 S 
ATOM     65  O6S SGN d  62      13.288  35.917  49.728  0.00  0.00    -0.572 OA
ATOM     66  O4  SGN d  62      15.704  31.355  50.337  0.00  0.00    -0.348 OA
ATOM     67  C6  SGN d  62      15.723  34.223  50.546  0.00  0.00     0.067 C 
ATOM     68  O5S SGN d  62      11.938  34.421  50.935  0.00  0.00    -0.572 OA
ATOM     69  O1S SGN d  62      20.551  30.822  44.993  0.00  0.00    -0.296 OA
ATOM     70  O2S SGN d  62      20.937  30.743  47.356  0.00  0.00    -0.296 OA
ATOM     71  C2  SGN d  62      18.322  32.268  47.808  0.00  0.00     0.081 C 
ATOM     72  C4  SGN d  62      16.761  32.086  49.719  0.00  0.00     0.095 C 
ATOM     73  N   SGN d  62      18.680  31.636  46.578  0.00  0.00    -0.210 NA
ATOM     74  C3  SGN d  62      17.177  31.434  48.391  0.00  0.00     0.083 C 
ATOM     75  H   SGN d  62      20.664  33.328  45.535  0.00  0.00     0.231 HD
ATOM     76  H   SGN d  62      18.732  34.337  47.285  0.00  0.00     0.131 H 
ATOM     77  H   SGN d  62      15.405  33.323  48.653  0.00  0.00     0.090 H 
ATOM     78  H   SGN d  62      17.925  29.745  47.757  0.00  0.00     0.210 HD
ATOM     79  H   SGN d  62      15.738  35.278  50.362  0.00  0.00     0.080 H 
ATOM     80  H   SGN d  62      16.344  34.040  51.398  0.00  0.00     0.080 H 
ATOM     81  H   SGN d  62      20.169  31.367  44.287  0.00  0.00     0.231 HD
ATOM     82  H   SGN d  62      20.807  31.232  48.184  0.00  0.00     0.231 HD
ATOM     83  H   SGN d  62      19.126  32.314  48.512  0.00  0.00     0.076 H 
ATOM     84  H   SGN d  62      17.585  32.123  50.402  0.00  0.00     0.091 H 
ATOM     85  H   SGN d  62      18.285  30.695  46.583  0.00  0.00     0.140 HD
ATOM     86  H   SGN d  62      16.330  31.388  47.739  0.00  0.00     0.089 H 
ATOM     87  O4  IDS d  63      17.054  33.680  46.358  0.00  0.00    -0.348 OA
ATOM     88  O62 IDS d  63      14.058  35.177  44.817  0.00  0.00    -0.646 OA
ATOM     89  C2  IDS d  63      18.085  32.761  43.574  0.00  0.00     0.134 C 
ATOM     90  O2S IDS d  63      17.784  29.803  42.679  0.00  0.00    -0.572 OA
ATOM     91  O61 IDS d  63      15.344  36.534  45.908  0.00  0.00    -0.646 OA
ATOM     92  C3  IDS d  63      18.696  33.866  44.446  0.00  0.00     0.094 C 
ATOM     93  C1  IDS d  63      16.959  33.351  42.681  0.00  0.00     0.161 C 
ATOM     94  O5  IDS d  63      15.919  33.858  43.555  0.00  0.00    -0.340 OA
ATOM     95  C4  IDS d  63      17.561  34.532  45.339  0.00  0.00     0.103 C 
ATOM     96  C6  IDS d  63      15.173  35.605  45.120  0.00  0.00     0.206 C 
ATOM     97  S   IDS d  63      16.831  30.355  43.633  0.00  0.00     0.252 S 
ATOM     98  O3  IDS d  63      19.215  34.805  43.532  0.00  0.00    -0.390 OA
ATOM     99  C5  IDS d  63      16.378  34.969  44.433  0.00  0.00     0.152 C 
ATOM    100  O2  IDS d  63      17.637  31.726  44.408  0.00  0.00    -0.244 OA
ATOM    101  O1S IDS d  63      16.520  29.428  44.706  0.00  0.00    -0.572 OA
ATOM    102  O3S IDS d  63      15.650  30.693  42.894  0.00  0.00    -0.572 OA
ATOM    103  H   IDS d  63      18.816  32.352  42.909  0.00  0.00     0.097 H 
ATOM    104  H   IDS d  63      19.449  33.496  45.111  0.00  0.00     0.091 H 
ATOM    105  H   IDS d  63      16.493  32.643  42.027  0.00  0.00     0.133 H 
ATOM    106  H   IDS d  63      18.021  35.369  45.823  0.00  0.00     0.092 H 
ATOM    107  H   IDS d  63      18.505  35.117  42.949  0.00  0.00     0.210 HD
ATOM    108  H   IDS d  63      16.814  35.759  43.858  0.00  0.00     0.104 H 
ATOM    109  O4  SGN d  64      17.602  34.388  41.877  0.00  0.00    -0.348 OA
ATOM    110  O6  SGN d  64      17.043  33.600  37.842  0.00  0.00    -0.254 OA
ATOM    111  C3  SGN d  64      16.814  36.656  41.409  0.00  0.00     0.083 C 
ATOM    112  S2  SGN d  64      15.263  33.492  37.900  0.00  0.00     0.251 S 
ATOM    113  C5  SGN d  64      17.645  35.157  39.597  0.00  0.00     0.091 C 
ATOM    114  O1S SGN d  64      13.497  39.700  40.966  0.00  0.00    -0.296 OA
ATOM    115  C2  SGN d  64      16.063  37.461  40.394  0.00  0.00     0.081 C 
ATOM    116  O4S SGN d  64      14.918  32.343  38.697  0.00  0.00    -0.572 OA
ATOM    117  O3S SGN d  64      14.300  38.466  42.825  0.00  0.00    -0.296 OA
ATOM    118  S1  SGN d  64      14.659  39.424  41.795  0.00  0.00     0.156 S 
ATOM    119  O6S SGN d  64      14.682  34.685  38.482  0.00  0.00    -0.572 OA
ATOM    120  O5S SGN d  64      14.771  33.336  36.558  0.00  0.00    -0.572 OA
ATOM    121  O3  SGN d  64      16.108  36.768  42.592  0.00  0.00    -0.391 OA
ATOM    122  C1  SGN d  64      16.798  37.390  39.081  0.00  0.00     0.150 C 
ATOM    123  O2S SGN d  64      15.149  40.626  42.413  0.00  0.00    -0.296 OA
ATOM    124  C4  SGN d  64      16.874  35.183  40.929  0.00  0.00     0.095 C 
ATOM    125  O5  SGN d  64      16.905  36.009  38.674  0.00  0.00    -0.349 OA
ATOM    126  C6  SGN d  64      17.735  33.739  39.074  0.00  0.00     0.067 C 
ATOM    127  N   SGN d  64      16.014  38.840  40.816  0.00  0.00    -0.210 NA
ATOM    128  H   SGN d  64      17.819  36.999  41.545  0.00  0.00     0.089 H 
ATOM    129  H   SGN d  64      18.649  35.511  39.715  0.00  0.00     0.090 H 
ATOM    130  H   SGN d  64      13.186  38.876  40.561  0.00  0.00     0.231 HD
ATOM    131  H   SGN d  64      15.071  37.076  40.292  0.00  0.00     0.076 H 
ATOM    132  H   SGN d  64      13.969  37.654  42.410  0.00  0.00     0.231 HD
ATOM    133  H   SGN d  64      15.200  36.456  42.457  0.00  0.00     0.210 HD
ATOM    134  H   SGN d  64      16.285  37.922  38.307  0.00  0.00     0.131 H 
ATOM    135  H   SGN d  64      14.455  41.008  42.972  0.00  0.00     0.231 HD
ATOM    136  H   SGN d  64      15.882  34.795  40.821  0.00  0.00     0.091 H 
ATOM    137  H   SGN d  64      18.763  33.485  38.927  0.00  0.00     0.080 H 
ATOM    138  H   SGN d  64      17.284  33.085  39.791  0.00  0.00     0.080 H 
ATOM    139  H   SGN d  64      16.030  39.407  39.968  0.00  0.00     0.140 HD
ATOM    140  C1  IDS d  61      16.062  30.756  51.599  0.00  0.00     0.167 C 
ATOM    141  O5  IDS d  61      17.071  29.737  51.376  0.00  0.00    -0.311 OA
ATOM    142  C5  IDS d  61      16.711  28.507  50.842  0.00  0.00     0.147 C 
ATOM    143  C6  IDS d  61      17.881  27.501  50.511  0.00  0.00     0.233 C 
ATOM    144  C2  IDS d  61      14.818  30.082  52.168  0.00  0.00     0.135 C 
ATOM    145  O1S IDS d  61      17.700  29.540  53.738  0.00  0.00    -0.572 OA
ATOM    146  O3S IDS d  61      16.460  31.399  54.641  0.00  0.00    -0.572 OA
ATOM    147  O3  IDS d  61      13.500  29.512  50.342  0.00  0.00    -0.389 OA
ATOM    148  C4  IDS d  61      15.410  28.123  50.715  0.00  0.00    -0.034 C 
ATOM    149  C3  IDS d  61      14.303  28.929  51.306  0.00  0.00     0.086 C 
ATOM    150  O61 IDS d  61      17.620  26.375  50.085  0.00  0.00    -0.642 OA
ATOM    151  O62 IDS d  61      19.073  27.838  50.713  0.00  0.00    -0.642 OA
ATOM    152  O2S IDS d  61      16.509  29.237  55.664  0.00  0.00    -0.572 OA
ATOM    153  S   IDS d  61      16.515  29.959  54.438  0.00  0.00     0.252 S 
ATOM    154  O2  IDS d  61      15.099  29.504  53.454  0.00  0.00    -0.244 OA
ATOM    155  H   IDS d  61      16.438  31.501  52.269  0.00  0.00     0.134 H 
ATOM    156  H   IDS d  61      14.083  30.859  52.214  0.00  0.00     0.097 H 
ATOM    157  H   IDS d  61      12.797  30.024  50.773  0.00  0.00     0.210 HD
ATOM    158  H   IDS d  61      15.185  27.257  50.200  0.00  0.00     0.085 H 
ATOM    159  H   IDS d  61      13.750  28.225  51.892  0.00  0.00     0.093 H 
ENDROOT
TORSDOF 50
ENDMDL
MODEL 21
REMARK VINA RESULT:      -5.8      2.961     16.142
REMARK  0 active torsions:
REMARK  status: ('A' for Active; 'I' for Inactive)
REMARK       I    between atoms: O3S_3  and  S1_55 
REMARK       I    between atoms: O3_4  and  C3_87 
REMARK       I    between atoms: O4_5  and  C1_15 
REMARK       I    between atoms: O4_5  and  C4_57 
REMARK       I    between atoms: O4_7  and  C1_36 
REMARK       I    between atoms: O4_7  and  C4_89 
REMARK       I    between atoms: C4_8  and  O4_18 
REMARK       I    between atoms: C2_9  and  O2_84 
REMARK       I    between atoms: C6_10  and  C5_32 
REMARK       I    between atoms: C6_10  and  O6_102 
REMARK       I    between atoms: O6_11  and  C6_93 
REMARK       I    between atoms: O6_11  and  S2_25 
REMARK       I    between atoms: C1_13  and  O4_74 
REMARK       I    between atoms: C3_14  and  O3_71 
REMARK       I    between atoms: O4_18  and  C1_54 
REMARK       I    between atoms: S2_19  and  O6_39 
REMARK       I    between atoms: O2S_21  and  S1_45 
REMARK       I    between atoms: C5_22  and  C6_23 
REMARK       I    between atoms: C5_24  and  C6_77 
REMARK       I    between atoms: O1_27  and  C1_48 
REMARK       I    between atoms: C5_28  and  C6_30 
REMARK       I    between atoms: C5_29  and  C6_93 
REMARK       I    between atoms: O1S_31  and  S1_44 
REMARK       I    between atoms: C3_33  and  O3_69 
REMARK       I    between atoms: C2_37  and  N_99 
REMARK       I    between atoms: S2_38  and  O6_102 
REMARK       I    between atoms: O6_39  and  C6_77 
REMARK       I    between atoms: C2_40  and  O2_103 
REMARK       I    between atoms: O3S_42  and  S1_44 
REMARK       I    between atoms: S1_44  and  N_99 
REMARK       I    between atoms: S1_44  and  O2S_81 
REMARK       I    between atoms: S1_45  and  N_94 
REMARK       I    between atoms: S1_45  and  O1S_46 
REMARK       I    between atoms: S1_45  and  O3S_58 
REMARK       I    between atoms: O3_52  and  C3_105 
REMARK       I    between atoms: S1_55  and  N_100 
REMARK       I    between atoms: S1_55  and  O1S_79 
REMARK       I    between atoms: S1_55  and  O2S_83 
REMARK       I    between atoms: O3_56  and  C3_64 
REMARK       I    between atoms: C4_60  and  O4_61 
REMARK       I    between atoms: O4_61  and  C1_73 
REMARK       I    between atoms: C6_63  and  C5_80 
REMARK       I    between atoms: C3_65  and  O3_82 
REMARK       I    between atoms: S_67  and  O2_84 
REMARK       I    between atoms: C2_68  and  O2_98 
REMARK       I    between atoms: O4_74  and  C4_97 
REMARK       I    between atoms: C2_85  and  N_94 
REMARK       I    between atoms: C2_95  and  N_100 
REMARK       I    between atoms: O2_98  and  S_104 
REMARK       I    between atoms: S_101  and  O2_103 
ROOT
ATOM      1  O6S SGN d  66      24.465  37.849  31.569  0.00  0.00    -0.572 OA
ATOM      2  C4  SGN d  66      21.275  34.959  33.659  0.00  0.00     0.095 C 
ATOM      3  C6  SGN d  66      20.763  36.451  31.687  0.00  0.00     0.067 C 
ATOM      4  O4  SGN d  66      20.905  36.074  34.599  0.00  0.00    -0.348 OA
ATOM      5  O5S SGN d  66      22.488  39.158  31.749  0.00  0.00    -0.572 OA
ATOM      6  O2S SGN d  66      21.813  29.548  31.954  0.00  0.00    -0.296 OA
ATOM      7  O5  SGN d  66      20.829  33.982  31.450  0.00  0.00    -0.350 OA
ATOM      8  O1  SGN d  66      19.206  32.477  32.395  0.00  0.00    -0.369 OA
ATOM      9  C5  SGN d  66      20.480  35.089  32.350  0.00  0.00     0.091 C 
ATOM     10  S2  SGN d  66      23.120  37.892  32.107  0.00  0.00     0.251 S 
ATOM     11  S1  SGN d  66      20.797  29.734  32.972  0.00  0.00     0.156 S 
ATOM     12  O1S SGN d  66      20.757  28.611  33.897  0.00  0.00    -0.296 OA
ATOM     13  C1  SGN d  66      20.583  32.648  32.006  0.00  0.00     0.147 C 
ATOM     14  O3S SGN d  66      19.476  29.854  32.375  0.00  0.00    -0.296 OA
ATOM     15  C3  SGN d  66      21.071  33.574  34.295  0.00  0.00     0.083 C 
ATOM     16  O3  SGN d  66      21.948  33.435  35.412  0.00  0.00    -0.391 OA
ATOM     17  C2  SGN d  66      21.448  32.499  33.274  0.00  0.00     0.081 C 
ATOM     18  O4S SGN d  66      23.181  37.728  33.553  0.00  0.00    -0.572 OA
ATOM     19  N   SGN d  66      21.254  31.185  33.902  0.00  0.00    -0.210 NA
ATOM     20  O6  SGN d  66      22.168  36.583  31.367  0.00  0.00    -0.254 OA
ATOM     21  H   SGN d  66      22.318  35.047  33.441  0.00  0.00     0.091 H 
ATOM     22  H   SGN d  66      20.481  37.234  32.360  0.00  0.00     0.080 H 
ATOM     23  H   SGN d  66      20.196  36.517  30.781  0.00  0.00     0.080 H 
ATOM     24  H   SGN d  66      22.683  29.472  32.377  0.00  0.00     0.231 HD
ATOM     25  H   SGN d  66      18.636  32.565  31.616  0.00  0.00     0.212 HD
ATOM     26  H   SGN d  66      19.433  35.039  32.563  0.00  0.00     0.090 H 
ATOM     27  H   SGN d  66      21.627  28.503  34.312  0.00  0.00     0.231 HD
ATOM     28  H   SGN d  66      20.819  31.920  31.259  0.00  0.00     0.131 H 
ATOM     29  H   SGN d  66      19.468  30.596  31.751  0.00  0.00     0.231 HD
ATOM     30  H   SGN d  66      20.051  33.472  34.602  0.00  0.00     0.089 H 
ATOM     31  H   SGN d  66      22.866  33.531  35.115  0.00  0.00     0.210 HD
ATOM     32  H   SGN d  66      22.472  32.603  32.976  0.00  0.00     0.076 H 
ATOM     33  H   SGN d  66      22.134  30.959  34.364  0.00  0.00     0.140 HD
ATOM     34  O61 IDS d  65      18.841  33.464  38.215  0.00  0.00    -0.646 OA
ATOM     35  O3  IDS d  65      17.851  38.349  36.438  0.00  0.00    -0.390 OA
ATOM     36  C5  IDS d  65      19.779  35.186  36.849  0.00  0.00     0.152 C 
ATOM     37  C6  IDS d  65      19.909  34.032  37.878  0.00  0.00     0.206 C 
ATOM     38  O5  IDS d  65      21.104  35.770  36.658  0.00  0.00    -0.340 OA
ATOM     39  C1  IDS d  65      21.190  36.883  35.731  0.00  0.00     0.161 C 
ATOM     40  O1S IDS d  65      18.049  40.629  34.580  0.00  0.00    -0.572 OA
ATOM     41  C4  IDS d  65      18.712  36.272  37.230  0.00  0.00     0.103 C 
ATOM     42  O4  IDS d  65      18.267  35.813  38.509  0.00  0.00    -0.348 OA
ATOM     43  C2  IDS d  65      19.834  37.593  35.439  0.00  0.00     0.134 C 
ATOM     44  O62 IDS d  65      21.058  33.705  38.303  0.00  0.00    -0.646 OA
ATOM     45  C3  IDS d  65      19.047  37.688  36.707  0.00  0.00     0.094 C 
ATOM     46  O2S IDS d  65      17.946  38.476  33.560  0.00  0.00    -0.572 OA
ATOM     47  O3S IDS d  65      19.434  40.107  32.689  0.00  0.00    -0.572 OA
ATOM     48  O2  IDS d  65      20.055  38.925  35.005  0.00  0.00    -0.244 OA
ATOM     49  S   IDS d  65      18.815  39.584  33.903  0.00  0.00     0.252 S 
ATOM     50  H   IDS d  65      17.329  38.418  37.253  0.00  0.00     0.210 HD
ATOM     51  H   IDS d  65      19.410  34.775  35.933  0.00  0.00     0.104 H 
ATOM     52  H   IDS d  65      22.011  37.523  35.981  0.00  0.00     0.133 H 
ATOM     53  H   IDS d  65      17.779  36.428  36.730  0.00  0.00     0.092 H 
ATOM     54  H   IDS d  65      19.320  37.029  34.690  0.00  0.00     0.097 H 
ATOM     55  H   IDS d  65      19.620  38.215  37.441  0.00  0.00     0.091 H 
ATOM     56  O3S SGN d  62      21.511  35.995  47.068  0.00  0.00    -0.296 OA
ATOM     57  C1  SGN d  62      18.774  38.099  47.465  0.00  0.00     0.150 C 
ATOM     58  S2  SGN d  62      14.897  42.266  49.190  0.00  0.00     0.251 S 
ATOM     59  C5  SGN d  62      17.373  39.461  49.010  0.00  0.00     0.091 C 
ATOM     60  O5  SGN d  62      18.414  39.416  47.993  0.00  0.00    -0.349 OA
ATOM     61  O4S SGN d  62      15.386  43.540  49.602  0.00  0.00    -0.572 OA
ATOM     62  O6  SGN d  62      15.852  40.994  49.914  0.00  0.00    -0.254 OA
ATOM     63  O3  SGN d  62      18.234  36.257  50.668  0.00  0.00    -0.391 OA
ATOM     64  S1  SGN d  62      20.722  35.171  47.953  0.00  0.00     0.156 S 
ATOM     65  O6S SGN d  62      14.894  42.098  47.739  0.00  0.00    -0.572 OA
ATOM     66  O4  SGN d  62      16.740  38.673  51.186  0.00  0.00    -0.348 OA
ATOM     67  C6  SGN d  62      17.176  40.901  49.420  0.00  0.00     0.067 C 
ATOM     68  O5S SGN d  62      13.557  42.066  49.670  0.00  0.00    -0.572 OA
ATOM     69  O1S SGN d  62      20.592  33.817  47.457  0.00  0.00    -0.296 OA
ATOM     70  O2S SGN d  62      21.322  35.221  49.255  0.00  0.00    -0.296 OA
ATOM     71  C2  SGN d  62      19.037  37.160  48.634  0.00  0.00     0.081 C 
ATOM     72  C4  SGN d  62      17.778  38.590  50.212  0.00  0.00     0.095 C 
ATOM     73  N   SGN d  62      19.113  35.824  48.135  0.00  0.00    -0.210 NA
ATOM     74  C3  SGN d  62      17.894  37.163  49.653  0.00  0.00     0.083 C 
ATOM     75  H   SGN d  62      21.123  35.977  46.179  0.00  0.00     0.231 HD
ATOM     76  H   SGN d  62      19.636  38.247  46.850  0.00  0.00     0.131 H 
ATOM     77  H   SGN d  62      16.453  39.073  48.626  0.00  0.00     0.090 H 
ATOM     78  H   SGN d  62      18.301  35.364  50.295  0.00  0.00     0.210 HD
ATOM     79  H   SGN d  62      17.304  41.548  48.577  0.00  0.00     0.080 H 
ATOM     80  H   SGN d  62      17.890  41.196  50.160  0.00  0.00     0.080 H 
ATOM     81  H   SGN d  62      20.183  33.832  46.578  0.00  0.00     0.231 HD
ATOM     82  H   SGN d  62      21.388  36.145  49.545  0.00  0.00     0.231 HD
ATOM     83  H   SGN d  62      19.939  37.490  49.105  0.00  0.00     0.076 H 
ATOM     84  H   SGN d  62      18.695  38.895  50.674  0.00  0.00     0.091 H 
ATOM     85  H   SGN d  62      18.601  35.220  48.778  0.00  0.00     0.140 HD
ATOM     86  H   SGN d  62      16.958  36.876  49.221  0.00  0.00     0.089 H 
ATOM     87  O4  IDS d  63      17.763  37.502  46.643  0.00  0.00    -0.348 OA
ATOM     88  O62 IDS d  63      14.794  38.199  44.570  0.00  0.00    -0.646 OA
ATOM     89  C2  IDS d  63      18.221  34.807  45.166  0.00  0.00     0.134 C 
ATOM     90  O2S IDS d  63      17.391  32.123  46.490  0.00  0.00    -0.572 OA
ATOM     91  O61 IDS d  63      16.403  39.640  44.440  0.00  0.00    -0.646 OA
ATOM     92  C3  IDS d  63      19.101  36.059  45.059  0.00  0.00     0.094 C 
ATOM     93  C1  IDS d  63      17.061  34.883  44.136  0.00  0.00     0.161 C 
ATOM     94  O5  IDS d  63      16.245  36.035  44.471  0.00  0.00    -0.340 OA
ATOM     95  C4  IDS d  63      18.217  37.357  45.303  0.00  0.00     0.103 C 
ATOM     96  C6  IDS d  63      15.990  38.482  44.481  0.00  0.00     0.206 C 
ATOM     97  S   IDS d  63      16.679  33.342  46.852  0.00  0.00     0.252 S 
ATOM     98  O3  IDS d  63      19.596  36.043  43.738  0.00  0.00    -0.390 OA
ATOM     99  C5  IDS d  63      16.979  37.325  44.367  0.00  0.00     0.152 C 
ATOM    100  O2  IDS d  63      17.771  34.685  46.490  0.00  0.00    -0.244 OA
ATOM    101  O1S IDS d  63      16.415  33.427  48.277  0.00  0.00    -0.572 OA
ATOM    102  O3S IDS d  63      15.455  33.346  46.106  0.00  0.00    -0.572 OA
ATOM    103  H   IDS d  63      18.779  33.926  44.928  0.00  0.00     0.097 H 
ATOM    104  H   IDS d  63      19.891  36.070  45.781  0.00  0.00     0.091 H 
ATOM    105  H   IDS d  63      16.409  34.034  44.136  0.00  0.00     0.133 H 
ATOM    106  H   IDS d  63      18.854  38.192  45.091  0.00  0.00     0.092 H 
ATOM    107  H   IDS d  63      18.852  36.035  43.115  0.00  0.00     0.210 HD
ATOM    108  H   IDS d  63      17.423  37.440  43.401  0.00  0.00     0.104 H 
ATOM    109  O4  SGN d  64      17.706  34.986  42.829  0.00  0.00    -0.348 OA
ATOM    110  O6  SGN d  64      16.432  31.892  40.375  0.00  0.00    -0.254 OA
ATOM    111  C3  SGN d  64      17.168  36.497  40.982  0.00  0.00     0.083 C 
ATOM    112  S2  SGN d  64      14.685  32.212  40.535  0.00  0.00     0.251 S 
ATOM    113  C5  SGN d  64      17.501  34.051  40.621  0.00  0.00     0.091 C 
ATOM    114  O1S SGN d  64      14.261  39.104  38.696  0.00  0.00    -0.296 OA
ATOM    115  C2  SGN d  64      16.385  36.575  39.708  0.00  0.00     0.081 C 
ATOM    116  O4S SGN d  64      14.315  31.962  41.904  0.00  0.00    -0.572 OA
ATOM    117  O3S SGN d  64      15.167  39.252  40.884  0.00  0.00    -0.296 OA
ATOM    118  S1  SGN d  64      15.489  39.208  39.468  0.00  0.00     0.156 S 
ATOM    119  O6S SGN d  64      14.365  33.580  40.182  0.00  0.00    -0.572 OA
ATOM    120  O5S SGN d  64      13.976  31.322  39.655  0.00  0.00    -0.572 OA
ATOM    121  O3  SGN d  64      16.673  37.493  41.802  0.00  0.00    -0.391 OA
ATOM    122  C1  SGN d  64      16.893  35.518  38.763  0.00  0.00     0.150 C 
ATOM    123  O2S SGN d  64      16.225  40.389  39.110  0.00  0.00    -0.296 OA
ATOM    124  C4  SGN d  64      16.954  35.096  41.611  0.00  0.00     0.095 C 
ATOM    125  O5  SGN d  64      16.749  34.222  39.384  0.00  0.00    -0.349 OA
ATOM    126  C6  SGN d  64      17.318  32.657  41.180  0.00  0.00     0.067 C 
ATOM    127  N   SGN d  64      16.587  37.867  39.099  0.00  0.00    -0.210 NA
ATOM    128  H   SGN d  64      18.218  36.632  40.829  0.00  0.00     0.089 H 
ATOM    129  H   SGN d  64      18.549  34.184  40.447  0.00  0.00     0.090 H 
ATOM    130  H   SGN d  64      13.783  38.301  38.955  0.00  0.00     0.231 HD
ATOM    131  H   SGN d  64      15.345  36.428  39.915  0.00  0.00     0.076 H 
ATOM    132  H   SGN d  64      14.670  38.455  41.127  0.00  0.00     0.231 HD
ATOM    133  H   SGN d  64      15.721  37.362  41.933  0.00  0.00     0.210 HD
ATOM    134  H   SGN d  64      16.343  35.506  37.845  0.00  0.00     0.131 H 
ATOM    135  H   SGN d  64      15.683  41.173  39.286  0.00  0.00     0.231 HD
ATOM    136  H   SGN d  64      15.915  34.944  41.815  0.00  0.00     0.091 H 
ATOM    137  H   SGN d  64      18.268  32.167  41.216  0.00  0.00     0.080 H 
ATOM    138  H   SGN d  64      16.898  32.738  42.161  0.00  0.00     0.080 H 
ATOM    139  H   SGN d  64      16.548  37.725  38.090  0.00  0.00     0.140 HD
ATOM    140  C1  IDS d  61      17.203  38.986  52.516  0.00  0.00     0.167 C 
ATOM    141  O5  IDS d  61      18.020  37.892  53.008  0.00  0.00    -0.311 OA
ATOM    142  C5  IDS d  61      17.420  36.718  53.444  0.00  0.00     0.147 C 
ATOM    143  C6  IDS d  61      18.380  35.530  53.843  0.00  0.00     0.233 C 
ATOM    144  C2  IDS d  61      15.982  39.117  53.420  0.00  0.00     0.135 C 
ATOM    145  O1S IDS d  61      18.973  39.161  54.877  0.00  0.00    -0.572 OA
ATOM    146  O3S IDS d  61      18.147  41.360  54.333  0.00  0.00    -0.572 OA
ATOM    147  O3  IDS d  61      14.335  37.777  52.478  0.00  0.00    -0.389 OA
ATOM    148  C4  IDS d  61      16.076  36.619  53.639  0.00  0.00    -0.034 C 
ATOM    149  C3  IDS d  61      15.191  37.817  53.565  0.00  0.00     0.086 C 
ATOM    150  O61 IDS d  61      17.907  34.484  54.287  0.00  0.00    -0.642 OA
ATOM    151  O62 IDS d  61      19.623  35.667  53.738  0.00  0.00    -0.642 OA
ATOM    152  O2S IDS d  61      18.062  40.437  56.539  0.00  0.00    -0.572 OA
ATOM    153  S   IDS d  61      17.976  40.164  55.145  0.00  0.00     0.252 S 
ATOM    154  O2  IDS d  61      16.377  39.477  54.755  0.00  0.00    -0.244 OA
ATOM    155  H   IDS d  61      17.775  39.891  52.505  0.00  0.00     0.134 H 
ATOM    156  H   IDS d  61      15.375  39.863  52.952  0.00  0.00     0.097 H 
ATOM    157  H   IDS d  61      13.782  38.574  52.473  0.00  0.00     0.210 HD
ATOM    158  H   IDS d  61      15.660  35.696  53.842  0.00  0.00     0.085 H 
ATOM    159  H   IDS d  61      14.646  37.797  54.485  0.00  0.00     0.093 H 
ENDROOT
TORSDOF 50
ENDMDL
MODEL 22
REMARK VINA RESULT:      -5.8      3.263      5.367
REMARK  0 active torsions:
REMARK  status: ('A' for Active; 'I' for Inactive)
REMARK       I    between atoms: O3S_3  and  S1_55 
REMARK       I    between atoms: O3_4  and  C3_87 
REMARK       I    between atoms: O4_5  and  C1_15 
REMARK       I    between atoms: O4_5  and  C4_57 
REMARK       I    between atoms: O4_7  and  C1_36 
REMARK       I    between atoms: O4_7  and  C4_89 
REMARK       I    between atoms: C4_8  and  O4_18 
REMARK       I    between atoms: C2_9  and  O2_84 
REMARK       I    between atoms: C6_10  and  C5_32 
REMARK       I    between atoms: C6_10  and  O6_102 
REMARK       I    between atoms: O6_11  and  C6_93 
REMARK       I    between atoms: O6_11  and  S2_25 
REMARK       I    between atoms: C1_13  and  O4_74 
REMARK       I    between atoms: C3_14  and  O3_71 
REMARK       I    between atoms: O4_18  and  C1_54 
REMARK       I    between atoms: S2_19  and  O6_39 
REMARK       I    between atoms: O2S_21  and  S1_45 
REMARK       I    between atoms: C5_22  and  C6_23 
REMARK       I    between atoms: C5_24  and  C6_77 
REMARK       I    between atoms: O1_27  and  C1_48 
REMARK       I    between atoms: C5_28  and  C6_30 
REMARK       I    between atoms: C5_29  and  C6_93 
REMARK       I    between atoms: O1S_31  and  S1_44 
REMARK       I    between atoms: C3_33  and  O3_69 
REMARK       I    between atoms: C2_37  and  N_99 
REMARK       I    between atoms: S2_38  and  O6_102 
REMARK       I    between atoms: O6_39  and  C6_77 
REMARK       I    between atoms: C2_40  and  O2_103 
REMARK       I    between atoms: O3S_42  and  S1_44 
REMARK       I    between atoms: S1_44  and  N_99 
REMARK       I    between atoms: S1_44  and  O2S_81 
REMARK       I    between atoms: S1_45  and  N_94 
REMARK       I    between atoms: S1_45  and  O1S_46 
REMARK       I    between atoms: S1_45  and  O3S_58 
REMARK       I    between atoms: O3_52  and  C3_105 
REMARK       I    between atoms: S1_55  and  N_100 
REMARK       I    between atoms: S1_55  and  O1S_79 
REMARK       I    between atoms: S1_55  and  O2S_83 
REMARK       I    between atoms: O3_56  and  C3_64 
REMARK       I    between atoms: C4_60  and  O4_61 
REMARK       I    between atoms: O4_61  and  C1_73 
REMARK       I    between atoms: C6_63  and  C5_80 
REMARK       I    between atoms: C3_65  and  O3_82 
REMARK       I    between atoms: S_67  and  O2_84 
REMARK       I    between atoms: C2_68  and  O2_98 
REMARK       I    between atoms: O4_74  and  C4_97 
REMARK       I    between atoms: C2_85  and  N_94 
REMARK       I    between atoms: C2_95  and  N_100 
REMARK       I    between atoms: O2_98  and  S_104 
REMARK       I    between atoms: S_101  and  O2_103 
ROOT
ATOM      1  O6S SGN d  66      19.817  35.992  53.125  0.00  0.00    -0.572 OA
ATOM      2  C4  SGN d  66      16.816  36.122  49.400  0.00  0.00     0.095 C 
ATOM      3  C6  SGN d  66      16.552  34.584  51.384  0.00  0.00     0.067 C 
ATOM      4  O4  SGN d  66      17.658  35.085  48.707  0.00  0.00    -0.348 OA
ATOM      5  O5S SGN d  66      19.388  33.710  52.612  0.00  0.00    -0.572 OA
ATOM      6  O2S SGN d  66      13.121  40.446  49.748  0.00  0.00    -0.296 OA
ATOM      7  O5  SGN d  66      14.978  36.460  50.993  0.00  0.00    -0.350 OA
ATOM      8  O1  SGN d  66      13.379  36.547  49.196  0.00  0.00    -0.369 OA
ATOM      9  C5  SGN d  66      15.811  35.441  50.342  0.00  0.00     0.091 C 
ATOM     10  S2  SGN d  66      19.182  35.091  52.185  0.00  0.00     0.251 S 
ATOM     11  S1  SGN d  66      12.995  39.677  48.526  0.00  0.00     0.156 S 
ATOM     12  O1S SGN d  66      12.673  40.529  47.391  0.00  0.00    -0.296 OA
ATOM     13  C1  SGN d  66      14.231  37.318  50.066  0.00  0.00     0.147 C 
ATOM     14  O3S SGN d  66      11.938  38.684  48.639  0.00  0.00    -0.296 OA
ATOM     15  C3  SGN d  66      16.102  37.048  48.402  0.00  0.00     0.083 C 
ATOM     16  O3  SGN d  66      17.074  37.783  47.660  0.00  0.00    -0.391 OA
ATOM     17  C2  SGN d  66      15.255  38.058  49.182  0.00  0.00     0.081 C 
ATOM     18  O4S SGN d  66      19.738  35.316  50.858  0.00  0.00    -0.572 OA
ATOM     19  N   SGN d  66      14.587  38.937  48.212  0.00  0.00    -0.210 NA
ATOM     20  O6  SGN d  66      17.429  35.404  52.191  0.00  0.00    -0.254 OA
ATOM     21  H   SGN d  66      17.470  36.740  49.979  0.00  0.00     0.091 H 
ATOM     22  H   SGN d  66      17.133  33.841  50.879  0.00  0.00     0.080 H 
ATOM     23  H   SGN d  66      15.830  34.119  52.024  0.00  0.00     0.080 H 
ATOM     24  H   SGN d  66      13.831  41.099  49.648  0.00  0.00     0.231 HD
ATOM     25  H   SGN d  66      12.723  36.070  49.726  0.00  0.00     0.212 HD
ATOM     26  H   SGN d  66      15.176  34.793  49.775  0.00  0.00     0.090 H 
ATOM     27  H   SGN d  66      13.361  41.205  47.288  0.00  0.00     0.231 HD
ATOM     28  H   SGN d  66      13.622  37.986  50.637  0.00  0.00     0.131 H 
ATOM     29  H   SGN d  66      12.123  38.098  49.390  0.00  0.00     0.231 HD
ATOM     30  H   SGN d  66      15.493  36.461  47.747  0.00  0.00     0.089 H 
ATOM     31  H   SGN d  66      17.616  38.308  48.270  0.00  0.00     0.210 HD
ATOM     32  H   SGN d  66      15.871  38.647  49.830  0.00  0.00     0.076 H 
ATOM     33  H   SGN d  66      15.229  39.710  48.041  0.00  0.00     0.140 HD
ATOM     34  O61 IDS d  65      16.226  35.820  44.063  0.00  0.00    -0.646 OA
ATOM     35  O3  IDS d  65      17.814  31.439  46.570  0.00  0.00    -0.390 OA
ATOM     36  C5  IDS d  65      17.325  35.097  46.059  0.00  0.00     0.152 C 
ATOM     37  C6  IDS d  65      17.140  36.090  44.881  0.00  0.00     0.206 C 
ATOM     38  O5  IDS d  65      18.481  35.533  46.838  0.00  0.00    -0.340 OA
ATOM     39  C1  IDS d  65      18.827  34.719  47.989  0.00  0.00     0.161 C 
ATOM     40  O1S IDS d  65      18.553  29.787  48.898  0.00  0.00    -0.572 OA
ATOM     41  C4  IDS d  65      17.446  33.595  45.624  0.00  0.00     0.103 C 
ATOM     42  O4  IDS d  65      17.415  33.697  44.198  0.00  0.00    -0.348 OA
ATOM     43  C2  IDS d  65      18.238  33.276  47.965  0.00  0.00     0.134 C 
ATOM     44  O62 IDS d  65      17.883  37.115  44.811  0.00  0.00    -0.646 OA
ATOM     45  C3  IDS d  65      18.316  32.738  46.572  0.00  0.00     0.094 C 
ATOM     46  O2S IDS d  65      16.727  31.282  49.236  0.00  0.00    -0.572 OA
ATOM     47  O3S IDS d  65      18.345  31.014  50.951  0.00  0.00    -0.572 OA
ATOM     48  O2  IDS d  65      19.019  32.409  48.773  0.00  0.00    -0.244 OA
ATOM     49  S   IDS d  65      18.131  31.047  49.507  0.00  0.00     0.252 S 
ATOM     50  H   IDS d  65      17.857  31.076  45.672  0.00  0.00     0.210 HD
ATOM     51  H   IDS d  65      16.437  35.120  46.655  0.00  0.00     0.104 H 
ATOM     52  H   IDS d  65      19.871  34.797  48.209  0.00  0.00     0.133 H 
ATOM     53  H   IDS d  65      16.710  32.838  45.793  0.00  0.00     0.092 H 
ATOM     54  H   IDS d  65      17.231  33.324  48.321  0.00  0.00     0.097 H 
ATOM     55  H   IDS d  65      19.333  32.756  46.240  0.00  0.00     0.091 H 
ATOM     56  O3S SGN d  62      23.330  36.084  37.631  0.00  0.00    -0.296 OA
ATOM     57  C1  SGN d  62      22.977  32.714  36.864  0.00  0.00     0.150 C 
ATOM     58  S2  SGN d  62      23.701  27.104  35.028  0.00  0.00     0.251 S 
ATOM     59  C5  SGN d  62      23.544  30.834  35.331  0.00  0.00     0.091 C 
ATOM     60  O5  SGN d  62      23.773  31.514  36.598  0.00  0.00    -0.349 OA
ATOM     61  O4S SGN d  62      24.984  26.495  35.149  0.00  0.00    -0.572 OA
ATOM     62  O6  SGN d  62      23.862  28.718  34.380  0.00  0.00    -0.254 OA
ATOM     63  O3  SGN d  62      22.853  33.869  33.315  0.00  0.00    -0.391 OA
ATOM     64  S1  SGN d  62      22.678  36.215  36.349  0.00  0.00     0.156 S 
ATOM     65  O6S SGN d  62      22.977  27.165  36.295  0.00  0.00    -0.572 OA
ATOM     66  O4  SGN d  62      23.568  31.096  32.946  0.00  0.00    -0.348 OA
ATOM     67  C6  SGN d  62      24.473  29.646  35.259  0.00  0.00     0.067 C 
ATOM     68  O5S SGN d  62      22.894  26.384  34.081  0.00  0.00    -0.572 OA
ATOM     69  O1S SGN d  62      21.548  37.118  36.408  0.00  0.00    -0.296 OA
ATOM     70  O2S SGN d  62      23.663  36.631  35.393  0.00  0.00    -0.296 OA
ATOM     71  C2  SGN d  62      23.073  33.640  35.659  0.00  0.00     0.081 C 
ATOM     72  C4  SGN d  62      23.790  31.805  34.163  0.00  0.00     0.095 C 
ATOM     73  N   SGN d  62      22.090  34.667  35.797  0.00  0.00    -0.210 NA
ATOM     74  C3  SGN d  62      22.751  32.923  34.345  0.00  0.00     0.083 C 
ATOM     75  H   SGN d  62      22.683  35.802  38.296  0.00  0.00     0.231 HD
ATOM     76  H   SGN d  62      23.378  33.149  37.755  0.00  0.00     0.131 H 
ATOM     77  H   SGN d  62      22.531  30.496  35.262  0.00  0.00     0.090 H 
ATOM     78  H   SGN d  62      22.190  34.564  33.448  0.00  0.00     0.210 HD
ATOM     79  H   SGN d  62      24.596  29.212  36.230  0.00  0.00     0.080 H 
ATOM     80  H   SGN d  62      25.444  29.931  34.912  0.00  0.00     0.080 H 
ATOM     81  H   SGN d  62      20.911  36.797  37.065  0.00  0.00     0.231 HD
ATOM     82  H   SGN d  62      24.398  35.998  35.389  0.00  0.00     0.231 HD
ATOM     83  H   SGN d  62      24.075  34.013  35.629  0.00  0.00     0.076 H 
ATOM     84  H   SGN d  62      24.783  32.205  34.140  0.00  0.00     0.091 H 
ATOM     85  H   SGN d  62      21.653  34.806  34.885  0.00  0.00     0.140 HD
ATOM     86  H   SGN d  62      21.769  32.497  34.340  0.00  0.00     0.089 H 
ATOM     87  O4  IDS d  63      21.588  32.453  37.106  0.00  0.00    -0.348 OA
ATOM     88  O62 IDS d  63      19.162  29.873  38.131  0.00  0.00    -0.646 OA
ATOM     89  C2  IDS d  63      19.606  34.705  37.912  0.00  0.00     0.134 C 
ATOM     90  O2S IDS d  63      17.970  36.216  35.746  0.00  0.00    -0.572 OA
ATOM     91  O61 IDS d  63      21.060  29.859  39.171  0.00  0.00    -0.646 OA
ATOM     92  C3  IDS d  63      20.914  34.351  38.631  0.00  0.00     0.094 C 
ATOM     93  C1  IDS d  63      18.443  33.834  38.462  0.00  0.00     0.161 C 
ATOM     94  O5  IDS d  63      18.753  32.447  38.171  0.00  0.00    -0.340 OA
ATOM     95  C4  IDS d  63      21.229  32.805  38.436  0.00  0.00     0.103 C 
ATOM     96  C6  IDS d  63      20.092  30.451  38.696  0.00  0.00     0.206 C 
ATOM     97  S   IDS d  63      18.402  34.849  35.483  0.00  0.00     0.252 S 
ATOM     98  O3  IDS d  63      20.668  34.634  39.991  0.00  0.00    -0.390 OA
ATOM     99  C5  IDS d  63      19.988  31.966  38.846  0.00  0.00     0.152 C 
ATOM    100  O2  IDS d  63      19.797  34.555  36.530  0.00  0.00    -0.244 OA
ATOM    101  O1S IDS d  63      18.886  34.671  34.127  0.00  0.00    -0.572 OA
ATOM    102  O3S IDS d  63      17.273  34.001  35.736  0.00  0.00    -0.572 OA
ATOM    103  H   IDS d  63      19.333  35.724  38.095  0.00  0.00     0.097 H 
ATOM    104  H   IDS d  63      21.752  34.898  38.253  0.00  0.00     0.091 H 
ATOM    105  H   IDS d  63      17.489  34.035  38.020  0.00  0.00     0.133 H 
ATOM    106  H   IDS d  63      22.074  32.595  39.059  0.00  0.00     0.092 H 
ATOM    107  H   IDS d  63      19.904  34.120  40.295  0.00  0.00     0.210 HD
ATOM    108  H   IDS d  63      19.941  32.134  39.901  0.00  0.00     0.104 H 
ATOM    109  O4  SGN d  64      18.377  34.129  39.891  0.00  0.00    -0.348 OA
ATOM    110  O6  SGN d  64      14.583  35.488  40.881  0.00  0.00    -0.254 OA
ATOM    111  C3  SGN d  64      18.161  32.564  41.758  0.00  0.00     0.083 C 
ATOM    112  S2  SGN d  64      13.689  34.096  40.215  0.00  0.00     0.251 S 
ATOM    113  C5  SGN d  64      16.725  34.596  41.577  0.00  0.00     0.091 C 
ATOM    114  O1S SGN d  64      16.859  28.590  43.484  0.00  0.00    -0.296 OA
ATOM    115  C2  SGN d  64      17.146  31.931  42.659  0.00  0.00     0.081 C 
ATOM    116  O4S SGN d  64      13.874  34.096  38.787  0.00  0.00    -0.572 OA
ATOM    117  O3S SGN d  64      18.485  29.175  41.858  0.00  0.00    -0.296 OA
ATOM    118  S1  SGN d  64      18.067  29.360  43.237  0.00  0.00     0.156 S 
ATOM    119  O6S SGN d  64      14.167  32.847  40.772  0.00  0.00    -0.572 OA
ATOM    120  O5S SGN d  64      12.296  34.252  40.538  0.00  0.00    -0.572 OA
ATOM    121  O3  SGN d  64      18.795  31.527  41.101  0.00  0.00    -0.391 OA
ATOM    122  C1  SGN d  64      16.430  33.017  43.419  0.00  0.00     0.150 C 
ATOM    123  O2S SGN d  64      19.129  28.952  44.115  0.00  0.00    -0.296 OA
ATOM    124  C4  SGN d  64      17.426  33.496  40.760  0.00  0.00     0.095 C 
ATOM    125  O5  SGN d  64      15.803  33.916  42.479  0.00  0.00    -0.349 OA
ATOM    126  C6  SGN d  64      15.985  35.539  40.653  0.00  0.00     0.067 C 
ATOM    127  N   SGN d  64      17.814  31.074  43.608  0.00  0.00    -0.210 NA
ATOM    128  H   SGN d  64      18.876  33.153  42.293  0.00  0.00     0.089 H 
ATOM    129  H   SGN d  64      17.428  35.185  42.130  0.00  0.00     0.090 H 
ATOM    130  H   SGN d  64      16.159  28.883  42.881  0.00  0.00     0.231 HD
ATOM    131  H   SGN d  64      16.454  31.360  42.076  0.00  0.00     0.076 H 
ATOM    132  H   SGN d  64      17.769  29.450  41.264  0.00  0.00     0.231 HD
ATOM    133  H   SGN d  64      18.138  30.999  40.620  0.00  0.00     0.210 HD
ATOM    134  H   SGN d  64      15.666  32.622  44.055  0.00  0.00     0.131 H 
ATOM    135  H   SGN d  64      19.326  28.014  43.968  0.00  0.00     0.231 HD
ATOM    136  H   SGN d  64      16.730  32.928  40.178  0.00  0.00     0.091 H 
ATOM    137  H   SGN d  64      16.330  36.537  40.825  0.00  0.00     0.080 H 
ATOM    138  H   SGN d  64      16.175  35.242  39.643  0.00  0.00     0.080 H 
ATOM    139  H   SGN d  64      17.270  31.111  44.470  0.00  0.00     0.140 HD
ATOM    140  C1  IDS d  61      24.635  31.227  31.985  0.00  0.00     0.167 C 
ATOM    141  O5  IDS d  61      24.714  32.607  31.544  0.00  0.00    -0.311 OA
ATOM    142  C5  IDS d  61      23.781  33.104  30.644  0.00  0.00     0.147 C 
ATOM    143  C6  IDS d  61      23.857  34.645  30.312  0.00  0.00     0.233 C 
ATOM    144  C2  IDS d  61      24.291  30.358  30.780  0.00  0.00     0.135 C 
ATOM    145  O1S IDS d  61      26.924  32.373  30.507  0.00  0.00    -0.572 OA
ATOM    146  O3S IDS d  61      27.495  30.160  31.273  0.00  0.00    -0.572 OA
ATOM    147  O3  IDS d  61      21.973  30.224  30.721  0.00  0.00    -0.389 OA
ATOM    148  C4  IDS d  61      22.910  32.295  29.978  0.00  0.00    -0.034 C 
ATOM    149  C3  IDS d  61      23.029  30.809  30.045  0.00  0.00     0.086 C 
ATOM    150  O61 IDS d  61      23.090  35.133  29.481  0.00  0.00    -0.642 OA
ATOM    151  O62 IDS d  61      24.722  35.364  30.871  0.00  0.00    -0.642 OA
ATOM    152  O2S IDS d  61      27.813  30.887  29.016  0.00  0.00    -0.572 OA
ATOM    153  S   IDS d  61      26.993  30.974  30.176  0.00  0.00     0.252 S 
ATOM    154  O2  IDS d  61      25.344  30.409  29.802  0.00  0.00    -0.244 OA
ATOM    155  H   IDS d  61      25.565  30.930  32.422  0.00  0.00     0.134 H 
ATOM    156  H   IDS d  61      24.146  29.377  31.183  0.00  0.00     0.097 H 
ATOM    157  H   IDS d  61      22.093  29.262  30.738  0.00  0.00     0.210 HD
ATOM    158  H   IDS d  61      22.154  32.717  29.417  0.00  0.00     0.085 H 
ATOM    159  H   IDS d  61      23.047  30.502  29.021  0.00  0.00     0.093 H 
ENDROOT
TORSDOF 50
ENDMDL
MODEL 23
REMARK VINA RESULT:      -5.8      4.891      8.599
REMARK  0 active torsions:
REMARK  status: ('A' for Active; 'I' for Inactive)
REMARK       I    between atoms: O3S_3  and  S1_55 
REMARK       I    between atoms: O3_4  and  C3_87 
REMARK       I    between atoms: O4_5  and  C1_15 
REMARK       I    between atoms: O4_5  and  C4_57 
REMARK       I    between atoms: O4_7  and  C1_36 
REMARK       I    between atoms: O4_7  and  C4_89 
REMARK       I    between atoms: C4_8  and  O4_18 
REMARK       I    between atoms: C2_9  and  O2_84 
REMARK       I    between atoms: C6_10  and  C5_32 
REMARK       I    between atoms: C6_10  and  O6_102 
REMARK       I    between atoms: O6_11  and  C6_93 
REMARK       I    between atoms: O6_11  and  S2_25 
REMARK       I    between atoms: C1_13  and  O4_74 
REMARK       I    between atoms: C3_14  and  O3_71 
REMARK       I    between atoms: O4_18  and  C1_54 
REMARK       I    between atoms: S2_19  and  O6_39 
REMARK       I    between atoms: O2S_21  and  S1_45 
REMARK       I    between atoms: C5_22  and  C6_23 
REMARK       I    between atoms: C5_24  and  C6_77 
REMARK       I    between atoms: O1_27  and  C1_48 
REMARK       I    between atoms: C5_28  and  C6_30 
REMARK       I    between atoms: C5_29  and  C6_93 
REMARK       I    between atoms: O1S_31  and  S1_44 
REMARK       I    between atoms: C3_33  and  O3_69 
REMARK       I    between atoms: C2_37  and  N_99 
REMARK       I    between atoms: S2_38  and  O6_102 
REMARK       I    between atoms: O6_39  and  C6_77 
REMARK       I    between atoms: C2_40  and  O2_103 
REMARK       I    between atoms: O3S_42  and  S1_44 
REMARK       I    between atoms: S1_44  and  N_99 
REMARK       I    between atoms: S1_44  and  O2S_81 
REMARK       I    between atoms: S1_45  and  N_94 
REMARK       I    between atoms: S1_45  and  O1S_46 
REMARK       I    between atoms: S1_45  and  O3S_58 
REMARK       I    between atoms: O3_52  and  C3_105 
REMARK       I    between atoms: S1_55  and  N_100 
REMARK       I    between atoms: S1_55  and  O1S_79 
REMARK       I    between atoms: S1_55  and  O2S_83 
REMARK       I    between atoms: O3_56  and  C3_64 
REMARK       I    between atoms: C4_60  and  O4_61 
REMARK       I    between atoms: O4_61  and  C1_73 
REMARK       I    between atoms: C6_63  and  C5_80 
REMARK       I    between atoms: C3_65  and  O3_82 
REMARK       I    between atoms: S_67  and  O2_84 
REMARK       I    between atoms: C2_68  and  O2_98 
REMARK       I    between atoms: O4_74  and  C4_97 
REMARK       I    between atoms: C2_85  and  N_94 
REMARK       I    between atoms: C2_95  and  N_100 
REMARK       I    between atoms: O2_98  and  S_104 
REMARK       I    between atoms: S_101  and  O2_103 
ROOT
ATOM      1  O6S SGN d  66      12.885  26.375  57.250  0.00  0.00    -0.572 OA
ATOM      2  C4  SGN d  66      16.721  28.891  55.891  0.00  0.00     0.095 C 
ATOM      3  C6  SGN d  66      15.022  29.692  57.577  0.00  0.00     0.067 C 
ATOM      4  O4  SGN d  66      15.908  29.500  54.780  0.00  0.00    -0.348 OA
ATOM      5  O5S SGN d  66      12.076  28.589  56.930  0.00  0.00    -0.572 OA
ATOM      6  O2S SGN d  66      21.474  27.187  58.534  0.00  0.00    -0.296 OA
ATOM      7  O5  SGN d  66      17.330  29.096  58.262  0.00  0.00    -0.350 OA
ATOM      8  O1  SGN d  66      19.293  30.367  57.692  0.00  0.00    -0.369 OA
ATOM      9  C5  SGN d  66      16.513  29.682  57.192  0.00  0.00     0.091 C 
ATOM     10  S2  SGN d  66      13.227  27.703  56.781  0.00  0.00     0.251 S 
ATOM     11  S1  SGN d  66      21.702  28.229  57.552  0.00  0.00     0.156 S 
ATOM     12  O1S SGN d  66      22.964  28.036  56.853  0.00  0.00    -0.296 OA
ATOM     13  C1  SGN d  66      18.768  29.055  57.974  0.00  0.00     0.147 C 
ATOM     14  O3S SGN d  66      21.749  29.540  58.182  0.00  0.00    -0.296 OA
ATOM     15  C3  SGN d  66      18.214  28.799  55.531  0.00  0.00     0.083 C 
ATOM     16  O3  SGN d  66      18.377  27.923  54.417  0.00  0.00    -0.391 OA
ATOM     17  C2  SGN d  66      18.971  28.190  56.714  0.00  0.00     0.081 C 
ATOM     18  O4S SGN d  66      13.647  27.622  55.389  0.00  0.00    -0.572 OA
ATOM     19  N   SGN d  66      20.392  28.104  56.349  0.00  0.00    -0.210 NA
ATOM     20  O6  SGN d  66      14.541  28.345  57.796  0.00  0.00    -0.254 OA
ATOM     21  H   SGN d  66      16.378  27.888  56.037  0.00  0.00     0.091 H 
ATOM     22  H   SGN d  66      14.458  30.142  56.787  0.00  0.00     0.080 H 
ATOM     23  H   SGN d  66      14.904  30.251  58.482  0.00  0.00     0.080 H 
ATOM     24  H   SGN d  66      21.446  26.325  58.090  0.00  0.00     0.231 HD
ATOM     25  H   SGN d  66      19.179  30.935  58.470  0.00  0.00     0.212 HD
ATOM     26  H   SGN d  66      16.821  30.696  57.044  0.00  0.00     0.090 H 
ATOM     27  H   SGN d  66      22.965  27.167  56.422  0.00  0.00     0.231 HD
ATOM     28  H   SGN d  66      19.274  28.660  58.830  0.00  0.00     0.131 H 
ATOM     29  H   SGN d  66      20.919  29.700  58.658  0.00  0.00     0.231 HD
ATOM     30  H   SGN d  66      18.584  29.775  55.300  0.00  0.00     0.089 H 
ATOM     31  H   SGN d  66      18.037  27.044  54.645  0.00  0.00     0.210 HD
ATOM     32  H   SGN d  66      18.601  27.209  56.935  0.00  0.00     0.076 H 
ATOM     33  H   SGN d  66      20.513  27.199  55.893  0.00  0.00     0.140 HD
ATOM     34  O61 IDS d  65      19.533  30.990  51.816  0.00  0.00    -0.646 OA
ATOM     35  O3  IDS d  65      14.715  32.988  52.709  0.00  0.00    -0.390 OA
ATOM     36  C5  IDS d  65      17.425  30.431  52.792  0.00  0.00     0.152 C 
ATOM     37  C6  IDS d  65      18.701  30.066  51.989  0.00  0.00     0.206 C 
ATOM     38  O5  IDS d  65      16.551  29.260  52.806  0.00  0.00    -0.340 OA
ATOM     39  C1  IDS d  65      15.289  29.406  53.507  0.00  0.00     0.161 C 
ATOM     40  O1S IDS d  65      12.133  33.267  54.104  0.00  0.00    -0.572 OA
ATOM     41  C4  IDS d  65      16.679  31.710  52.272  0.00  0.00     0.103 C 
ATOM     42  O4  IDS d  65      17.456  32.058  51.123  0.00  0.00    -0.348 OA
ATOM     43  C2  IDS d  65      14.836  30.880  53.730  0.00  0.00     0.134 C 
ATOM     44  O62 IDS d  65      18.855  28.877  51.575  0.00  0.00    -0.646 OA
ATOM     45  C3  IDS d  65      15.151  31.681  52.507  0.00  0.00     0.094 C 
ATOM     46  O2S IDS d  65      14.025  32.896  55.507  0.00  0.00    -0.572 OA
ATOM     47  O3S IDS d  65      11.983  31.784  55.986  0.00  0.00    -0.572 OA
ATOM     48  O2  IDS d  65      13.429  30.946  53.900  0.00  0.00    -0.244 OA
ATOM     49  S   IDS d  65      12.846  32.288  54.922  0.00  0.00     0.252 S 
ATOM     50  H   IDS d  65      14.914  33.521  51.923  0.00  0.00     0.210 HD
ATOM     51  H   IDS d  65      17.721  30.694  53.785  0.00  0.00     0.104 H 
ATOM     52  H   IDS d  65      14.551  28.744  53.102  0.00  0.00     0.133 H 
ATOM     53  H   IDS d  65      16.629  32.649  52.780  0.00  0.00     0.092 H 
ATOM     54  H   IDS d  65      15.341  31.254  54.595  0.00  0.00     0.097 H 
ATOM     55  H   IDS d  65      14.666  31.242  51.661  0.00  0.00     0.091 H 
ATOM     56  O3S SGN d  62      18.236  29.010  42.526  0.00  0.00    -0.296 OA
ATOM     57  C1  SGN d  62      16.866  32.138  41.885  0.00  0.00     0.150 C 
ATOM     58  S2  SGN d  62      14.008  36.835  39.618  0.00  0.00     0.251 S 
ATOM     59  C5  SGN d  62      16.147  33.813  40.187  0.00  0.00     0.091 C 
ATOM     60  O5  SGN d  62      15.778  32.777  41.142  0.00  0.00    -0.349 OA
ATOM     61  O4S SGN d  62      12.763  36.635  38.954  0.00  0.00    -0.572 OA
ATOM     62  O6  SGN d  62      15.166  35.636  39.094  0.00  0.00    -0.254 OA
ATOM     63  O3  SGN d  62      19.356  32.301  39.108  0.00  0.00    -0.391 OA
ATOM     64  S1  SGN d  62      19.361  29.612  41.848  0.00  0.00     0.156 S 
ATOM     65  O6S SGN d  62      13.893  36.788  41.073  0.00  0.00    -0.572 OA
ATOM     66  O4  SGN d  62      17.450  34.283  38.228  0.00  0.00    -0.348 OA
ATOM     67  C6  SGN d  62      14.885  34.318  39.530  0.00  0.00     0.067 C 
ATOM     68  O5S SGN d  62      14.571  38.106  39.250  0.00  0.00    -0.572 OA
ATOM     69  O1S SGN d  62      20.592  29.443  42.591  0.00  0.00    -0.296 OA
ATOM     70  O2S SGN d  62      19.435  29.048  40.531  0.00  0.00    -0.296 OA
ATOM     71  C2  SGN d  62      17.934  31.691  40.898  0.00  0.00     0.081 C 
ATOM     72  C4  SGN d  62      17.126  33.242  39.148  0.00  0.00     0.095 C 
ATOM     73  N   SGN d  62      19.105  31.324  41.630  0.00  0.00    -0.210 NA
ATOM     74  C3  SGN d  62      18.364  32.818  39.954  0.00  0.00     0.083 C 
ATOM     75  H   SGN d  62      18.165  29.376  43.422  0.00  0.00     0.231 HD
ATOM     76  H   SGN d  62      16.426  31.322  42.419  0.00  0.00     0.131 H 
ATOM     77  H   SGN d  62      16.637  34.625  40.682  0.00  0.00     0.090 H 
ATOM     78  H   SGN d  62      20.127  32.039  39.635  0.00  0.00     0.210 HD
ATOM     79  H   SGN d  62      14.077  34.324  40.231  0.00  0.00     0.080 H 
ATOM     80  H   SGN d  62      14.593  33.691  38.713  0.00  0.00     0.080 H 
ATOM     81  H   SGN d  62      20.495  29.837  43.472  0.00  0.00     0.231 HD
ATOM     82  H   SGN d  62      18.591  29.185  40.072  0.00  0.00     0.231 HD
ATOM     83  H   SGN d  62      17.519  30.885  40.329  0.00  0.00     0.076 H 
ATOM     84  H   SGN d  62      16.731  32.417  38.592  0.00  0.00     0.091 H 
ATOM     85  H   SGN d  62      19.914  31.701  41.135  0.00  0.00     0.140 HD
ATOM     86  H   SGN d  62      18.753  33.666  40.478  0.00  0.00     0.089 H 
ATOM     87  O4  IDS d  63      17.492  32.989  42.853  0.00  0.00    -0.348 OA
ATOM     88  O62 IDS d  63      17.049  36.019  44.908  0.00  0.00    -0.646 OA
ATOM     89  C2  IDS d  63      19.700  31.950  44.776  0.00  0.00     0.134 C 
ATOM     90  O2S IDS d  63      22.700  32.197  44.013  0.00  0.00    -0.572 OA
ATOM     91  O61 IDS d  63      15.306  34.755  44.689  0.00  0.00    -0.646 OA
ATOM     92  C3  IDS d  63      18.295  31.357  44.606  0.00  0.00     0.094 C 
ATOM     93  C1  IDS d  63      19.673  33.089  45.832  0.00  0.00     0.161 C 
ATOM     94  O5  IDS d  63      18.803  34.136  45.331  0.00  0.00    -0.340 OA
ATOM     95  C4  IDS d  63      17.281  32.502  44.172  0.00  0.00     0.103 C 
ATOM     96  C6  IDS d  63      16.511  34.911  44.883  0.00  0.00     0.206 C 
ATOM     97  S   IDS d  63      21.749  33.157  43.468  0.00  0.00     0.252 S 
ATOM     98  O3  IDS d  63      17.955  30.859  45.881  0.00  0.00    -0.390 OA
ATOM     99  C5  IDS d  63      17.392  33.696  45.158  0.00  0.00     0.152 C 
ATOM    100  O2  IDS d  63      20.164  32.375  43.522  0.00  0.00    -0.244 OA
ATOM    101  O1S IDS d  63      21.994  33.447  42.067  0.00  0.00    -0.572 OA
ATOM    102  O3S IDS d  63      21.859  34.347  44.261  0.00  0.00    -0.572 OA
ATOM    103  H   IDS d  63      20.383  31.213  45.144  0.00  0.00     0.097 H 
ATOM    104  H   IDS d  63      18.258  30.596  43.856  0.00  0.00     0.091 H 
ATOM    105  H   IDS d  63      20.623  33.544  46.020  0.00  0.00     0.133 H 
ATOM    106  H   IDS d  63      16.307  32.057  44.194  0.00  0.00     0.092 H 
ATOM    107  H   IDS d  63      18.000  31.577  46.532  0.00  0.00     0.210 HD
ATOM    108  H   IDS d  63      17.005  33.277  46.063  0.00  0.00     0.104 H 
ATOM    109  O4  SGN d  64      19.190  32.469  47.063  0.00  0.00    -0.348 OA
ATOM    110  O6  SGN d  64      21.956  33.026  50.106  0.00  0.00    -0.254 OA
ATOM    111  C3  SGN d  64      17.501  33.301  48.624  0.00  0.00     0.083 C 
ATOM    112  S2  SGN d  64      22.045  34.802  49.978  0.00  0.00     0.251 S 
ATOM    113  C5  SGN d  64      19.708  32.447  49.413  0.00  0.00     0.091 C 
ATOM    114  O1S SGN d  64      15.172  36.678  50.533  0.00  0.00    -0.296 OA
ATOM    115  C2  SGN d  64      17.347  34.071  49.900  0.00  0.00     0.081 C 
ATOM    116  O4S SGN d  64      22.623  35.123  48.698  0.00  0.00    -0.572 OA
ATOM    117  O3S SGN d  64      15.258  35.846  48.313  0.00  0.00    -0.296 OA
ATOM    118  S1  SGN d  64      14.963  35.508  49.695  0.00  0.00     0.156 S 
ATOM    119  O6S SGN d  64      20.732  35.405  50.087  0.00  0.00    -0.572 OA
ATOM    120  O5S SGN d  64      22.879  35.296  51.040  0.00  0.00    -0.572 OA
ATOM    121  O3  SGN d  64      16.805  34.006  47.661  0.00  0.00    -0.391 OA
ATOM    122  C1  SGN d  64      18.075  33.339  50.997  0.00  0.00     0.150 C 
ATOM    123  O2S SGN d  64      13.608  35.039  49.792  0.00  0.00    -0.296 OA
ATOM    124  C4  SGN d  64      19.010  33.215  48.276  0.00  0.00     0.095 C 
ATOM    125  O5  SGN d  64      19.466  33.207  50.634  0.00  0.00    -0.349 OA
ATOM    126  C6  SGN d  64      21.191  32.333  49.130  0.00  0.00     0.067 C 
ATOM    127  N   SGN d  64      15.949  34.145  50.249  0.00  0.00    -0.210 NA
ATOM    128  H   SGN d  64      17.123  32.303  48.697  0.00  0.00     0.089 H 
ATOM    129  H   SGN d  64      19.329  31.451  49.507  0.00  0.00     0.090 H 
ATOM    130  H   SGN d  64      16.092  36.975  50.451  0.00  0.00     0.231 HD
ATOM    131  H   SGN d  64      17.744  35.056  49.776  0.00  0.00     0.076 H 
ATOM    132  H   SGN d  64      16.172  36.163  48.246  0.00  0.00     0.231 HD
ATOM    133  H   SGN d  64      17.155  34.909  47.604  0.00  0.00     0.210 HD
ATOM    134  H   SGN d  64      18.026  33.864  51.927  0.00  0.00     0.131 H 
ATOM    135  H   SGN d  64      13.003  35.739  49.501  0.00  0.00     0.231 HD
ATOM    136  H   SGN d  64      19.412  34.200  48.156  0.00  0.00     0.091 H 
ATOM    137  H   SGN d  64      21.469  31.300  49.138  0.00  0.00     0.080 H 
ATOM    138  H   SGN d  64      21.387  32.769  48.173  0.00  0.00     0.080 H 
ATOM    139  H   SGN d  64      15.901  34.143  51.268  0.00  0.00     0.140 HD
ATOM    140  C1  IDS d  61      17.306  33.910  36.843  0.00  0.00     0.167 C 
ATOM    141  O5  IDS d  61      18.279  32.882  36.520  0.00  0.00    -0.311 OA
ATOM    142  C5  IDS d  61      19.613  33.220  36.338  0.00  0.00     0.147 C 
ATOM    143  C6  IDS d  61      20.628  32.032  36.118  0.00  0.00     0.233 C 
ATOM    144  C2  IDS d  61      17.608  35.139  35.992  0.00  0.00     0.135 C 
ATOM    145  O1S IDS d  61      17.219  32.242  34.404  0.00  0.00    -0.572 OA
ATOM    146  O3S IDS d  61      15.179  33.515  34.574  0.00  0.00    -0.572 OA
ATOM    147  O3  IDS d  61      19.058  36.452  37.245  0.00  0.00    -0.389 OA
ATOM    148  C4  IDS d  61      20.027  34.514  36.233  0.00  0.00    -0.034 C 
ATOM    149  C3  IDS d  61      19.048  35.634  36.129  0.00  0.00     0.086 C 
ATOM    150  O61 IDS d  61      21.816  32.273  35.898  0.00  0.00    -0.642 OA
ATOM    151  O62 IDS d  61      20.217  30.846  36.133  0.00  0.00    -0.642 OA
ATOM    152  O2S IDS d  61      16.502  33.421  32.583  0.00  0.00    -0.572 OA
ATOM    153  S   IDS d  61      16.516  33.433  34.006  0.00  0.00     0.252 S 
ATOM    154  O2  IDS d  61      17.435  34.843  34.595  0.00  0.00    -0.244 OA
ATOM    155  H   IDS d  61      16.317  33.546  36.658  0.00  0.00     0.134 H 
ATOM    156  H   IDS d  61      16.930  35.889  36.344  0.00  0.00     0.097 H 
ATOM    157  H   IDS d  61      18.408  37.163  37.132  0.00  0.00     0.210 HD
ATOM    158  H   IDS d  61      21.037  34.723  36.224  0.00  0.00     0.085 H 
ATOM    159  H   IDS d  61      19.356  36.171  35.257  0.00  0.00     0.093 H 
ENDROOT
TORSDOF 50
ENDMDL
MODEL 24
REMARK VINA RESULT:      -5.8      2.891     16.242
REMARK  0 active torsions:
REMARK  status: ('A' for Active; 'I' for Inactive)
REMARK       I    between atoms: O3S_3  and  S1_55 
REMARK       I    between atoms: O3_4  and  C3_87 
REMARK       I    between atoms: O4_5  and  C1_15 
REMARK       I    between atoms: O4_5  and  C4_57 
REMARK       I    between atoms: O4_7  and  C1_36 
REMARK       I    between atoms: O4_7  and  C4_89 
REMARK       I    between atoms: C4_8  and  O4_18 
REMARK       I    between atoms: C2_9  and  O2_84 
REMARK       I    between atoms: C6_10  and  C5_32 
REMARK       I    between atoms: C6_10  and  O6_102 
REMARK       I    between atoms: O6_11  and  C6_93 
REMARK       I    between atoms: O6_11  and  S2_25 
REMARK       I    between atoms: C1_13  and  O4_74 
REMARK       I    between atoms: C3_14  and  O3_71 
REMARK       I    between atoms: O4_18  and  C1_54 
REMARK       I    between atoms: S2_19  and  O6_39 
REMARK       I    between atoms: O2S_21  and  S1_45 
REMARK       I    between atoms: C5_22  and  C6_23 
REMARK       I    between atoms: C5_24  and  C6_77 
REMARK       I    between atoms: O1_27  and  C1_48 
REMARK       I    between atoms: C5_28  and  C6_30 
REMARK       I    between atoms: C5_29  and  C6_93 
REMARK       I    between atoms: O1S_31  and  S1_44 
REMARK       I    between atoms: C3_33  and  O3_69 
REMARK       I    between atoms: C2_37  and  N_99 
REMARK       I    between atoms: S2_38  and  O6_102 
REMARK       I    between atoms: O6_39  and  C6_77 
REMARK       I    between atoms: C2_40  and  O2_103 
REMARK       I    between atoms: O3S_42  and  S1_44 
REMARK       I    between atoms: S1_44  and  N_99 
REMARK       I    between atoms: S1_44  and  O2S_81 
REMARK       I    between atoms: S1_45  and  N_94 
REMARK       I    between atoms: S1_45  and  O1S_46 
REMARK       I    between atoms: S1_45  and  O3S_58 
REMARK       I    between atoms: O3_52  and  C3_105 
REMARK       I    between atoms: S1_55  and  N_100 
REMARK       I    between atoms: S1_55  and  O1S_79 
REMARK       I    between atoms: S1_55  and  O2S_83 
REMARK       I    between atoms: O3_56  and  C3_64 
REMARK       I    between atoms: C4_60  and  O4_61 
REMARK       I    between atoms: O4_61  and  C1_73 
REMARK       I    between atoms: C6_63  and  C5_80 
REMARK       I    between atoms: C3_65  and  O3_82 
REMARK       I    between atoms: S_67  and  O2_84 
REMARK       I    between atoms: C2_68  and  O2_98 
REMARK       I    between atoms: O4_74  and  C4_97 
REMARK       I    between atoms: C2_85  and  N_94 
REMARK       I    between atoms: C2_95  and  N_100 
REMARK       I    between atoms: O2_98  and  S_104 
REMARK       I    between atoms: S_101  and  O2_103 
ROOT
ATOM      1  O6S SGN d  66      20.916  34.942  31.115  0.00  0.00    -0.572 OA
ATOM      2  C4  SGN d  66      21.258  31.575  34.497  0.00  0.00     0.095 C 
ATOM      3  C6  SGN d  66      19.420  31.672  32.770  0.00  0.00     0.067 C 
ATOM      4  O4  SGN d  66      20.441  32.440  35.418  0.00  0.00    -0.348 OA
ATOM      5  O5S SGN d  66      18.703  34.692  31.947  0.00  0.00    -0.572 OA
ATOM      6  O2S SGN d  66      25.029  27.523  33.143  0.00  0.00    -0.296 OA
ATOM      7  O5  SGN d  66      21.141  29.886  32.718  0.00  0.00    -0.350 OA
ATOM      8  O1  SGN d  66      21.313  28.110  34.334  0.00  0.00    -0.369 OA
ATOM      9  C5  SGN d  66      20.333  30.745  33.594  0.00  0.00     0.091 C 
ATOM     10  S2  SGN d  66      20.099  34.306  32.129  0.00  0.00     0.251 S 
ATOM     11  S1  SGN d  66      24.443  27.348  34.457  0.00  0.00     0.156 S 
ATOM     12  O1S SGN d  66      25.413  26.827  35.409  0.00  0.00    -0.296 OA
ATOM     13  C1  SGN d  66      22.036  28.966  33.428  0.00  0.00     0.147 C 
ATOM     14  O3S SGN d  66      23.329  26.413  34.414  0.00  0.00    -0.296 OA
ATOM     15  C3  SGN d  66      22.236  30.673  35.269  0.00  0.00     0.083 C 
ATOM     16  O3  SGN d  66      23.180  31.486  35.964  0.00  0.00    -0.391 OA
ATOM     17  C2  SGN d  66      23.013  29.815  34.267  0.00  0.00     0.081 C 
ATOM     18  O4S SGN d  66      20.583  34.697  33.445  0.00  0.00    -0.572 OA
ATOM     19  N   SGN d  66      23.945  28.965  35.022  0.00  0.00    -0.210 NA
ATOM     20  O6  SGN d  66      20.205  32.541  31.921  0.00  0.00    -0.254 OA
ATOM     21  H   SGN d  66      21.854  32.220  33.885  0.00  0.00     0.091 H 
ATOM     22  H   SGN d  66      18.833  32.269  33.437  0.00  0.00     0.080 H 
ATOM     23  H   SGN d  66      18.785  31.070  32.153  0.00  0.00     0.080 H 
ATOM     24  H   SGN d  66      25.766  28.150  33.199  0.00  0.00     0.231 HD
ATOM     25  H   SGN d  66      20.689  27.563  33.832  0.00  0.00     0.212 HD
ATOM     26  H   SGN d  66      19.709  30.123  34.201  0.00  0.00     0.090 H 
ATOM     27  H   SGN d  66      26.170  27.431  35.461  0.00  0.00     0.231 HD
ATOM     28  H   SGN d  66      22.537  28.356  32.707  0.00  0.00     0.131 H 
ATOM     29  H   SGN d  66      22.662  26.732  33.786  0.00  0.00     0.231 HD
ATOM     30  H   SGN d  66      21.688  30.061  35.955  0.00  0.00     0.089 H 
ATOM     31  H   SGN d  66      23.667  32.032  35.327  0.00  0.00     0.210 HD
ATOM     32  H   SGN d  66      23.565  30.432  33.589  0.00  0.00     0.076 H 
ATOM     33  H   SGN d  66      24.804  29.506  35.121  0.00  0.00     0.140 HD
ATOM     34  O61 IDS d  65      21.695  30.471  39.743  0.00  0.00    -0.646 OA
ATOM     35  O3  IDS d  65      17.198  32.739  38.117  0.00  0.00    -0.390 OA
ATOM     36  C5  IDS d  65      20.812  31.836  37.991  0.00  0.00     0.152 C 
ATOM     37  C6  IDS d  65      21.943  31.433  38.974  0.00  0.00     0.206 C 
ATOM     38  O5  IDS d  65      21.256  33.018  37.255  0.00  0.00    -0.340 OA
ATOM     39  C1  IDS d  65      20.323  33.560  36.283  0.00  0.00     0.161 C 
ATOM     40  O1S IDS d  65      15.312  33.875  36.157  0.00  0.00    -0.572 OA
ATOM     41  C4  IDS d  65      19.416  32.062  38.671  0.00  0.00     0.103 C 
ATOM     42  O4  IDS d  65      19.727  31.873  40.053  0.00  0.00    -0.348 OA
ATOM     43  C2  IDS d  65      18.843  33.119  36.488  0.00  0.00     0.134 C 
ATOM     44  O62 IDS d  65      23.045  32.059  38.943  0.00  0.00    -0.646 OA
ATOM     45  C3  IDS d  65      18.532  33.106  37.951  0.00  0.00     0.094 C 
ATOM     46  O2S IDS d  65      16.520  31.953  35.427  0.00  0.00    -0.572 OA
ATOM     47  O3S IDS d  65      16.185  33.758  33.923  0.00  0.00    -0.572 OA
ATOM     48  O2  IDS d  65      17.959  34.061  35.899  0.00  0.00    -0.244 OA
ATOM     49  S   IDS d  65      16.410  33.394  35.319  0.00  0.00     0.252 S 
ATOM     50  H   IDS d  65      16.982  32.725  39.062  0.00  0.00     0.210 HD
ATOM     51  H   IDS d  65      20.643  31.017  37.325  0.00  0.00     0.104 H 
ATOM     52  H   IDS d  65      20.487  34.608  36.145  0.00  0.00     0.133 H 
ATOM     53  H   IDS d  65      18.562  31.426  38.562  0.00  0.00     0.092 H 
ATOM     54  H   IDS d  65      18.720  32.154  36.043  0.00  0.00     0.097 H 
ATOM     55  H   IDS d  65      18.716  34.076  38.361  0.00  0.00     0.091 H 
ATOM     56  O3S SGN d  62      23.735  36.813  46.637  0.00  0.00    -0.296 OA
ATOM     57  C1  SGN d  62      20.499  36.720  47.902  0.00  0.00     0.150 C 
ATOM     58  S2  SGN d  62      15.349  37.808  50.669  0.00  0.00     0.251 S 
ATOM     59  C5  SGN d  62      18.949  37.311  49.760  0.00  0.00     0.091 C 
ATOM     60  O5  SGN d  62      19.453  37.600  48.424  0.00  0.00    -0.349 OA
ATOM     61  O4S SGN d  62      14.880  39.151  50.758  0.00  0.00    -0.572 OA
ATOM     62  O6  SGN d  62      17.050  37.739  51.061  0.00  0.00    -0.254 OA
ATOM     63  O3  SGN d  62      22.152  36.116  51.195  0.00  0.00    -0.391 OA
ATOM     64  S1  SGN d  62      23.980  36.022  47.821  0.00  0.00     0.156 S 
ATOM     65  O6S SGN d  62      15.136  37.216  49.351  0.00  0.00    -0.572 OA
ATOM     66  O4  SGN d  62      19.567  37.062  52.064  0.00  0.00    -0.348 OA
ATOM     67  C6  SGN d  62      17.899  38.341  50.101  0.00  0.00     0.067 C 
ATOM     68  O5S SGN d  62      14.692  36.983  51.646  0.00  0.00    -0.572 OA
ATOM     69  O1S SGN d  62      24.729  34.819  47.521  0.00  0.00    -0.296 OA
ATOM     70  O2S SGN d  62      24.646  36.856  48.779  0.00  0.00    -0.296 OA
ATOM     71  C2  SGN d  62      21.601  36.598  48.946  0.00  0.00     0.081 C 
ATOM     72  C4  SGN d  62      20.106  37.337  50.773  0.00  0.00     0.095 C 
ATOM     73  N   SGN d  62      22.476  35.537  48.562  0.00  0.00    -0.210 NA
ATOM     74  C3  SGN d  62      21.057  36.216  50.326  0.00  0.00     0.083 C 
ATOM     75  H   SGN d  62      23.283  36.268  45.973  0.00  0.00     0.231 HD
ATOM     76  H   SGN d  62      20.839  37.165  46.991  0.00  0.00     0.131 H 
ATOM     77  H   SGN d  62      18.511  36.335  49.794  0.00  0.00     0.090 H 
ATOM     78  H   SGN d  62      22.739  35.404  50.896  0.00  0.00     0.210 HD
ATOM     79  H   SGN d  62      17.341  38.606  49.227  0.00  0.00     0.080 H 
ATOM     80  H   SGN d  62      18.343  39.238  50.480  0.00  0.00     0.080 H 
ATOM     81  H   SGN d  62      24.242  34.288  46.871  0.00  0.00     0.231 HD
ATOM     82  H   SGN d  62      24.109  37.646  48.948  0.00  0.00     0.231 HD
ATOM     83  H   SGN d  62      22.087  37.550  49.003  0.00  0.00     0.076 H 
ATOM     84  H   SGN d  62      20.616  38.277  50.818  0.00  0.00     0.091 H 
ATOM     85  H   SGN d  62      22.699  34.997  49.398  0.00  0.00     0.140 HD
ATOM     86  H   SGN d  62      20.527  35.286  50.315  0.00  0.00     0.089 H 
ATOM     87  O4  IDS d  63      20.048  35.397  47.586  0.00  0.00    -0.348 OA
ATOM     88  O62 IDS d  63      17.082  33.359  46.782  0.00  0.00    -0.646 OA
ATOM     89  C2  IDS d  63      21.911  33.293  46.262  0.00  0.00     0.134 C 
ATOM     90  O2S IDS d  63      23.532  31.301  48.007  0.00  0.00    -0.572 OA
ATOM     91  O61 IDS d  63      17.130  35.346  45.926  0.00  0.00    -0.646 OA
ATOM     92  C3  IDS d  63      21.605  34.697  45.724  0.00  0.00     0.094 C 
ATOM     93  C1  IDS d  63      20.840  32.286  45.760  0.00  0.00     0.161 C 
ATOM     94  O5  IDS d  63      19.557  32.701  46.295  0.00  0.00    -0.340 OA
ATOM     95  C4  IDS d  63      20.153  35.144  46.191  0.00  0.00     0.103 C 
ATOM     96  C6  IDS d  63      17.672  34.280  46.215  0.00  0.00     0.206 C 
ATOM     97  S   IDS d  63      22.279  31.837  48.523  0.00  0.00     0.252 S 
ATOM     98  O3  IDS d  63      21.651  34.566  44.320  0.00  0.00    -0.390 OA
ATOM     99  C5  IDS d  63      19.125  34.042  45.815  0.00  0.00     0.152 C 
ATOM    100  O2  IDS d  63      21.993  33.355  47.661  0.00  0.00    -0.244 OA
ATOM    101  O1S IDS d  63      22.363  32.194  49.927  0.00  0.00    -0.572 OA
ATOM    102  O3S IDS d  63      21.278  30.831  48.313  0.00  0.00    -0.572 OA
ATOM    103  H   IDS d  63      22.853  32.940  45.895  0.00  0.00     0.097 H 
ATOM    104  H   IDS d  63      22.295  35.433  46.080  0.00  0.00     0.091 H 
ATOM    105  H   IDS d  63      20.994  31.276  46.080  0.00  0.00     0.133 H 
ATOM    106  H   IDS d  63      19.950  36.065  45.685  0.00  0.00     0.092 H 
ATOM    107  H   IDS d  63      21.013  33.893  44.038  0.00  0.00     0.210 HD
ATOM    108  H   IDS d  63      19.126  34.087  44.747  0.00  0.00     0.104 H 
ATOM    109  O4  SGN d  64      20.908  32.339  44.302  0.00  0.00    -0.348 OA
ATOM    110  O6  SGN d  64      21.658  28.551  42.784  0.00  0.00    -0.254 OA
ATOM    111  C3  SGN d  64      19.065  32.474  42.698  0.00  0.00     0.083 C 
ATOM    112  S2  SGN d  64      20.289  27.736  43.584  0.00  0.00     0.251 S 
ATOM    113  C5  SGN d  64      20.923  30.831  42.426  0.00  0.00     0.091 C 
ATOM    114  O1S SGN d  64      14.755  31.760  41.526  0.00  0.00    -0.296 OA
ATOM    115  C2  SGN d  64      18.192  31.625  41.826  0.00  0.00     0.081 C 
ATOM    116  O4S SGN d  64      20.524  27.772  45.004  0.00  0.00    -0.572 OA
ATOM    117  O3S SGN d  64      15.759  33.142  43.171  0.00  0.00    -0.296 OA
ATOM    118  S1  SGN d  64      15.687  32.853  41.750  0.00  0.00     0.156 S 
ATOM    119  O6S SGN d  64      19.034  28.391  43.278  0.00  0.00    -0.572 OA
ATOM    120  O5S SGN d  64      20.233  26.375  43.121  0.00  0.00    -0.572 OA
ATOM    121  O3  SGN d  64      18.219  33.137  43.566  0.00  0.00    -0.391 OA
ATOM    122  C1  SGN d  64      19.063  30.886  40.843  0.00  0.00     0.150 C 
ATOM    123  O2S SGN d  64      15.276  34.035  41.044  0.00  0.00    -0.296 OA
ATOM    124  C4  SGN d  64      20.046  31.550  43.467  0.00  0.00     0.095 C 
ATOM    125  O5  SGN d  64      20.014  30.079  41.569  0.00  0.00    -0.349 OA
ATOM    126  C6  SGN d  64      21.904  29.909  43.120  0.00  0.00     0.067 C 
ATOM    127  N   SGN d  64      17.285  32.469  41.088  0.00  0.00    -0.210 NA
ATOM    128  H   SGN d  64      19.646  33.177  42.139  0.00  0.00     0.089 H 
ATOM    129  H   SGN d  64      21.499  31.524  41.849  0.00  0.00     0.090 H 
ATOM    130  H   SGN d  64      15.053  30.976  42.012  0.00  0.00     0.231 HD
ATOM    131  H   SGN d  64      17.639  30.937  42.431  0.00  0.00     0.076 H 
ATOM    132  H   SGN d  64      16.037  32.345  43.650  0.00  0.00     0.231 HD
ATOM    133  H   SGN d  64      17.697  32.490  44.066  0.00  0.00     0.210 HD
ATOM    134  H   SGN d  64      18.491  30.236  40.215  0.00  0.00     0.131 H 
ATOM    135  H   SGN d  64      14.399  34.308  41.355  0.00  0.00     0.231 HD
ATOM    136  H   SGN d  64      19.496  30.858  44.070  0.00  0.00     0.091 H 
ATOM    137  H   SGN d  64      22.897  30.168  42.821  0.00  0.00     0.080 H 
ATOM    138  H   SGN d  64      21.785  30.023  44.177  0.00  0.00     0.080 H 
ATOM    139  H   SGN d  64      17.129  32.017  40.188  0.00  0.00     0.140 HD
ATOM    140  C1  IDS d  61      19.962  38.006  53.081  0.00  0.00     0.167 C 
ATOM    141  O5  IDS d  61      21.393  37.901  53.300  0.00  0.00    -0.311 OA
ATOM    142  C5  IDS d  61      21.909  36.835  54.025  0.00  0.00     0.147 C 
ATOM    143  C6  IDS d  61      23.481  36.723  54.110  0.00  0.00     0.233 C 
ATOM    144  C2  IDS d  61      19.250  37.628  54.375  0.00  0.00     0.135 C 
ATOM    145  O1S IDS d  61      21.572  40.005  54.548  0.00  0.00    -0.572 OA
ATOM    146  O3S IDS d  61      19.349  40.870  54.198  0.00  0.00    -0.572 OA
ATOM    147  O3  IDS d  61      18.861  35.341  54.255  0.00  0.00    -0.389 OA
ATOM    148  C4  IDS d  61      21.114  35.986  54.734  0.00  0.00    -0.034 C 
ATOM    149  C3  IDS d  61      19.659  36.258  54.917  0.00  0.00     0.086 C 
ATOM    150  O61 IDS d  61      23.996  35.830  54.783  0.00  0.00    -0.642 OA
ATOM    151  O62 IDS d  61      24.202  37.565  53.520  0.00  0.00    -0.642 OA
ATOM    152  O2S IDS d  61      20.438  40.879  56.329  0.00  0.00    -0.572 OA
ATOM    153  S   IDS d  61      20.255  40.179  55.103  0.00  0.00     0.252 S 
ATOM    154  O2  IDS d  61      19.567  38.564  55.419  0.00  0.00    -0.244 OA
ATOM    155  H   IDS d  61      19.712  39.002  52.779  0.00  0.00     0.134 H 
ATOM    156  H   IDS d  61      18.210  37.625  54.124  0.00  0.00     0.097 H 
ATOM    157  H   IDS d  61      17.927  35.559  54.402  0.00  0.00     0.210 HD
ATOM    158  H   IDS d  61      21.526  35.138  55.153  0.00  0.00     0.085 H 
ATOM    159  H   IDS d  61      19.513  36.202  55.975  0.00  0.00     0.093 H 
ENDROOT
TORSDOF 50
ENDMDL
MODEL 25
REMARK VINA RESULT:      -5.7      3.460     16.319
REMARK  0 active torsions:
REMARK  status: ('A' for Active; 'I' for Inactive)
REMARK       I    between atoms: O3S_3  and  S1_55 
REMARK       I    between atoms: O3_4  and  C3_87 
REMARK       I    between atoms: O4_5  and  C1_15 
REMARK       I    between atoms: O4_5  and  C4_57 
REMARK       I    between atoms: O4_7  and  C1_36 
REMARK       I    between atoms: O4_7  and  C4_89 
REMARK       I    between atoms: C4_8  and  O4_18 
REMARK       I    between atoms: C2_9  and  O2_84 
REMARK       I    between atoms: C6_10  and  C5_32 
REMARK       I    between atoms: C6_10  and  O6_102 
REMARK       I    between atoms: O6_11  and  C6_93 
REMARK       I    between atoms: O6_11  and  S2_25 
REMARK       I    between atoms: C1_13  and  O4_74 
REMARK       I    between atoms: C3_14  and  O3_71 
REMARK       I    between atoms: O4_18  and  C1_54 
REMARK       I    between atoms: S2_19  and  O6_39 
REMARK       I    between atoms: O2S_21  and  S1_45 
REMARK       I    between atoms: C5_22  and  C6_23 
REMARK       I    between atoms: C5_24  and  C6_77 
REMARK       I    between atoms: O1_27  and  C1_48 
REMARK       I    between atoms: C5_28  and  C6_30 
REMARK       I    between atoms: C5_29  and  C6_93 
REMARK       I    between atoms: O1S_31  and  S1_44 
REMARK       I    between atoms: C3_33  and  O3_69 
REMARK       I    between atoms: C2_37  and  N_99 
REMARK       I    between atoms: S2_38  and  O6_102 
REMARK       I    between atoms: O6_39  and  C6_77 
REMARK       I    between atoms: C2_40  and  O2_103 
REMARK       I    between atoms: O3S_42  and  S1_44 
REMARK       I    between atoms: S1_44  and  N_99 
REMARK       I    between atoms: S1_44  and  O2S_81 
REMARK       I    between atoms: S1_45  and  N_94 
REMARK       I    between atoms: S1_45  and  O1S_46 
REMARK       I    between atoms: S1_45  and  O3S_58 
REMARK       I    between atoms: O3_52  and  C3_105 
REMARK       I    between atoms: S1_55  and  N_100 
REMARK       I    between atoms: S1_55  and  O1S_79 
REMARK       I    between atoms: S1_55  and  O2S_83 
REMARK       I    between atoms: O3_56  and  C3_64 
REMARK       I    between atoms: C4_60  and  O4_61 
REMARK       I    between atoms: O4_61  and  C1_73 
REMARK       I    between atoms: C6_63  and  C5_80 
REMARK       I    between atoms: C3_65  and  O3_82 
REMARK       I    between atoms: S_67  and  O2_84 
REMARK       I    between atoms: C2_68  and  O2_98 
REMARK       I    between atoms: O4_74  and  C4_97 
REMARK       I    between atoms: C2_85  and  N_94 
REMARK       I    between atoms: C2_95  and  N_100 
REMARK       I    between atoms: O2_98  and  S_104 
REMARK       I    between atoms: S_101  and  O2_103 
ROOT
ATOM      1  O6S SGN d  66      23.423  38.093  29.908  0.00  0.00    -0.572 OA
ATOM      2  C4  SGN d  66      23.156  33.899  32.195  0.00  0.00     0.095 C 
ATOM      3  C6  SGN d  66      21.827  34.477  30.128  0.00  0.00     0.067 C 
ATOM      4  O4  SGN d  66      22.058  34.458  33.059  0.00  0.00    -0.348 OA
ATOM      5  O5S SGN d  66      21.098  37.601  30.004  0.00  0.00    -0.572 OA
ATOM      6  O2S SGN d  66      27.474  30.428  30.860  0.00  0.00    -0.296 OA
ATOM      7  O5  SGN d  66      23.646  32.791  30.058  0.00  0.00    -0.350 OA
ATOM      8  O1  SGN d  66      23.540  30.627  31.107  0.00  0.00    -0.369 OA
ATOM      9  C5  SGN d  66      22.570  33.358  30.882  0.00  0.00     0.091 C 
ATOM     10  S2  SGN d  66      22.426  37.188  30.445  0.00  0.00     0.251 S 
ATOM     11  S1  SGN d  66      26.584  29.880  31.864  0.00  0.00     0.156 S 
ATOM     12  O1S SGN d  66      27.314  29.113  32.863  0.00  0.00    -0.296 OA
ATOM     13  C1  SGN d  66      24.400  31.711  30.704  0.00  0.00     0.147 C 
ATOM     14  O3S SGN d  66      25.602  28.990  31.263  0.00  0.00    -0.296 OA
ATOM     15  C3  SGN d  66      23.972  32.818  32.924  0.00  0.00     0.083 C 
ATOM     16  O3  SGN d  66      24.632  33.403  34.046  0.00  0.00    -0.391 OA
ATOM     17  C2  SGN d  66      25.051  32.289  31.977  0.00  0.00     0.081 C 
ATOM     18  O4S SGN d  66      22.518  37.187  31.899  0.00  0.00    -0.572 OA
ATOM     19  N   SGN d  66      25.823  31.264  32.693  0.00  0.00    -0.210 NA
ATOM     20  O6  SGN d  66      22.730  35.558  29.797  0.00  0.00    -0.254 OA
ATOM     21  H   SGN d  66      23.834  34.696  31.970  0.00  0.00     0.091 H 
ATOM     22  H   SGN d  66      21.039  34.854  30.747  0.00  0.00     0.080 H 
ATOM     23  H   SGN d  66      21.427  34.073  29.221  0.00  0.00     0.080 H 
ATOM     24  H   SGN d  66      28.117  31.017  31.284  0.00  0.00     0.231 HD
ATOM     25  H   SGN d  66      23.116  30.243  30.324  0.00  0.00     0.212 HD
ATOM     26  H   SGN d  66      21.863  32.584  31.100  0.00  0.00     0.090 H 
ATOM     27  H   SGN d  66      27.979  29.681  33.283  0.00  0.00     0.231 HD
ATOM     28  H   SGN d  66      25.120  31.337  30.007  0.00  0.00     0.131 H 
ATOM     29  H   SGN d  66      25.097  29.472  30.590  0.00  0.00     0.231 HD
ATOM     30  H   SGN d  66      23.318  32.033  33.240  0.00  0.00     0.089 H 
ATOM     31  H   SGN d  66      25.220  34.112  33.742  0.00  0.00     0.210 HD
ATOM     32  H   SGN d  66      25.707  33.078  31.671  0.00  0.00     0.076 H 
ATOM     33  H   SGN d  66      26.579  31.759  33.168  0.00  0.00     0.140 HD
ATOM     34  O61 IDS d  65      22.308  31.338  36.847  0.00  0.00    -0.646 OA
ATOM     35  O3  IDS d  65      18.214  33.950  34.746  0.00  0.00    -0.390 OA
ATOM     36  C5  IDS d  65      21.799  33.143  35.366  0.00  0.00     0.152 C 
ATOM     37  C6  IDS d  65      22.665  32.481  36.470  0.00  0.00     0.206 C 
ATOM     38  O5  IDS d  65      22.318  34.488  35.133  0.00  0.00    -0.340 OA
ATOM     39  C1  IDS d  65      21.627  35.281  34.132  0.00  0.00     0.161 C 
ATOM     40  O1S IDS d  65      16.812  35.590  32.737  0.00  0.00    -0.572 OA
ATOM     41  C4  IDS d  65      20.260  33.156  35.675  0.00  0.00     0.103 C 
ATOM     42  O4  IDS d  65      20.216  32.579  36.983  0.00  0.00    -0.348 OA
ATOM     43  C2  IDS d  65      20.186  34.791  33.796  0.00  0.00     0.134 C 
ATOM     44  O62 IDS d  65      23.682  33.096  36.914  0.00  0.00    -0.646 OA
ATOM     45  C3  IDS d  65      19.509  34.357  35.056  0.00  0.00     0.094 C 
ATOM     46  O2S IDS d  65      18.325  33.965  31.865  0.00  0.00    -0.572 OA
ATOM     47  O3S IDS d  65      18.241  36.125  30.883  0.00  0.00    -0.572 OA
ATOM     48  O2  IDS d  65      19.410  35.858  33.272  0.00  0.00    -0.244 OA
ATOM     49  S   IDS d  65      18.126  35.376  32.131  0.00  0.00     0.252 S 
ATOM     50  H   IDS d  65      17.761  33.664  35.555  0.00  0.00     0.210 HD
ATOM     51  H   IDS d  65      21.877  32.548  34.481  0.00  0.00     0.104 H 
ATOM     52  H   IDS d  65      21.733  36.326  34.337  0.00  0.00     0.133 H 
ATOM     53  H   IDS d  65      19.520  32.573  35.167  0.00  0.00     0.092 H 
ATOM     54  H   IDS d  65      20.265  33.994  33.087  0.00  0.00     0.097 H 
ATOM     55  H   IDS d  65      19.499  35.170  35.752  0.00  0.00     0.091 H 
ATOM     56  O3S SGN d  62      21.952  35.443  45.503  0.00  0.00    -0.296 OA
ATOM     57  C1  SGN d  62      18.519  34.972  45.762  0.00  0.00     0.150 C 
ATOM     58  S2  SGN d  62      12.755  35.190  47.209  0.00  0.00     0.251 S 
ATOM     59  C5  SGN d  62      16.496  34.996  47.215  0.00  0.00     0.091 C 
ATOM     60  O5  SGN d  62      17.303  35.659  46.201  0.00  0.00    -0.349 OA
ATOM     61  O4S SGN d  62      12.168  36.448  47.533  0.00  0.00    -0.572 OA
ATOM     62  O6  SGN d  62      14.296  35.021  48.016  0.00  0.00    -0.254 OA
ATOM     63  O3  SGN d  62      19.305  33.458  49.083  0.00  0.00    -0.391 OA
ATOM     64  S1  SGN d  62      21.947  34.347  46.444  0.00  0.00     0.156 S 
ATOM     65  O6S SGN d  62      12.941  35.000  45.773  0.00  0.00    -0.572 OA
ATOM     66  O4  SGN d  62      16.513  34.100  49.440  0.00  0.00    -0.348 OA
ATOM     67  C6  SGN d  62      15.311  35.879  47.526  0.00  0.00     0.067 C 
ATOM     68  O5S SGN d  62      11.938  34.115  47.704  0.00  0.00    -0.572 OA
ATOM     69  O1S SGN d  62      22.846  33.286  46.041  0.00  0.00    -0.296 OA
ATOM     70  O2S SGN d  62      22.270  34.876  47.738  0.00  0.00    -0.296 OA
ATOM     71  C2  SGN d  62      19.318  34.563  46.992  0.00  0.00     0.081 C 
ATOM     72  C4  SGN d  62      17.343  34.737  48.472  0.00  0.00     0.095 C 
ATOM     73  N   SGN d  62      20.348  33.662  46.584  0.00  0.00    -0.210 NA
ATOM     74  C3  SGN d  62      18.468  33.797  48.010  0.00  0.00     0.083 C 
ATOM     75  H   SGN d  62      21.736  35.110  44.618  0.00  0.00     0.231 HD
ATOM     76  H   SGN d  62      19.045  35.663  45.137  0.00  0.00     0.131 H 
ATOM     77  H   SGN d  62      16.147  34.049  46.859  0.00  0.00     0.090 H 
ATOM     78  H   SGN d  62      20.007  32.866  48.772  0.00  0.00     0.210 HD
ATOM     79  H   SGN d  62      14.979  36.381  46.641  0.00  0.00     0.080 H 
ATOM     80  H   SGN d  62      15.565  36.632  48.244  0.00  0.00     0.080 H 
ATOM     81  H   SGN d  62      22.591  32.962  45.163  0.00  0.00     0.231 HD
ATOM     82  H   SGN d  62      21.643  35.581  47.965  0.00  0.00     0.231 HD
ATOM     83  H   SGN d  62      19.691  35.461  47.438  0.00  0.00     0.076 H 
ATOM     84  H   SGN d  62      17.745  35.627  48.910  0.00  0.00     0.091 H 
ATOM     85  H   SGN d  62      20.391  32.905  47.268  0.00  0.00     0.140 HD
ATOM     86  H   SGN d  62      18.039  32.907  47.600  0.00  0.00     0.089 H 
ATOM     87  O4  IDS d  63      18.277  33.793  44.984  0.00  0.00    -0.348 OA
ATOM     88  O62 IDS d  63      15.802  32.055  42.875  0.00  0.00    -0.646 OA
ATOM     89  C2  IDS d  63      20.589  32.169  43.693  0.00  0.00     0.134 C 
ATOM     90  O2S IDS d  63      21.862  29.769  45.196  0.00  0.00    -0.572 OA
ATOM     91  O61 IDS d  63      15.905  34.204  42.644  0.00  0.00    -0.646 OA
ATOM     92  C3  IDS d  63      20.317  33.667  43.499  0.00  0.00     0.094 C 
ATOM     93  C1  IDS d  63      19.773  31.343  42.662  0.00  0.00     0.161 C 
ATOM     94  O5  IDS d  63      18.365  31.579  42.920  0.00  0.00    -0.340 OA
ATOM     95  C4  IDS d  63      18.761  33.952  43.656  0.00  0.00     0.103 C 
ATOM     96  C6  IDS d  63      16.440  33.103  42.765  0.00  0.00     0.206 C 
ATOM     97  S   IDS d  63      20.478  30.127  45.477  0.00  0.00     0.252 S 
ATOM     98  O3  IDS d  63      20.736  33.945  42.181  0.00  0.00    -0.390 OA
ATOM     99  C5  IDS d  63      17.962  32.998  42.728  0.00  0.00     0.152 C 
ATOM    100  O2  IDS d  63      20.300  31.827  45.022  0.00  0.00    -0.244 OA
ATOM    101  O1S IDS d  63      20.165  30.067  46.893  0.00  0.00    -0.572 OA
ATOM    102  O3S IDS d  63      19.654  29.218  44.735  0.00  0.00    -0.572 OA
ATOM    103  H   IDS d  63      21.620  31.943  43.514  0.00  0.00     0.097 H 
ATOM    104  H   IDS d  63      20.827  34.274  44.218  0.00  0.00     0.091 H 
ATOM    105  H   IDS d  63      19.922  30.285  42.721  0.00  0.00     0.133 H 
ATOM    106  H   IDS d  63      18.620  34.979  43.388  0.00  0.00     0.092 H 
ATOM    107  H   IDS d  63      20.251  33.377  41.562  0.00  0.00     0.210 HD
ATOM    108  H   IDS d  63      18.236  33.349  41.755  0.00  0.00     0.104 H 
ATOM    109  O4  SGN d  64      20.212  31.812  41.350  0.00  0.00    -0.348 OA
ATOM    110  O6  SGN d  64      21.645  28.624  39.113  0.00  0.00    -0.254 OA
ATOM    111  C3  SGN d  64      18.844  32.391  39.406  0.00  0.00     0.083 C 
ATOM    112  S2  SGN d  64      20.188  27.606  39.254  0.00  0.00     0.251 S 
ATOM    113  C5  SGN d  64      20.839  30.907  39.210  0.00  0.00     0.091 C 
ATOM    114  O1S SGN d  64      15.060  32.019  36.954  0.00  0.00    -0.296 OA
ATOM    115  C2  SGN d  64      18.301  31.824  38.131  0.00  0.00     0.081 C 
ATOM    116  O4S SGN d  64      20.043  27.234  40.638  0.00  0.00    -0.572 OA
ATOM    117  O3S SGN d  64      15.484  32.877  39.125  0.00  0.00    -0.296 OA
ATOM    118  S1  SGN d  64      15.808  33.007  37.716  0.00  0.00     0.156 S 
ATOM    119  O6S SGN d  64      19.004  28.314  38.811  0.00  0.00    -0.572 OA
ATOM    120  O5S SGN d  64      20.368  26.435  38.439  0.00  0.00    -0.572 OA
ATOM    121  O3  SGN d  64      17.749  32.772  40.158  0.00  0.00    -0.391 OA
ATOM    122  C1  SGN d  64      19.455  31.403  37.259  0.00  0.00     0.150 C 
ATOM    123  O2S SGN d  64      15.496  34.339  37.277  0.00  0.00    -0.296 OA
ATOM    124  C4  SGN d  64      19.665  31.292  40.128  0.00  0.00     0.095 C 
ATOM    125  O5  SGN d  64      20.250  30.428  37.966  0.00  0.00    -0.349 OA
ATOM    126  C6  SGN d  64      21.680  29.830  39.863  0.00  0.00     0.067 C 
ATOM    127  N   SGN d  64      17.549  32.839  37.436  0.00  0.00    -0.210 NA
ATOM    128  H   SGN d  64      19.489  33.229  39.242  0.00  0.00     0.089 H 
ATOM    129  H   SGN d  64      21.485  31.740  39.026  0.00  0.00     0.090 H 
ATOM    130  H   SGN d  64      15.286  31.130  37.268  0.00  0.00     0.231 HD
ATOM    131  H   SGN d  64      17.670  30.988  38.349  0.00  0.00     0.076 H 
ATOM    132  H   SGN d  64      15.694  31.977  39.423  0.00  0.00     0.231 HD
ATOM    133  H   SGN d  64      17.171  32.006  40.299  0.00  0.00     0.210 HD
ATOM    134  H   SGN d  64      19.123  30.957  36.345  0.00  0.00     0.131 H 
ATOM    135  H   SGN d  64      14.549  34.507  37.400  0.00  0.00     0.231 HD
ATOM    136  H   SGN d  64      19.038  30.452  40.345  0.00  0.00     0.091 H 
ATOM    137  H   SGN d  64      22.692  30.170  39.930  0.00  0.00     0.080 H 
ATOM    138  H   SGN d  64      21.282  29.635  40.837  0.00  0.00     0.080 H 
ATOM    139  H   SGN d  64      17.671  32.663  36.438  0.00  0.00     0.140 HD
ATOM    140  C1  IDS d  61      16.551  34.714  50.744  0.00  0.00     0.167 C 
ATOM    141  O5  IDS d  61      17.879  34.559  51.308  0.00  0.00    -0.311 OA
ATOM    142  C5  IDS d  61      18.277  33.333  51.824  0.00  0.00     0.147 C 
ATOM    143  C6  IDS d  61      19.777  33.210  52.300  0.00  0.00     0.233 C 
ATOM    144  C2  IDS d  61      15.562  33.976  51.640  0.00  0.00     0.135 C 
ATOM    145  O1S IDS d  61      17.552  36.217  53.085  0.00  0.00    -0.572 OA
ATOM    146  O3S IDS d  61      15.432  37.133  52.395  0.00  0.00    -0.572 OA
ATOM    147  O3  IDS d  61      15.410  31.818  50.795  0.00  0.00    -0.389 OA
ATOM    148  C4  IDS d  61      17.399  32.312  52.028  0.00  0.00    -0.034 C 
ATOM    149  C3  IDS d  61      15.929  32.511  51.874  0.00  0.00     0.086 C 
ATOM    150  O61 IDS d  61      20.173  32.164  52.815  0.00  0.00    -0.642 OA
ATOM    151  O62 IDS d  61      20.553  34.190  52.184  0.00  0.00    -0.642 OA
ATOM    152  O2S IDS d  61      15.926  36.536  54.659  0.00  0.00    -0.572 OA
ATOM    153  S   IDS d  61      16.127  36.216  53.287  0.00  0.00     0.252 S 
ATOM    154  O2  IDS d  61      15.518  34.575  52.947  0.00  0.00    -0.244 OA
ATOM    155  H   IDS d  61      16.305  35.753  50.671  0.00  0.00     0.134 H 
ATOM    156  H   IDS d  61      14.626  34.039  51.124  0.00  0.00     0.097 H 
ATOM    157  H   IDS d  61      14.455  31.978  50.736  0.00  0.00     0.210 HD
ATOM    158  H   IDS d  61      17.758  31.381  52.293  0.00  0.00     0.085 H 
ATOM    159  H   IDS d  61      15.519  32.152  52.794  0.00  0.00     0.093 H 
ENDROOT
TORSDOF 50
ENDMDL
MODEL 26
REMARK VINA RESULT:      -5.7      3.966     16.139
REMARK  0 active torsions:
REMARK  status: ('A' for Active; 'I' for Inactive)
REMARK       I    between atoms: O3S_3  and  S1_55 
REMARK       I    between atoms: O3_4  and  C3_87 
REMARK       I    between atoms: O4_5  and  C1_15 
REMARK       I    between atoms: O4_5  and  C4_57 
REMARK       I    between atoms: O4_7  and  C1_36 
REMARK       I    between atoms: O4_7  and  C4_89 
REMARK       I    between atoms: C4_8  and  O4_18 
REMARK       I    between atoms: C2_9  and  O2_84 
REMARK       I    between atoms: C6_10  and  C5_32 
REMARK       I    between atoms: C6_10  and  O6_102 
REMARK       I    between atoms: O6_11  and  C6_93 
REMARK       I    between atoms: O6_11  and  S2_25 
REMARK       I    between atoms: C1_13  and  O4_74 
REMARK       I    between atoms: C3_14  and  O3_71 
REMARK       I    between atoms: O4_18  and  C1_54 
REMARK       I    between atoms: S2_19  and  O6_39 
REMARK       I    between atoms: O2S_21  and  S1_45 
REMARK       I    between atoms: C5_22  and  C6_23 
REMARK       I    between atoms: C5_24  and  C6_77 
REMARK       I    between atoms: O1_27  and  C1_48 
REMARK       I    between atoms: C5_28  and  C6_30 
REMARK       I    between atoms: C5_29  and  C6_93 
REMARK       I    between atoms: O1S_31  and  S1_44 
REMARK       I    between atoms: C3_33  and  O3_69 
REMARK       I    between atoms: C2_37  and  N_99 
REMARK       I    between atoms: S2_38  and  O6_102 
REMARK       I    between atoms: O6_39  and  C6_77 
REMARK       I    between atoms: C2_40  and  O2_103 
REMARK       I    between atoms: O3S_42  and  S1_44 
REMARK       I    between atoms: S1_44  and  N_99 
REMARK       I    between atoms: S1_44  and  O2S_81 
REMARK       I    between atoms: S1_45  and  N_94 
REMARK       I    between atoms: S1_45  and  O1S_46 
REMARK       I    between atoms: S1_45  and  O3S_58 
REMARK       I    between atoms: O3_52  and  C3_105 
REMARK       I    between atoms: S1_55  and  N_100 
REMARK       I    between atoms: S1_55  and  O1S_79 
REMARK       I    between atoms: S1_55  and  O2S_83 
REMARK       I    between atoms: O3_56  and  C3_64 
REMARK       I    between atoms: C4_60  and  O4_61 
REMARK       I    between atoms: O4_61  and  C1_73 
REMARK       I    between atoms: C6_63  and  C5_80 
REMARK       I    between atoms: C3_65  and  O3_82 
REMARK       I    between atoms: S_67  and  O2_84 
REMARK       I    between atoms: C2_68  and  O2_98 
REMARK       I    between atoms: O4_74  and  C4_97 
REMARK       I    between atoms: C2_85  and  N_94 
REMARK       I    between atoms: C2_95  and  N_100 
REMARK       I    between atoms: O2_98  and  S_104 
REMARK       I    between atoms: S_101  and  O2_103 
ROOT
ATOM      1  O6S SGN d  66      16.903  34.135  32.396  0.00  0.00    -0.572 OA
ATOM      2  C4  SGN d  66      19.523  31.736  35.601  0.00  0.00     0.095 C 
ATOM      3  C6  SGN d  66      17.248  31.001  34.789  0.00  0.00     0.067 C 
ATOM      4  O4  SGN d  66      18.875  32.531  36.702  0.00  0.00    -0.348 OA
ATOM      5  O5S SGN d  66      15.358  33.500  34.089  0.00  0.00    -0.572 OA
ATOM      6  O2S SGN d  66      23.602  28.601  33.150  0.00  0.00    -0.296 OA
ATOM      7  O5  SGN d  66      19.299  29.746  34.178  0.00  0.00    -0.350 OA
ATOM      8  O1  SGN d  66      20.611  28.444  35.719  0.00  0.00    -0.369 OA
ATOM      9  C5  SGN d  66      18.645  30.529  35.235  0.00  0.00     0.091 C 
ATOM     10  S2  SGN d  66      16.766  33.532  33.706  0.00  0.00     0.251 S 
ATOM     11  S1  SGN d  66      23.632  28.555  34.598  0.00  0.00     0.156 S 
ATOM     12  O1S SGN d  66      24.996  28.507  35.103  0.00  0.00    -0.296 OA
ATOM     13  C1  SGN d  66      20.635  29.253  34.527  0.00  0.00     0.147 C 
ATOM     14  O3S SGN d  66      22.941  27.376  35.098  0.00  0.00    -0.296 OA
ATOM     15  C3  SGN d  66      20.948  31.292  35.970  0.00  0.00     0.083 C 
ATOM     16  O3  SGN d  66      21.772  32.445  36.141  0.00  0.00    -0.391 OA
ATOM     17  C2  SGN d  66      21.529  30.477  34.812  0.00  0.00     0.081 C 
ATOM     18  O4S SGN d  66      17.552  34.295  34.666  0.00  0.00    -0.572 OA
ATOM     19  N   SGN d  66      22.892  30.069  35.181  0.00  0.00    -0.210 NA
ATOM     20  O6  SGN d  66      17.343  31.850  33.622  0.00  0.00    -0.254 OA
ATOM     21  H   SGN d  66      19.611  32.372  34.745  0.00  0.00     0.091 H 
ATOM     22  H   SGN d  66      16.792  31.550  35.587  0.00  0.00     0.080 H 
ATOM     23  H   SGN d  66      16.657  30.143  34.544  0.00  0.00     0.080 H 
ATOM     24  H   SGN d  66      24.067  29.394  32.842  0.00  0.00     0.231 HD
ATOM     25  H   SGN d  66      20.055  27.664  35.569  0.00  0.00     0.212 HD
ATOM     26  H   SGN d  66      18.522  29.905  36.095  0.00  0.00     0.090 H 
ATOM     27  H   SGN d  66      25.485  29.282  34.785  0.00  0.00     0.231 HD
ATOM     28  H   SGN d  66      21.000  28.658  33.717  0.00  0.00     0.131 H 
ATOM     29  H   SGN d  66      22.025  27.377  34.779  0.00  0.00     0.231 HD
ATOM     30  H   SGN d  66      20.918  30.715  36.870  0.00  0.00     0.089 H 
ATOM     31  H   SGN d  66      21.787  32.956  35.317  0.00  0.00     0.210 HD
ATOM     32  H   SGN d  66      21.564  31.063  33.917  0.00  0.00     0.076 H 
ATOM     33  H   SGN d  66      23.507  30.821  34.870  0.00  0.00     0.140 HD
ATOM     34  O61 IDS d  65      22.194  31.879  40.266  0.00  0.00    -0.646 OA
ATOM     35  O3  IDS d  65      16.947  32.531  40.466  0.00  0.00    -0.390 OA
ATOM     36  C5  IDS d  65      20.342  32.582  38.930  0.00  0.00     0.152 C 
ATOM     37  C6  IDS d  65      21.821  32.693  39.386  0.00  0.00     0.206 C 
ATOM     38  O5  IDS d  65      20.081  33.661  37.980  0.00  0.00    -0.340 OA
ATOM     39  C1  IDS d  65      18.736  33.735  37.441  0.00  0.00     0.161 C 
ATOM     40  O1S IDS d  65      14.214  32.718  39.376  0.00  0.00    -0.572 OA
ATOM     41  C4  IDS d  65      19.303  32.575  40.106  0.00  0.00     0.103 C 
ATOM     42  O4  IDS d  65      20.146  32.760  41.246  0.00  0.00    -0.348 OA
ATOM     43  C2  IDS d  65      17.659  32.979  38.277  0.00  0.00     0.134 C 
ATOM     44  O62 IDS d  65      22.573  33.561  38.849  0.00  0.00    -0.646 OA
ATOM     45  C3  IDS d  65      17.933  33.186  39.732  0.00  0.00     0.094 C 
ATOM     46  O2S IDS d  65      15.610  31.064  38.375  0.00  0.00    -0.572 OA
ATOM     47  O3S IDS d  65      14.188  32.375  37.000  0.00  0.00    -0.572 OA
ATOM     48  O2  IDS d  65      16.371  33.522  38.031  0.00  0.00    -0.244 OA
ATOM     49  S   IDS d  65      15.016  32.374  38.202  0.00  0.00     0.252 S 
ATOM     50  H   IDS d  65      17.112  32.656  41.414  0.00  0.00     0.210 HD
ATOM     51  H   IDS d  65      20.209  31.628  38.465  0.00  0.00     0.104 H 
ATOM     52  H   IDS d  65      18.494  34.739  37.160  0.00  0.00     0.133 H 
ATOM     53  H   IDS d  65      18.720  31.733  40.414  0.00  0.00     0.092 H 
ATOM     54  H   IDS d  65      17.695  31.945  38.005  0.00  0.00     0.097 H 
ATOM     55  H   IDS d  65      17.937  34.234  39.947  0.00  0.00     0.091 H 
ATOM     56  O3S SGN d  62      24.509  39.803  45.140  0.00  0.00    -0.296 OA
ATOM     57  C1  SGN d  62      22.182  39.142  47.634  0.00  0.00     0.150 C 
ATOM     58  S2  SGN d  62      18.363  39.411  52.185  0.00  0.00     0.251 S 
ATOM     59  C5  SGN d  62      21.328  39.681  49.911  0.00  0.00     0.091 C 
ATOM     60  O5  SGN d  62      21.182  39.811  48.468  0.00  0.00    -0.349 OA
ATOM     61  O4S SGN d  62      17.560  40.577  52.348  0.00  0.00    -0.572 OA
ATOM     62  O6  SGN d  62      20.016  39.864  51.841  0.00  0.00    -0.254 OA
ATOM     63  O3  SGN d  62      25.035  39.671  49.985  0.00  0.00    -0.391 OA
ATOM     64  S1  SGN d  62      25.413  39.361  46.177  0.00  0.00     0.156 S 
ATOM     65  O6S SGN d  62      17.878  38.527  51.128  0.00  0.00    -0.572 OA
ATOM     66  O4  SGN d  62      22.798  40.077  51.764  0.00  0.00    -0.348 OA
ATOM     67  C6  SGN d  62      20.210  40.455  50.568  0.00  0.00     0.067 C 
ATOM     68  O5S SGN d  62      18.413  38.663  53.412  0.00  0.00    -0.572 OA
ATOM     69  O1S SGN d  62      26.338  38.357  45.695  0.00  0.00    -0.296 OA
ATOM     70  O2S SGN d  62      26.083  40.517  46.699  0.00  0.00    -0.296 OA
ATOM     71  C2  SGN d  62      23.569  39.524  48.134  0.00  0.00     0.081 C 
ATOM     72  C4  SGN d  62      22.704  40.211  50.348  0.00  0.00     0.095 C 
ATOM     73  N   SGN d  62      24.528  38.668  47.512  0.00  0.00    -0.210 NA
ATOM     74  C3  SGN d  62      23.725  39.306  49.642  0.00  0.00     0.083 C 
ATOM     75  H   SGN d  62      24.043  39.037  44.770  0.00  0.00     0.231 HD
ATOM     76  H   SGN d  62      22.000  39.464  46.630  0.00  0.00     0.131 H 
ATOM     77  H   SGN d  62      21.268  38.654  50.205  0.00  0.00     0.090 H 
ATOM     78  H   SGN d  62      25.663  39.088  49.530  0.00  0.00     0.210 HD
ATOM     79  H   SGN d  62      19.315  40.382  49.986  0.00  0.00     0.080 H 
ATOM     80  H   SGN d  62      20.452  41.494  50.654  0.00  0.00     0.080 H 
ATOM     81  H   SGN d  62      25.841  37.598  45.352  0.00  0.00     0.231 HD
ATOM     82  H   SGN d  62      25.426  41.160  47.009  0.00  0.00     0.231 HD
ATOM     83  H   SGN d  62      23.711  40.559  47.905  0.00  0.00     0.076 H 
ATOM     84  H   SGN d  62      22.868  41.239  50.098  0.00  0.00     0.091 H 
ATOM     85  H   SGN d  62      25.203  38.387  48.223  0.00  0.00     0.140 HD
ATOM     86  H   SGN d  62      23.554  38.289  49.929  0.00  0.00     0.089 H 
ATOM     87  O4  IDS d  63      22.092  37.712  47.645  0.00  0.00    -0.348 OA
ATOM     88  O62 IDS d  63      19.853  34.860  48.316  0.00  0.00    -0.646 OA
ATOM     89  C2  IDS d  63      23.898  35.933  45.849  0.00  0.00     0.134 C 
ATOM     90  O2S IDS d  63      26.591  34.826  46.926  0.00  0.00    -0.572 OA
ATOM     91  O61 IDS d  63      18.947  36.574  47.354  0.00  0.00    -0.646 OA
ATOM     92  C3  IDS d  63      22.985  37.071  45.371  0.00  0.00     0.094 C 
ATOM     93  C1  IDS d  63      23.097  34.604  45.922  0.00  0.00     0.161 C 
ATOM     94  O5  IDS d  63      22.043  34.776  46.904  0.00  0.00    -0.340 OA
ATOM     95  C4  IDS d  63      21.747  37.214  46.358  0.00  0.00     0.103 C 
ATOM     96  C6  IDS d  63      19.865  35.765  47.480  0.00  0.00     0.206 C 
ATOM     97  S   IDS d  63      25.517  35.115  47.867  0.00  0.00     0.252 S 
ATOM     98  O3  IDS d  63      22.547  36.671  44.091  0.00  0.00    -0.390 OA
ATOM     99  C5  IDS d  63      21.062  35.832  46.536  0.00  0.00     0.152 C 
ATOM    100  O2  IDS d  63      24.467  36.299  47.078  0.00  0.00    -0.244 OA
ATOM    101  O1S IDS d  63      25.997  35.762  49.075  0.00  0.00    -0.572 OA
ATOM    102  O3S IDS d  63      24.886  33.865  48.175  0.00  0.00    -0.572 OA
ATOM    103  H   IDS d  63      24.696  35.767  45.156  0.00  0.00     0.097 H 
ATOM    104  H   IDS d  63      23.485  38.016  45.346  0.00  0.00     0.091 H 
ATOM    105  H   IDS d  63      23.670  33.755  46.232  0.00  0.00     0.133 H 
ATOM    106  H   IDS d  63      21.091  37.928  45.907  0.00  0.00     0.092 H 
ATOM    107  H   IDS d  63      22.100  35.813  44.155  0.00  0.00     0.210 HD
ATOM    108  H   IDS d  63      20.653  35.657  45.563  0.00  0.00     0.104 H 
ATOM    109  O4  SGN d  64      22.600  34.373  44.568  0.00  0.00    -0.348 OA
ATOM    110  O6  SGN d  64      23.898  30.677  43.197  0.00  0.00    -0.254 OA
ATOM    111  C3  SGN d  64      20.355  33.698  43.867  0.00  0.00     0.083 C 
ATOM    112  S2  SGN d  64      23.257  29.719  44.558  0.00  0.00     0.251 S 
ATOM    113  C5  SGN d  64      22.399  32.569  42.988  0.00  0.00     0.091 C 
ATOM    114  O1S SGN d  64      16.385  31.675  44.650  0.00  0.00    -0.296 OA
ATOM    115  C2  SGN d  64      19.540  32.494  43.509  0.00  0.00     0.081 C 
ATOM    116  O4S SGN d  64      23.977  30.105  45.745  0.00  0.00    -0.572 OA
ATOM    117  O3S SGN d  64      17.432  33.576  45.609  0.00  0.00    -0.296 OA
ATOM    118  S1  SGN d  64      16.935  32.993  44.375  0.00  0.00     0.156 S 
ATOM    119  O6S SGN d  64      21.840  29.953  44.747  0.00  0.00    -0.572 OA
ATOM    120  O5S SGN d  64      23.470  28.325  44.276  0.00  0.00    -0.572 OA
ATOM    121  O3  SGN d  64      19.727  34.284  44.948  0.00  0.00    -0.391 OA
ATOM    122  C1  SGN d  64      20.172  31.819  42.320  0.00  0.00     0.150 C 
ATOM    123  O2S SGN d  64      15.939  33.859  43.807  0.00  0.00    -0.296 OA
ATOM    124  C4  SGN d  64      21.789  33.236  44.234  0.00  0.00     0.095 C 
ATOM    125  O5  SGN d  64      21.528  31.450  42.650  0.00  0.00    -0.349 OA
ATOM    126  C6  SGN d  64      23.805  32.092  43.287  0.00  0.00     0.067 C 
ATOM    127  N   SGN d  64      18.207  32.907  43.146  0.00  0.00    -0.210 NA
ATOM    128  H   SGN d  64      20.432  34.398  43.061  0.00  0.00     0.089 H 
ATOM    129  H   SGN d  64      22.468  33.254  42.168  0.00  0.00     0.090 H 
ATOM    130  H   SGN d  64      17.075  31.111  45.032  0.00  0.00     0.231 HD
ATOM    131  H   SGN d  64      19.500  31.826  44.344  0.00  0.00     0.076 H 
ATOM    132  H   SGN d  64      18.104  32.993  45.995  0.00  0.00     0.231 HD
ATOM    133  H   SGN d  64      19.662  33.641  45.672  0.00  0.00     0.210 HD
ATOM    134  H   SGN d  64      19.647  30.929  42.041  0.00  0.00     0.131 H 
ATOM    135  H   SGN d  64      15.202  33.956  44.430  0.00  0.00     0.231 HD
ATOM    136  H   SGN d  64      21.752  32.564  45.066  0.00  0.00     0.091 H 
ATOM    137  H   SGN d  64      24.479  32.532  42.583  0.00  0.00     0.080 H 
ATOM    138  H   SGN d  64      24.056  32.386  44.284  0.00  0.00     0.080 H 
ATOM    139  H   SGN d  64      17.882  32.255  42.432  0.00  0.00     0.140 HD
ATOM    140  C1  IDS d  61      23.219  41.279  52.443  0.00  0.00     0.167 C 
ATOM    141  O5  IDS d  61      24.583  41.592  52.057  0.00  0.00    -0.311 OA
ATOM    142  C5  IDS d  61      25.640  40.867  52.589  0.00  0.00     0.147 C 
ATOM    143  C6  IDS d  61      27.080  41.182  52.025  0.00  0.00     0.233 C 
ATOM    144  C2  IDS d  61      23.196  41.003  53.942  0.00  0.00     0.135 C 
ATOM    145  O1S IDS d  61      24.532  43.880  52.939  0.00  0.00    -0.572 OA
ATOM    146  O3S IDS d  61      22.187  44.054  53.470  0.00  0.00    -0.572 OA
ATOM    147  O3  IDS d  61      23.540  38.719  54.185  0.00  0.00    -0.389 OA
ATOM    148  C4  IDS d  61      25.478  40.005  53.633  0.00  0.00    -0.034 C 
ATOM    149  C3  IDS d  61      24.189  39.926  54.378  0.00  0.00     0.086 C 
ATOM    150  O61 IDS d  61      28.062  40.609  52.496  0.00  0.00    -0.642 OA
ATOM    151  O62 IDS d  61      27.224  42.042  51.121  0.00  0.00    -0.642 OA
ATOM    152  O2S IDS d  61      23.923  44.779  54.949  0.00  0.00    -0.572 OA
ATOM    153  S   IDS d  61      23.533  43.820  53.973  0.00  0.00     0.252 S 
ATOM    154  O2  IDS d  61      23.562  42.183  54.679  0.00  0.00    -0.244 OA
ATOM    155  H   IDS d  61      22.572  42.093  52.189  0.00  0.00     0.134 H 
ATOM    156  H   IDS d  61      22.196  40.681  54.146  0.00  0.00     0.097 H 
ATOM    157  H   IDS d  61      22.710  38.714  54.688  0.00  0.00     0.210 HD
ATOM    158  H   IDS d  61      26.263  39.396  53.913  0.00  0.00     0.085 H 
ATOM    159  H   IDS d  61      24.471  40.051  55.402  0.00  0.00     0.093 H 
ENDROOT
TORSDOF 50
ENDMDL
MODEL 27
REMARK VINA RESULT:      -5.7      5.626      9.403
REMARK  0 active torsions:
REMARK  status: ('A' for Active; 'I' for Inactive)
REMARK       I    between atoms: O3S_3  and  S1_55 
REMARK       I    between atoms: O3_4  and  C3_87 
REMARK       I    between atoms: O4_5  and  C1_15 
REMARK       I    between atoms: O4_5  and  C4_57 
REMARK       I    between atoms: O4_7  and  C1_36 
REMARK       I    between atoms: O4_7  and  C4_89 
REMARK       I    between atoms: C4_8  and  O4_18 
REMARK       I    between atoms: C2_9  and  O2_84 
REMARK       I    between atoms: C6_10  and  C5_32 
REMARK       I    between atoms: C6_10  and  O6_102 
REMARK       I    between atoms: O6_11  and  C6_93 
REMARK       I    between atoms: O6_11  and  S2_25 
REMARK       I    between atoms: C1_13  and  O4_74 
REMARK       I    between atoms: C3_14  and  O3_71 
REMARK       I    between atoms: O4_18  and  C1_54 
REMARK       I    between atoms: S2_19  and  O6_39 
REMARK       I    between atoms: O2S_21  and  S1_45 
REMARK       I    between atoms: C5_22  and  C6_23 
REMARK       I    between atoms: C5_24  and  C6_77 
REMARK       I    between atoms: O1_27  and  C1_48 
REMARK       I    between atoms: C5_28  and  C6_30 
REMARK       I    between atoms: C5_29  and  C6_93 
REMARK       I    between atoms: O1S_31  and  S1_44 
REMARK       I    between atoms: C3_33  and  O3_69 
REMARK       I    between atoms: C2_37  and  N_99 
REMARK       I    between atoms: S2_38  and  O6_102 
REMARK       I    between atoms: O6_39  and  C6_77 
REMARK       I    between atoms: C2_40  and  O2_103 
REMARK       I    between atoms: O3S_42  and  S1_44 
REMARK       I    between atoms: S1_44  and  N_99 
REMARK       I    between atoms: S1_44  and  O2S_81 
REMARK       I    between atoms: S1_45  and  N_94 
REMARK       I    between atoms: S1_45  and  O1S_46 
REMARK       I    between atoms: S1_45  and  O3S_58 
REMARK       I    between atoms: O3_52  and  C3_105 
REMARK       I    between atoms: S1_55  and  N_100 
REMARK       I    between atoms: S1_55  and  O1S_79 
REMARK       I    between atoms: S1_55  and  O2S_83 
REMARK       I    between atoms: O3_56  and  C3_64 
REMARK       I    between atoms: C4_60  and  O4_61 
REMARK       I    between atoms: O4_61  and  C1_73 
REMARK       I    between atoms: C6_63  and  C5_80 
REMARK       I    between atoms: C3_65  and  O3_82 
REMARK       I    between atoms: S_67  and  O2_84 
REMARK       I    between atoms: C2_68  and  O2_98 
REMARK       I    between atoms: O4_74  and  C4_97 
REMARK       I    between atoms: C2_85  and  N_94 
REMARK       I    between atoms: C2_95  and  N_100 
REMARK       I    between atoms: O2_98  and  S_104 
REMARK       I    between atoms: S_101  and  O2_103 
ROOT
ATOM      1  O6S SGN d  66      23.874  28.223  49.175  0.00  0.00    -0.572 OA
ATOM      2  C4  SGN d  66      19.580  29.818  47.791  0.00  0.00     0.095 C 
ATOM      3  C6  SGN d  66      20.336  27.418  47.592  0.00  0.00     0.067 C 
ATOM      4  O4  SGN d  66      20.146  30.111  46.428  0.00  0.00    -0.348 OA
ATOM      5  O5S SGN d  66      23.496  27.193  47.065  0.00  0.00    -0.572 OA
ATOM      6  O2S SGN d  66      15.973  30.396  52.165  0.00  0.00    -0.296 OA
ATOM      7  O5  SGN d  66      18.567  28.080  49.200  0.00  0.00    -0.350 OA
ATOM      8  O1  SGN d  66      16.357  28.801  48.576  0.00  0.00    -0.369 OA
ATOM      9  C5  SGN d  66      19.142  28.348  47.875  0.00  0.00     0.091 C 
ATOM     10  S2  SGN d  66      22.992  28.170  48.026  0.00  0.00     0.251 S 
ATOM     11  S1  SGN d  66      15.418  30.830  50.899  0.00  0.00     0.156 S 
ATOM     12  O1S SGN d  66      14.562  31.995  51.063  0.00  0.00    -0.296 OA
ATOM     13  C1  SGN d  66      17.417  28.922  49.545  0.00  0.00     0.147 C 
ATOM     14  O3S SGN d  66      14.612  29.780  50.294  0.00  0.00    -0.296 OA
ATOM     15  C3  SGN d  66      18.422  30.763  48.151  0.00  0.00     0.083 C 
ATOM     16  O3  SGN d  66      18.910  32.102  48.223  0.00  0.00    -0.391 OA
ATOM     17  C2  SGN d  66      17.891  30.390  49.538  0.00  0.00     0.081 C 
ATOM     18  O4S SGN d  66      22.908  29.496  47.429  0.00  0.00    -0.572 OA
ATOM     19  N   SGN d  66      16.791  31.308  49.866  0.00  0.00    -0.210 NA
ATOM     20  O6  SGN d  66      21.387  27.623  48.565  0.00  0.00    -0.254 OA
ATOM     21  H   SGN d  66      20.353  29.991  48.511  0.00  0.00     0.091 H 
ATOM     22  H   SGN d  66      20.718  27.625  46.614  0.00  0.00     0.080 H 
ATOM     23  H   SGN d  66      20.004  26.402  47.653  0.00  0.00     0.080 H 
ATOM     24  H   SGN d  66      16.505  31.111  52.547  0.00  0.00     0.231 HD
ATOM     25  H   SGN d  66      16.038  27.886  48.558  0.00  0.00     0.212 HD
ATOM     26  H   SGN d  66      18.394  28.157  47.134  0.00  0.00     0.090 H 
ATOM     27  H   SGN d  66      15.071  32.716  51.466  0.00  0.00     0.231 HD
ATOM     28  H   SGN d  66      17.045  28.615  50.499  0.00  0.00     0.131 H 
ATOM     29  H   SGN d  66      15.155  28.985  50.170  0.00  0.00     0.231 HD
ATOM     30  H   SGN d  66      17.654  30.682  47.411  0.00  0.00     0.089 H 
ATOM     31  H   SGN d  66      19.605  32.157  48.898  0.00  0.00     0.210 HD
ATOM     32  H   SGN d  66      18.662  30.481  50.275  0.00  0.00     0.076 H 
ATOM     33  H   SGN d  66      17.220  32.113  50.322  0.00  0.00     0.140 HD
ATOM     34  O61 IDS d  65      16.816  33.347  44.820  0.00  0.00    -0.646 OA
ATOM     35  O3  IDS d  65      19.742  29.778  42.232  0.00  0.00    -0.390 OA
ATOM     36  C5  IDS d  65      18.723  31.933  45.096  0.00  0.00     0.152 C 
ATOM     37  C6  IDS d  65      17.959  33.262  45.335  0.00  0.00     0.206 C 
ATOM     38  O5  IDS d  65      20.051  32.064  45.690  0.00  0.00    -0.340 OA
ATOM     39  C1  IDS d  65      20.931  30.917  45.562  0.00  0.00     0.161 C 
ATOM     40  O1S IDS d  65      21.558  27.472  41.962  0.00  0.00    -0.572 OA
ATOM     41  C4  IDS d  65      18.796  31.491  43.592  0.00  0.00     0.103 C 
ATOM     42  O4  IDS d  65      18.153  32.585  42.932  0.00  0.00    -0.348 OA
ATOM     43  C2  IDS d  65      20.533  29.917  44.435  0.00  0.00     0.134 C 
ATOM     44  O62 IDS d  65      18.496  34.170  46.038  0.00  0.00    -0.646 OA
ATOM     45  C3  IDS d  65      20.066  30.683  43.240  0.00  0.00     0.094 C 
ATOM     46  O2S IDS d  65      19.909  27.288  43.675  0.00  0.00    -0.572 OA
ATOM     47  O3S IDS d  65      22.120  26.537  44.101  0.00  0.00    -0.572 OA
ATOM     48  O2  IDS d  65      21.665  29.170  44.014  0.00  0.00    -0.244 OA
ATOM     49  S   IDS d  65      21.311  27.532  43.402  0.00  0.00     0.252 S 
ATOM     50  H   IDS d  65      19.436  30.262  41.449  0.00  0.00     0.210 HD
ATOM     51  H   IDS d  65      18.174  31.145  45.568  0.00  0.00     0.104 H 
ATOM     52  H   IDS d  65      21.957  31.222  45.580  0.00  0.00     0.133 H 
ATOM     53  H   IDS d  65      18.280  30.658  43.164  0.00  0.00     0.092 H 
ATOM     54  H   IDS d  65      19.773  29.270  44.820  0.00  0.00     0.097 H 
ATOM     55  H   IDS d  65      20.839  31.351  42.922  0.00  0.00     0.091 H 
ATOM     56  O3S SGN d  62      20.458  41.117  40.545  0.00  0.00    -0.296 OA
ATOM     57  C1  SGN d  62      20.147  39.718  37.380  0.00  0.00     0.150 C 
ATOM     58  S2  SGN d  62      20.577  38.334  31.612  0.00  0.00     0.251 S 
ATOM     59  C5  SGN d  62      20.194  40.062  34.913  0.00  0.00     0.091 C 
ATOM     60  O5  SGN d  62      20.870  39.589  36.113  0.00  0.00    -0.349 OA
ATOM     61  O4S SGN d  62      21.843  38.437  30.967  0.00  0.00    -0.572 OA
ATOM     62  O6  SGN d  62      20.287  39.749  32.595  0.00  0.00    -0.254 OA
ATOM     63  O3  SGN d  62      18.417  42.906  36.496  0.00  0.00    -0.391 OA
ATOM     64  S1  SGN d  62      19.314  41.867  40.081  0.00  0.00     0.156 S 
ATOM     65  O6S SGN d  62      20.456  37.139  32.443  0.00  0.00    -0.572 OA
ATOM     66  O4  SGN d  62      19.178  41.971  33.873  0.00  0.00    -0.348 OA
ATOM     67  C6  SGN d  62      21.118  39.851  33.738  0.00  0.00     0.067 C 
ATOM     68  O5S SGN d  62      19.519  38.315  30.638  0.00  0.00    -0.572 OA
ATOM     69  O1S SGN d  62      18.232  41.853  41.044  0.00  0.00    -0.296 OA
ATOM     70  O2S SGN d  62      19.754  43.197  39.772  0.00  0.00    -0.296 OA
ATOM     71  C2  SGN d  62      19.632  41.145  37.505  0.00  0.00     0.081 C 
ATOM     72  C4  SGN d  62      19.825  41.547  35.071  0.00  0.00     0.095 C 
ATOM     73  N   SGN d  62      18.703  41.199  38.589  0.00  0.00    -0.210 NA
ATOM     74  C3  SGN d  62      18.856  41.595  36.263  0.00  0.00     0.083 C 
ATOM     75  H   SGN d  62      20.185  40.211  40.761  0.00  0.00     0.231 HD
ATOM     76  H   SGN d  62      20.843  39.459  38.150  0.00  0.00     0.131 H 
ATOM     77  H   SGN d  62      19.287  39.519  34.753  0.00  0.00     0.090 H 
ATOM     78  H   SGN d  62      17.808  42.914  37.250  0.00  0.00     0.210 HD
ATOM     79  H   SGN d  62      21.683  38.951  33.867  0.00  0.00     0.080 H 
ATOM     80  H   SGN d  62      21.817  40.656  33.642  0.00  0.00     0.080 H 
ATOM     81  H   SGN d  62      17.969  40.936  41.221  0.00  0.00     0.231 HD
ATOM     82  H   SGN d  62      20.476  43.157  39.126  0.00  0.00     0.231 HD
ATOM     83  H   SGN d  62      20.484  41.776  37.644  0.00  0.00     0.076 H 
ATOM     84  H   SGN d  62      20.668  42.184  35.239  0.00  0.00     0.091 H 
ATOM     85  H   SGN d  62      17.910  41.768  38.293  0.00  0.00     0.140 HD
ATOM     86  H   SGN d  62      18.012  40.970  36.058  0.00  0.00     0.089 H 
ATOM     87  O4  IDS d  63      19.026  38.834  37.506  0.00  0.00    -0.348 OA
ATOM     88  O62 IDS d  63      17.532  35.699  36.269  0.00  0.00    -0.646 OA
ATOM     89  C2  IDS d  63      17.360  38.652  40.122  0.00  0.00     0.134 C 
ATOM     90  O2S IDS d  63      14.820  40.398  40.500  0.00  0.00    -0.572 OA
ATOM     91  O61 IDS d  63      19.683  35.697  36.509  0.00  0.00    -0.646 OA
ATOM     92  C3  IDS d  63      18.878  38.462  40.000  0.00  0.00     0.094 C 
ATOM     93  C1  IDS d  63      16.633  37.303  39.865  0.00  0.00     0.161 C 
ATOM     94  O5  IDS d  63      16.926  36.894  38.505  0.00  0.00    -0.340 OA
ATOM     95  C4  IDS d  63      19.232  37.898  38.557  0.00  0.00     0.103 C 
ATOM     96  C6  IDS d  63      18.552  35.973  36.904  0.00  0.00     0.206 C 
ATOM     97  S   IDS d  63      15.232  40.029  39.152  0.00  0.00     0.252 S 
ATOM     98  O3  IDS d  63      19.206  37.513  40.991  0.00  0.00    -0.390 OA
ATOM     99  C5  IDS d  63      18.372  36.639  38.265  0.00  0.00     0.152 C 
ATOM    100  O2  IDS d  63      16.961  39.666  39.239  0.00  0.00    -0.244 OA
ATOM    101  O1S IDS d  63      15.111  41.129  38.213  0.00  0.00    -0.572 OA
ATOM    102  O3S IDS d  63      14.408  38.926  38.752  0.00  0.00    -0.572 OA
ATOM    103  H   IDS d  63      17.092  38.956  41.112  0.00  0.00     0.097 H 
ATOM    104  H   IDS d  63      19.418  39.376  40.128  0.00  0.00     0.091 H 
ATOM    105  H   IDS d  63      15.567  37.349  39.950  0.00  0.00     0.133 H 
ATOM    106  H   IDS d  63      20.278  37.669  38.578  0.00  0.00     0.092 H 
ATOM    107  H   IDS d  63      18.697  36.700  40.841  0.00  0.00     0.210 HD
ATOM    108  H   IDS d  63      18.760  35.933  38.969  0.00  0.00     0.104 H 
ATOM    109  O4  SGN d  64      17.150  36.382  40.875  0.00  0.00    -0.348 OA
ATOM    110  O6  SGN d  64      14.020  34.845  43.124  0.00  0.00    -0.254 OA
ATOM    111  C3  SGN d  64      17.903  34.073  40.584  0.00  0.00     0.083 C 
ATOM    112  S2  SGN d  64      13.071  34.220  41.750  0.00  0.00     0.251 S 
ATOM    113  C5  SGN d  64      16.332  34.720  42.411  0.00  0.00     0.091 C 
ATOM    114  O1S SGN d  64      17.856  30.125  38.375  0.00  0.00    -0.296 OA
ATOM    115  C2  SGN d  64      17.433  32.655  40.687  0.00  0.00     0.081 C 
ATOM    116  O4S SGN d  64      12.632  35.348  40.969  0.00  0.00    -0.572 OA
ATOM    117  O3S SGN d  64      18.572  32.300  37.754  0.00  0.00    -0.296 OA
ATOM    118  S1  SGN d  64      18.762  31.215  38.700  0.00  0.00     0.156 S 
ATOM    119  O6S SGN d  64      13.861  33.330  40.925  0.00  0.00    -0.572 OA
ATOM    120  O5S SGN d  64      11.938  33.500  42.268  0.00  0.00    -0.572 OA
ATOM    121  O3  SGN d  64      18.297  34.255  39.272  0.00  0.00    -0.391 OA
ATOM    122  C1  SGN d  64      17.003  32.391  42.107  0.00  0.00     0.150 C 
ATOM    123  O2S SGN d  64      20.130  30.779  38.655  0.00  0.00    -0.296 OA
ATOM    124  C4  SGN d  64      16.725  35.013  40.952  0.00  0.00     0.095 C 
ATOM    125  O5  SGN d  64      15.952  33.314  42.461  0.00  0.00    -0.349 OA
ATOM    126  C6  SGN d  64      15.180  35.610  42.829  0.00  0.00     0.067 C 
ATOM    127  N   SGN d  64      18.522  31.764  40.367  0.00  0.00    -0.210 NA
ATOM    128  H   SGN d  64      18.714  34.288  41.247  0.00  0.00     0.089 H 
ATOM    129  H   SGN d  64      17.140  34.917  43.084  0.00  0.00     0.090 H 
ATOM    130  H   SGN d  64      16.941  30.444  38.412  0.00  0.00     0.231 HD
ATOM    131  H   SGN d  64      16.620  32.494  40.011  0.00  0.00     0.076 H 
ATOM    132  H   SGN d  64      17.648  32.596  37.782  0.00  0.00     0.231 HD
ATOM    133  H   SGN d  64      17.554  34.057  38.680  0.00  0.00     0.210 HD
ATOM    134  H   SGN d  64      16.625  31.398  42.231  0.00  0.00     0.131 H 
ATOM    135  H   SGN d  64      20.338  30.460  37.763  0.00  0.00     0.231 HD
ATOM    136  H   SGN d  64      15.908  34.852  40.280  0.00  0.00     0.091 H 
ATOM    137  H   SGN d  64      15.465  36.163  43.699  0.00  0.00     0.080 H 
ATOM    138  H   SGN d  64      14.953  36.271  42.019  0.00  0.00     0.080 H 
ATOM    139  H   SGN d  64      18.395  30.928  40.937  0.00  0.00     0.140 HD
ATOM    140  C1  IDS d  61      19.718  43.183  33.309  0.00  0.00     0.167 C 
ATOM    141  O5  IDS d  61      19.466  44.287  34.218  0.00  0.00    -0.311 OA
ATOM    142  C5  IDS d  61      18.195  44.839  34.306  0.00  0.00     0.147 C 
ATOM    143  C6  IDS d  61      17.971  45.947  35.407  0.00  0.00     0.233 C 
ATOM    144  C2  IDS d  61      18.984  43.462  32.003  0.00  0.00     0.135 C 
ATOM    145  O1S IDS d  61      21.039  45.822  33.131  0.00  0.00    -0.572 OA
ATOM    146  O3S IDS d  61      22.097  44.294  31.596  0.00  0.00    -0.572 OA
ATOM    147  O3  IDS d  61      16.885  42.491  32.222  0.00  0.00    -0.389 OA
ATOM    148  C4  IDS d  61      17.210  44.538  33.414  0.00  0.00    -0.034 C 
ATOM    149  C3  IDS d  61      17.491  43.734  32.190  0.00  0.00     0.086 C 
ATOM    150  O61 IDS d  61      16.880  46.511  35.496  0.00  0.00    -0.642 OA
ATOM    151  O62 IDS d  61      18.915  46.275  36.167  0.00  0.00    -0.642 OA
ATOM    152  O2S IDS d  61      21.354  46.479  30.966  0.00  0.00    -0.572 OA
ATOM    153  S   IDS d  61      21.100  45.338  31.777  0.00  0.00     0.252 S 
ATOM    154  O2  IDS d  61      19.512  44.638  31.366  0.00  0.00    -0.244 OA
ATOM    155  H   IDS d  61      20.771  43.079  33.146  0.00  0.00     0.134 H 
ATOM    156  H   IDS d  61      19.122  42.576  31.418  0.00  0.00     0.097 H 
ATOM    157  H   IDS d  61      17.096  42.007  31.408  0.00  0.00     0.210 HD
ATOM    158  H   IDS d  61      16.249  44.872  33.589  0.00  0.00     0.085 H 
ATOM    159  H   IDS d  61      17.104  44.330  31.391  0.00  0.00     0.093 H 
ENDROOT
TORSDOF 50
ENDMDL
MODEL 28
REMARK VINA RESULT:      -5.7      4.279      6.099
REMARK  0 active torsions:
REMARK  status: ('A' for Active; 'I' for Inactive)
REMARK       I    between atoms: O3S_3  and  S1_55 
REMARK       I    between atoms: O3_4  and  C3_87 
REMARK       I    between atoms: O4_5  and  C1_15 
REMARK       I    between atoms: O4_5  and  C4_57 
REMARK       I    between atoms: O4_7  and  C1_36 
REMARK       I    between atoms: O4_7  and  C4_89 
REMARK       I    between atoms: C4_8  and  O4_18 
REMARK       I    between atoms: C2_9  and  O2_84 
REMARK       I    between atoms: C6_10  and  C5_32 
REMARK       I    between atoms: C6_10  and  O6_102 
REMARK       I    between atoms: O6_11  and  C6_93 
REMARK       I    between atoms: O6_11  and  S2_25 
REMARK       I    between atoms: C1_13  and  O4_74 
REMARK       I    between atoms: C3_14  and  O3_71 
REMARK       I    between atoms: O4_18  and  C1_54 
REMARK       I    between atoms: S2_19  and  O6_39 
REMARK       I    between atoms: O2S_21  and  S1_45 
REMARK       I    between atoms: C5_22  and  C6_23 
REMARK       I    between atoms: C5_24  and  C6_77 
REMARK       I    between atoms: O1_27  and  C1_48 
REMARK       I    between atoms: C5_28  and  C6_30 
REMARK       I    between atoms: C5_29  and  C6_93 
REMARK       I    between atoms: O1S_31  and  S1_44 
REMARK       I    between atoms: C3_33  and  O3_69 
REMARK       I    between atoms: C2_37  and  N_99 
REMARK       I    between atoms: S2_38  and  O6_102 
REMARK       I    between atoms: O6_39  and  C6_77 
REMARK       I    between atoms: C2_40  and  O2_103 
REMARK       I    between atoms: O3S_42  and  S1_44 
REMARK       I    between atoms: S1_44  and  N_99 
REMARK       I    between atoms: S1_44  and  O2S_81 
REMARK       I    between atoms: S1_45  and  N_94 
REMARK       I    between atoms: S1_45  and  O1S_46 
REMARK       I    between atoms: S1_45  and  O3S_58 
REMARK       I    between atoms: O3_52  and  C3_105 
REMARK       I    between atoms: S1_55  and  N_100 
REMARK       I    between atoms: S1_55  and  O1S_79 
REMARK       I    between atoms: S1_55  and  O2S_83 
REMARK       I    between atoms: O3_56  and  C3_64 
REMARK       I    between atoms: C4_60  and  O4_61 
REMARK       I    between atoms: O4_61  and  C1_73 
REMARK       I    between atoms: C6_63  and  C5_80 
REMARK       I    between atoms: C3_65  and  O3_82 
REMARK       I    between atoms: S_67  and  O2_84 
REMARK       I    between atoms: C2_68  and  O2_98 
REMARK       I    between atoms: O4_74  and  C4_97 
REMARK       I    between atoms: C2_85  and  N_94 
REMARK       I    between atoms: C2_95  and  N_100 
REMARK       I    between atoms: O2_98  and  S_104 
REMARK       I    between atoms: S_101  and  O2_103 
ROOT
ATOM      1  O6S SGN d  66      20.183  49.625  46.815  0.00  0.00    -0.572 OA
ATOM      2  C4  SGN d  66      17.963  45.615  48.190  0.00  0.00     0.095 C 
ATOM      3  C6  SGN d  66      19.720  46.807  49.557  0.00  0.00     0.067 C 
ATOM      4  O4  SGN d  66      19.037  44.808  47.512  0.00  0.00    -0.348 OA
ATOM      5  O5S SGN d  66      21.909  48.251  47.704  0.00  0.00    -0.572 OA
ATOM      6  O2S SGN d  66      12.776  46.634  50.319  0.00  0.00    -0.296 OA
ATOM      7  O5  SGN d  66      17.344  46.764  50.271  0.00  0.00    -0.350 OA
ATOM      8  O1  SGN d  66      16.193  44.804  51.061  0.00  0.00    -0.369 OA
ATOM      9  C5  SGN d  66      18.409  45.999  49.610  0.00  0.00     0.091 C 
ATOM     10  S2  SGN d  66      20.498  48.308  47.332  0.00  0.00     0.251 S 
ATOM     11  S1  SGN d  66      13.102  45.224  50.245  0.00  0.00     0.156 S 
ATOM     12  O1S SGN d  66      11.938  44.425  49.894  0.00  0.00    -0.296 OA
ATOM     13  C1  SGN d  66      16.061  46.060  50.367  0.00  0.00     0.147 C 
ATOM     14  O3S SGN d  66      13.597  44.734  51.523  0.00  0.00    -0.296 OA
ATOM     15  C3  SGN d  66      16.614  44.878  48.214  0.00  0.00     0.083 C 
ATOM     16  O3  SGN d  66      16.157  44.687  46.875  0.00  0.00    -0.391 OA
ATOM     17  C2  SGN d  66      15.584  45.753  48.933  0.00  0.00     0.081 C 
ATOM     18  O4S SGN d  66      20.184  47.311  46.318  0.00  0.00    -0.572 OA
ATOM     19  N   SGN d  66      14.301  45.036  48.939  0.00  0.00    -0.210 NA
ATOM     20  O6  SGN d  66      19.538  48.029  48.805  0.00  0.00    -0.254 OA
ATOM     21  H   SGN d  66      17.816  46.508  47.620  0.00  0.00     0.091 H 
ATOM     22  H   SGN d  66      20.478  46.216  49.088  0.00  0.00     0.080 H 
ATOM     23  H   SGN d  66      20.009  47.059  50.557  0.00  0.00     0.080 H 
ATOM     24  H   SGN d  66      12.450  46.936  49.457  0.00  0.00     0.231 HD
ATOM     25  H   SGN d  66      16.492  44.966  51.969  0.00  0.00     0.212 HD
ATOM     26  H   SGN d  66      18.594  45.111  50.177  0.00  0.00     0.090 H 
ATOM     27  H   SGN d  66      11.582  44.728  49.044  0.00  0.00     0.231 HD
ATOM     28  H   SGN d  66      15.374  46.678  50.905  0.00  0.00     0.131 H 
ATOM     29  H   SGN d  66      14.376  45.248  51.787  0.00  0.00     0.231 HD
ATOM     30  H   SGN d  66      16.732  43.938  48.709  0.00  0.00     0.089 H 
ATOM     31  H   SGN d  66      16.056  45.549  46.442  0.00  0.00     0.210 HD
ATOM     32  H   SGN d  66      15.465  46.690  48.428  0.00  0.00     0.076 H 
ATOM     33  H   SGN d  66      13.825  45.302  48.077  0.00  0.00     0.140 HD
ATOM     34  O61 IDS d  65      16.665  40.535  46.995  0.00  0.00    -0.646 OA
ATOM     35  O3  IDS d  65      21.794  41.608  47.733  0.00  0.00    -0.390 OA
ATOM     36  C5  IDS d  65      18.233  42.336  46.908  0.00  0.00     0.152 C 
ATOM     37  C6  IDS d  65      16.987  41.580  46.377  0.00  0.00     0.206 C 
ATOM     38  O5  IDS d  65      18.494  43.459  46.010  0.00  0.00    -0.340 OA
ATOM     39  C1  IDS d  65      19.638  44.291  46.334  0.00  0.00     0.161 C 
ATOM     40  O1S IDS d  65      24.128  43.298  48.355  0.00  0.00    -0.572 OA
ATOM     41  C4  IDS d  65      19.503  41.434  47.098  0.00  0.00     0.103 C 
ATOM     42  O4  IDS d  65      19.043  40.170  46.612  0.00  0.00    -0.348 OA
ATOM     43  C2  IDS d  65      20.680  43.622  47.281  0.00  0.00     0.134 C 
ATOM     44  O62 IDS d  65      16.351  42.049  45.385  0.00  0.00    -0.646 OA
ATOM     45  C3  IDS d  65      20.839  42.185  46.899  0.00  0.00     0.094 C 
ATOM     46  O2S IDS d  65      22.174  43.723  49.655  0.00  0.00    -0.572 OA
ATOM     47  O3S IDS d  65      23.474  45.550  48.872  0.00  0.00    -0.572 OA
ATOM     48  O2  IDS d  65      21.956  44.223  47.117  0.00  0.00    -0.244 OA
ATOM     49  S   IDS d  65      22.999  44.204  48.564  0.00  0.00     0.252 S 
ATOM     50  H   IDS d  65      21.907  40.674  47.497  0.00  0.00     0.210 HD
ATOM     51  H   IDS d  65      18.016  42.684  47.895  0.00  0.00     0.104 H 
ATOM     52  H   IDS d  65      20.032  44.755  45.454  0.00  0.00     0.133 H 
ATOM     53  H   IDS d  65      19.928  41.151  48.038  0.00  0.00     0.092 H 
ATOM     54  H   IDS d  65      20.334  43.735  48.287  0.00  0.00     0.097 H 
ATOM     55  H   IDS d  65      21.137  42.121  45.874  0.00  0.00     0.091 H 
ATOM     56  O3S SGN d  62      17.596  36.404  38.394  0.00  0.00    -0.296 OA
ATOM     57  C1  SGN d  62      20.251  34.428  39.452  0.00  0.00     0.150 C 
ATOM     58  S2  SGN d  62      25.044  30.931  39.852  0.00  0.00     0.251 S 
ATOM     59  C5  SGN d  62      21.754  32.498  38.985  0.00  0.00     0.091 C 
ATOM     60  O5  SGN d  62      21.558  33.941  39.009  0.00  0.00    -0.349 OA
ATOM     61  O4S SGN d  62      26.115  31.114  38.930  0.00  0.00    -0.572 OA
ATOM     62  O6  SGN d  62      23.515  30.955  39.008  0.00  0.00    -0.254 OA
ATOM     63  O3  SGN d  62      18.291  31.594  38.015  0.00  0.00    -0.391 OA
ATOM     64  S1  SGN d  62      16.904  35.141  38.502  0.00  0.00     0.156 S 
ATOM     65  O6S SGN d  62      25.025  31.938  40.910  0.00  0.00    -0.572 OA
ATOM     66  O4  SGN d  62      20.934  30.435  38.077  0.00  0.00    -0.348 OA
ATOM     67  C6  SGN d  62      23.152  32.220  38.486  0.00  0.00     0.067 C 
ATOM     68  O5S SGN d  62      25.129  29.634  40.465  0.00  0.00    -0.572 OA
ATOM     69  O1S SGN d  62      15.677  35.260  39.261  0.00  0.00    -0.296 OA
ATOM     70  O2S SGN d  62      16.681  34.645  37.175  0.00  0.00    -0.296 OA
ATOM     71  C2  SGN d  62      19.167  33.688  38.682  0.00  0.00     0.081 C 
ATOM     72  C4  SGN d  62      20.698  31.841  38.080  0.00  0.00     0.095 C 
ATOM     73  N   SGN d  62      17.907  33.956  39.300  0.00  0.00    -0.210 NA
ATOM     74  C3  SGN d  62      19.348  32.168  38.736  0.00  0.00     0.083 C 
ATOM     75  H   SGN d  62      17.759  36.760  39.282  0.00  0.00     0.231 HD
ATOM     76  H   SGN d  62      20.245  35.482  39.267  0.00  0.00     0.131 H 
ATOM     77  H   SGN d  62      21.641  32.086  39.966  0.00  0.00     0.090 H 
ATOM     78  H   SGN d  62      17.450  31.812  38.444  0.00  0.00     0.210 HD
ATOM     79  H   SGN d  62      23.827  32.973  38.835  0.00  0.00     0.080 H 
ATOM     80  H   SGN d  62      23.191  32.227  37.416  0.00  0.00     0.080 H 
ATOM     81  H   SGN d  62      15.877  35.598  40.149  0.00  0.00     0.231 HD
ATOM     82  H   SGN d  62      17.528  34.582  36.706  0.00  0.00     0.231 HD
ATOM     83  H   SGN d  62      19.220  34.020  37.666  0.00  0.00     0.076 H 
ATOM     84  H   SGN d  62      20.725  32.186  37.067  0.00  0.00     0.091 H 
ATOM     85  H   SGN d  62      17.386  33.080  39.339  0.00  0.00     0.140 HD
ATOM     86  H   SGN d  62      19.340  31.790  39.737  0.00  0.00     0.089 H 
ATOM     87  O4  IDS d  63      20.000  34.241  40.851  0.00  0.00    -0.348 OA
ATOM     88  O62 IDS d  63      21.595  33.704  44.132  0.00  0.00    -0.646 OA
ATOM     89  C2  IDS d  63      17.432  35.325  42.223  0.00  0.00     0.134 C 
ATOM     90  O2S IDS d  63      14.914  33.530  42.498  0.00  0.00    -0.572 OA
ATOM     91  O61 IDS d  63      22.609  35.071  42.795  0.00  0.00    -0.646 OA
ATOM     92  C3  IDS d  63      18.437  36.147  41.406  0.00  0.00     0.094 C 
ATOM     93  C1  IDS d  63      17.887  35.251  43.707  0.00  0.00     0.161 C 
ATOM     94  O5  IDS d  63      19.164  34.563  43.744  0.00  0.00    -0.340 OA
ATOM     95  C4  IDS d  63      19.881  35.492  41.518  0.00  0.00     0.103 C 
ATOM     96  C6  IDS d  63      21.587  34.632  43.321  0.00  0.00     0.206 C 
ATOM     97  S   IDS d  63      16.227  32.902  42.431  0.00  0.00     0.252 S 
ATOM     98  O3  IDS d  63      18.432  37.425  42.002  0.00  0.00    -0.390 OA
ATOM     99  C5  IDS d  63      20.242  35.284  43.014  0.00  0.00     0.152 C 
ATOM    100  O2  IDS d  63      17.294  34.062  41.628  0.00  0.00    -0.244 OA
ATOM    101  O1S IDS d  63      16.234  31.719  41.591  0.00  0.00    -0.572 OA
ATOM    102  O3S IDS d  63      16.601  32.574  43.776  0.00  0.00    -0.572 OA
ATOM    103  H   IDS d  63      16.470  35.792  42.225  0.00  0.00     0.097 H 
ATOM    104  H   IDS d  63      18.186  36.189  40.367  0.00  0.00     0.091 H 
ATOM    105  H   IDS d  63      17.227  34.706  44.348  0.00  0.00     0.133 H 
ATOM    106  H   IDS d  63      20.553  36.173  41.038  0.00  0.00     0.092 H 
ATOM    107  H   IDS d  63      18.664  37.346  42.940  0.00  0.00     0.210 HD
ATOM    108  H   IDS d  63      20.339  36.290  43.364  0.00  0.00     0.104 H 
ATOM    109  O4  SGN d  64      17.958  36.637  44.163  0.00  0.00    -0.348 OA
ATOM    110  O6  SGN d  64      15.520  37.160  47.480  0.00  0.00    -0.254 OA
ATOM    111  C3  SGN d  64      19.728  37.724  45.455  0.00  0.00     0.083 C 
ATOM    112  S2  SGN d  64      16.237  35.859  48.466  0.00  0.00     0.251 S 
ATOM    113  C5  SGN d  64      17.322  37.958  46.071  0.00  0.00     0.091 C 
ATOM    114  O1S SGN d  64      23.172  37.580  48.386  0.00  0.00    -0.296 OA
ATOM    115  C2  SGN d  64      20.118  38.086  46.855  0.00  0.00     0.081 C 
ATOM    116  O4S SGN d  64      15.952  34.606  47.816  0.00  0.00    -0.572 OA
ATOM    117  O3S SGN d  64      22.882  36.681  46.209  0.00  0.00    -0.296 OA
ATOM    118  S1  SGN d  64      22.899  37.903  46.994  0.00  0.00     0.156 S 
ATOM    119  O6S SGN d  64      17.670  36.027  48.600  0.00  0.00    -0.572 OA
ATOM    120  O5S SGN d  64      15.636  35.892  49.772  0.00  0.00    -0.572 OA
ATOM    121  O3  SGN d  64      20.729  36.902  44.975  0.00  0.00    -0.391 OA
ATOM    122  C1  SGN d  64      19.066  38.999  47.429  0.00  0.00     0.150 C 
ATOM    123  O2S SGN d  64      23.896  38.794  46.467  0.00  0.00    -0.296 OA
ATOM    124  C4  SGN d  64      18.365  36.984  45.495  0.00  0.00     0.095 C 
ATOM    125  O5  SGN d  64      17.790  38.325  47.402  0.00  0.00    -0.349 OA
ATOM    126  C6  SGN d  64      15.965  37.289  46.137  0.00  0.00     0.067 C 
ATOM    127  N   SGN d  64      21.375  38.792  46.836  0.00  0.00    -0.210 NA
ATOM    128  H   SGN d  64      19.619  38.581  44.824  0.00  0.00     0.089 H 
ATOM    129  H   SGN d  64      17.212  38.828  45.456  0.00  0.00     0.090 H 
ATOM    130  H   SGN d  64      22.487  36.979  48.718  0.00  0.00     0.231 HD
ATOM    131  H   SGN d  64      20.207  37.197  47.445  0.00  0.00     0.076 H 
ATOM    132  H   SGN d  64      22.209  36.078  46.564  0.00  0.00     0.231 HD
ATOM    133  H   SGN d  64      20.820  36.130  45.555  0.00  0.00     0.210 HD
ATOM    134  H   SGN d  64      19.277  39.263  48.444  0.00  0.00     0.131 H 
ATOM    135  H   SGN d  64      24.767  38.371  46.520  0.00  0.00     0.231 HD
ATOM    136  H   SGN d  64      18.451  36.097  46.088  0.00  0.00     0.091 H 
ATOM    137  H   SGN d  64      15.259  37.878  45.590  0.00  0.00     0.080 H 
ATOM    138  H   SGN d  64      16.050  36.311  45.712  0.00  0.00     0.080 H 
ATOM    139  H   SGN d  64      21.346  39.464  47.603  0.00  0.00     0.140 HD
ATOM    140  C1  IDS d  61      20.995  29.851  36.759  0.00  0.00     0.167 C 
ATOM    141  O5  IDS d  61      19.692  29.960  36.128  0.00  0.00    -0.311 OA
ATOM    142  C5  IDS d  61      18.662  29.110  36.507  0.00  0.00     0.147 C 
ATOM    143  C6  IDS d  61      17.244  29.375  35.868  0.00  0.00     0.233 C 
ATOM    144  C2  IDS d  61      21.328  28.371  36.916  0.00  0.00     0.135 C 
ATOM    145  O1S IDS d  61      20.504  29.436  33.874  0.00  0.00    -0.572 OA
ATOM    146  O3S IDS d  61      22.879  29.473  34.283  0.00  0.00    -0.572 OA
ATOM    147  O3  IDS d  61      20.527  27.746  39.004  0.00  0.00    -0.389 OA
ATOM    148  C4  IDS d  61      18.873  28.021  37.299  0.00  0.00    -0.034 C 
ATOM    149  C3  IDS d  61      20.251  27.580  37.658  0.00  0.00     0.086 C 
ATOM    150  O61 IDS d  61      16.305  28.621  36.125  0.00  0.00    -0.642 OA
ATOM    151  O62 IDS d  61      17.085  30.333  35.072  0.00  0.00    -0.642 OA
ATOM    152  O2S IDS d  61      21.794  27.756  33.017  0.00  0.00    -0.572 OA
ATOM    153  S   IDS d  61      21.687  28.654  34.116  0.00  0.00     0.252 S 
ATOM    154  O2  IDS d  61      21.450  27.741  35.629  0.00  0.00    -0.244 OA
ATOM    155  H   IDS d  61      21.731  30.352  36.166  0.00  0.00     0.134 H 
ATOM    156  H   IDS d  61      22.242  28.355  37.473  0.00  0.00     0.097 H 
ATOM    157  H   IDS d  61      21.431  27.446  39.189  0.00  0.00     0.210 HD
ATOM    158  H   IDS d  61      18.063  27.492  37.657  0.00  0.00     0.085 H 
ATOM    159  H   IDS d  61      20.275  26.546  37.386  0.00  0.00     0.093 H 
ENDROOT
TORSDOF 50
ENDMDL
MODEL 29
REMARK VINA RESULT:      -5.6      2.053      2.799
REMARK  0 active torsions:
REMARK  status: ('A' for Active; 'I' for Inactive)
REMARK       I    between atoms: O3S_3  and  S1_55 
REMARK       I    between atoms: O3_4  and  C3_87 
REMARK       I    between atoms: O4_5  and  C1_15 
REMARK       I    between atoms: O4_5  and  C4_57 
REMARK       I    between atoms: O4_7  and  C1_36 
REMARK       I    between atoms: O4_7  and  C4_89 
REMARK       I    between atoms: C4_8  and  O4_18 
REMARK       I    between atoms: C2_9  and  O2_84 
REMARK       I    between atoms: C6_10  and  C5_32 
REMARK       I    between atoms: C6_10  and  O6_102 
REMARK       I    between atoms: O6_11  and  C6_93 
REMARK       I    between atoms: O6_11  and  S2_25 
REMARK       I    between atoms: C1_13  and  O4_74 
REMARK       I    between atoms: C3_14  and  O3_71 
REMARK       I    between atoms: O4_18  and  C1_54 
REMARK       I    between atoms: S2_19  and  O6_39 
REMARK       I    between atoms: O2S_21  and  S1_45 
REMARK       I    between atoms: C5_22  and  C6_23 
REMARK       I    between atoms: C5_24  and  C6_77 
REMARK       I    between atoms: O1_27  and  C1_48 
REMARK       I    between atoms: C5_28  and  C6_30 
REMARK       I    between atoms: C5_29  and  C6_93 
REMARK       I    between atoms: O1S_31  and  S1_44 
REMARK       I    between atoms: C3_33  and  O3_69 
REMARK       I    between atoms: C2_37  and  N_99 
REMARK       I    between atoms: S2_38  and  O6_102 
REMARK       I    between atoms: O6_39  and  C6_77 
REMARK       I    between atoms: C2_40  and  O2_103 
REMARK       I    between atoms: O3S_42  and  S1_44 
REMARK       I    between atoms: S1_44  and  N_99 
REMARK       I    between atoms: S1_44  and  O2S_81 
REMARK       I    between atoms: S1_45  and  N_94 
REMARK       I    between atoms: S1_45  and  O1S_46 
REMARK       I    between atoms: S1_45  and  O3S_58 
REMARK       I    between atoms: O3_52  and  C3_105 
REMARK       I    between atoms: S1_55  and  N_100 
REMARK       I    between atoms: S1_55  and  O1S_79 
REMARK       I    between atoms: S1_55  and  O2S_83 
REMARK       I    between atoms: O3_56  and  C3_64 
REMARK       I    between atoms: C4_60  and  O4_61 
REMARK       I    between atoms: O4_61  and  C1_73 
REMARK       I    between atoms: C6_63  and  C5_80 
REMARK       I    between atoms: C3_65  and  O3_82 
REMARK       I    between atoms: S_67  and  O2_84 
REMARK       I    between atoms: C2_68  and  O2_98 
REMARK       I    between atoms: O4_74  and  C4_97 
REMARK       I    between atoms: C2_85  and  N_94 
REMARK       I    between atoms: C2_95  and  N_100 
REMARK       I    between atoms: O2_98  and  S_104 
REMARK       I    between atoms: S_101  and  O2_103 
ROOT
ATOM      1  O6S SGN d  66      23.281  33.901  55.971  0.00  0.00    -0.572 OA
ATOM      2  C4  SGN d  66      19.536  35.840  53.710  0.00  0.00     0.095 C 
ATOM      3  C6  SGN d  66      19.367  33.950  55.375  0.00  0.00     0.067 C 
ATOM      4  O4  SGN d  66      19.714  34.845  52.596  0.00  0.00    -0.348 OA
ATOM      5  O5S SGN d  66      21.952  32.046  55.298  0.00  0.00    -0.572 OA
ATOM      6  O2S SGN d  66      17.862  40.734  56.102  0.00  0.00    -0.296 OA
ATOM      7  O5  SGN d  66      18.502  36.214  55.907  0.00  0.00    -0.350 OA
ATOM      8  O1  SGN d  66      16.571  37.213  54.876  0.00  0.00    -0.369 OA
ATOM      9  C5  SGN d  66      18.692  35.225  54.837  0.00  0.00     0.091 C 
ATOM     10  S2  SGN d  66      22.119  33.494  55.206  0.00  0.00     0.251 S 
ATOM     11  S1  SGN d  66      17.114  40.390  54.909  0.00  0.00     0.156 S 
ATOM     12  O1S SGN d  66      16.781  41.573  54.129  0.00  0.00    -0.296 OA
ATOM     13  C1  SGN d  66      17.858  37.458  55.476  0.00  0.00     0.147 C 
ATOM     14  O3S SGN d  66      15.865  39.726  55.249  0.00  0.00    -0.296 OA
ATOM     15  C3  SGN d  66      18.922  37.160  53.214  0.00  0.00     0.083 C 
ATOM     16  O3  SGN d  66      19.817  37.779  52.291  0.00  0.00    -0.391 OA
ATOM     17  C2  SGN d  66      18.757  38.108  54.404  0.00  0.00     0.081 C 
ATOM     18  O4S SGN d  66      22.291  33.913  53.822  0.00  0.00    -0.572 OA
ATOM     19  N   SGN d  66      18.175  39.364  53.909  0.00  0.00    -0.210 NA
ATOM     20  O6  SGN d  66      20.674  34.253  55.917  0.00  0.00    -0.254 OA
ATOM     21  H   SGN d  66      20.506  36.078  54.095  0.00  0.00     0.091 H 
ATOM     22  H   SGN d  66      19.472  33.245  54.577  0.00  0.00     0.080 H 
ATOM     23  H   SGN d  66      18.758  33.541  56.155  0.00  0.00     0.080 H 
ATOM     24  H   SGN d  66      18.689  41.174  55.849  0.00  0.00     0.231 HD
ATOM     25  H   SGN d  66      15.982  36.803  55.529  0.00  0.00     0.212 HD
ATOM     26  H   SGN d  66      17.732  34.951  54.452  0.00  0.00     0.090 H 
ATOM     27  H   SGN d  66      17.595  42.040  53.886  0.00  0.00     0.231 HD
ATOM     28  H   SGN d  66      17.722  38.084  56.333  0.00  0.00     0.131 H 
ATOM     29  H   SGN d  66      16.052  38.931  55.771  0.00  0.00     0.231 HD
ATOM     30  H   SGN d  66      17.980  36.959  52.749  0.00  0.00     0.089 H 
ATOM     31  H   SGN d  66      20.664  37.953  52.729  0.00  0.00     0.210 HD
ATOM     32  H   SGN d  66      19.704  38.310  54.861  0.00  0.00     0.076 H 
ATOM     33  H   SGN d  66      18.963  39.952  53.637  0.00  0.00     0.140 HD
ATOM     34  O61 IDS d  65      17.295  37.171  49.006  0.00  0.00    -0.646 OA
ATOM     35  O3  IDS d  65      17.941  32.014  50.002  0.00  0.00    -0.390 OA
ATOM     36  C5  IDS d  65      18.623  35.665  50.304  0.00  0.00     0.152 C 
ATOM     37  C6  IDS d  65      18.448  36.953  49.456  0.00  0.00     0.206 C 
ATOM     38  O5  IDS d  65      20.036  35.545  50.653  0.00  0.00    -0.340 OA
ATOM     39  C1  IDS d  65      20.408  34.387  51.445  0.00  0.00     0.161 C 
ATOM     40  O1S IDS d  65      18.728  29.657  51.588  0.00  0.00    -0.572 OA
ATOM     41  C4  IDS d  65      18.077  34.363  49.619  0.00  0.00     0.103 C 
ATOM     42  O4  IDS d  65      17.654  34.854  48.345  0.00  0.00    -0.348 OA
ATOM     43  C2  IDS d  65      19.377  33.219  51.412  0.00  0.00     0.134 C 
ATOM     44  O62 IDS d  65      19.442  37.719  49.278  0.00  0.00    -0.646 OA
ATOM     45  C3  IDS d  65      18.838  33.079  50.024  0.00  0.00     0.094 C 
ATOM     46  O2S IDS d  65      17.727  31.437  52.818  0.00  0.00    -0.572 OA
ATOM     47  O3S IDS d  65      19.589  30.288  53.738  0.00  0.00    -0.572 OA
ATOM     48  O2  IDS d  65      20.013  31.988  51.720  0.00  0.00    -0.244 OA
ATOM     49  S   IDS d  65      18.974  30.769  52.504  0.00  0.00     0.252 S 
ATOM     50  H   IDS d  65      17.583  31.912  49.106  0.00  0.00     0.210 HD
ATOM     51  H   IDS d  65      18.022  35.763  51.184  0.00  0.00     0.104 H 
ATOM     52  H   IDS d  65      21.429  34.119  51.269  0.00  0.00     0.133 H 
ATOM     53  H   IDS d  65      17.212  33.815  49.928  0.00  0.00     0.092 H 
ATOM     54  H   IDS d  65      18.607  33.437  52.121  0.00  0.00     0.097 H 
ATOM     55  H   IDS d  65      19.647  32.913  49.344  0.00  0.00     0.091 H 
ATOM     56  O3S SGN d  62      21.751  37.255  40.518  0.00  0.00    -0.296 OA
ATOM     57  C1  SGN d  62      20.035  34.445  39.409  0.00  0.00     0.150 C 
ATOM     58  S2  SGN d  62      18.176  29.565  36.562  0.00  0.00     0.251 S 
ATOM     59  C5  SGN d  62      19.423  32.972  37.496  0.00  0.00     0.091 C 
ATOM     60  O5  SGN d  62      20.245  33.195  38.677  0.00  0.00    -0.349 OA
ATOM     61  O4S SGN d  62      19.140  28.625  36.096  0.00  0.00    -0.572 OA
ATOM     62  O6  SGN d  62      18.684  31.190  36.169  0.00  0.00    -0.254 OA
ATOM     63  O3  SGN d  62      19.254  36.510  36.398  0.00  0.00    -0.391 OA
ATOM     64  S1  SGN d  62      20.830  37.900  39.612  0.00  0.00     0.156 S 
ATOM     65  O6S SGN d  62      17.938  29.472  38.000  0.00  0.00    -0.572 OA
ATOM     66  O4  SGN d  62      18.815  33.857  35.350  0.00  0.00    -0.348 OA
ATOM     67  C6  SGN d  62      19.814  31.644  36.893  0.00  0.00     0.067 C 
ATOM     68  O5S SGN d  62      16.924  29.375  35.883  0.00  0.00    -0.572 OA
ATOM     69  O1S SGN d  62      20.158  39.022  40.232  0.00  0.00    -0.296 OA
ATOM     70  O2S SGN d  62      21.560  38.280  38.437  0.00  0.00    -0.296 OA
ATOM     71  C2  SGN d  62      20.078  35.602  38.421  0.00  0.00     0.081 C 
ATOM     72  C4  SGN d  62      19.626  34.121  36.492  0.00  0.00     0.095 C 
ATOM     73  N   SGN d  62      19.603  36.778  39.078  0.00  0.00    -0.210 NA
ATOM     74  C3  SGN d  62      19.147  35.383  37.226  0.00  0.00     0.083 C 
ATOM     75  H   SGN d  62      21.279  36.988  41.323  0.00  0.00     0.231 HD
ATOM     76  H   SGN d  62      20.811  34.497  40.143  0.00  0.00     0.131 H 
ATOM     77  H   SGN d  62      18.386  32.951  37.757  0.00  0.00     0.090 H 
ATOM     78  H   SGN d  62      18.947  37.295  36.879  0.00  0.00     0.210 HD
ATOM     79  H   SGN d  62      20.065  30.946  37.664  0.00  0.00     0.080 H 
ATOM     80  H   SGN d  62      20.670  31.741  36.258  0.00  0.00     0.080 H 
ATOM     81  H   SGN d  62      19.680  38.718  41.019  0.00  0.00     0.231 HD
ATOM     82  H   SGN d  62      21.992  37.499  38.057  0.00  0.00     0.231 HD
ATOM     83  H   SGN d  62      21.088  35.686  38.079  0.00  0.00     0.076 H 
ATOM     84  H   SGN d  62      20.639  34.230  36.164  0.00  0.00     0.091 H 
ATOM     85  H   SGN d  62      18.988  37.272  38.431  0.00  0.00     0.140 HD
ATOM     86  H   SGN d  62      18.126  35.255  37.519  0.00  0.00     0.089 H 
ATOM     87  O4  IDS d  63      18.785  34.511  40.107  0.00  0.00    -0.348 OA
ATOM     88  O62 IDS d  63      16.045  32.500  41.537  0.00  0.00    -0.646 OA
ATOM     89  C2  IDS d  63      18.050  36.906  41.945  0.00  0.00     0.134 C 
ATOM     90  O2S IDS d  63      16.469  39.330  40.820  0.00  0.00    -0.572 OA
ATOM     91  O61 IDS d  63      18.040  31.695  41.775  0.00  0.00    -0.646 OA
ATOM     92  C3  IDS d  63      19.306  36.031  42.057  0.00  0.00     0.094 C 
ATOM     93  C1  IDS d  63      16.882  36.264  42.742  0.00  0.00     0.161 C 
ATOM     94  O5  IDS d  63      16.588  34.978  42.138  0.00  0.00    -0.340 OA
ATOM     95  C4  IDS d  63      18.991  34.571  41.513  0.00  0.00     0.103 C 
ATOM     96  C6  IDS d  63      17.242  32.631  41.798  0.00  0.00     0.206 C 
ATOM     97  S   IDS d  63      16.298  38.023  40.199  0.00  0.00     0.252 S 
ATOM     98  O3  IDS d  63      19.597  35.988  43.436  0.00  0.00    -0.390 OA
ATOM     99  C5  IDS d  63      17.721  34.018  42.216  0.00  0.00     0.152 C 
ATOM    100  O2  IDS d  63      17.751  37.092  40.587  0.00  0.00    -0.244 OA
ATOM    101  O1S IDS d  63      16.257  38.097  38.750  0.00  0.00    -0.572 OA
ATOM    102  O3S IDS d  63      15.078  37.473  40.716  0.00  0.00    -0.572 OA
ATOM    103  H   IDS d  63      18.217  37.870  42.377  0.00  0.00     0.097 H 
ATOM    104  H   IDS d  63      20.126  36.414  41.486  0.00  0.00     0.091 H 
ATOM    105  H   IDS d  63      15.971  36.826  42.727  0.00  0.00     0.133 H 
ATOM    106  H   IDS d  63      19.856  33.981  41.733  0.00  0.00     0.092 H 
ATOM    107  H   IDS d  63      18.832  35.636  43.917  0.00  0.00     0.210 HD
ATOM    108  H   IDS d  63      18.057  33.899  43.225  0.00  0.00     0.104 H 
ATOM    109  O4  SGN d  64      17.357  36.166  44.120  0.00  0.00    -0.348 OA
ATOM    110  O6  SGN d  64      14.760  38.172  46.659  0.00  0.00    -0.254 OA
ATOM    111  C3  SGN d  64      17.186  34.269  45.656  0.00  0.00     0.083 C 
ATOM    112  S2  SGN d  64      13.282  37.307  46.162  0.00  0.00     0.251 S 
ATOM    113  C5  SGN d  64      16.562  36.582  46.353  0.00  0.00     0.091 C 
ATOM    114  O1S SGN d  64      15.172  30.478  47.082  0.00  0.00    -0.296 OA
ATOM    115  C2  SGN d  64      16.337  33.712  46.757  0.00  0.00     0.081 C 
ATOM    116  O4S SGN d  64      13.015  37.646  44.788  0.00  0.00    -0.572 OA
ATOM    117  O3S SGN d  64      16.327  31.024  45.083  0.00  0.00    -0.296 OA
ATOM    118  S1  SGN d  64      16.438  30.933  46.528  0.00  0.00     0.156 S 
ATOM    119  O6S SGN d  64      13.441  35.873  46.292  0.00  0.00    -0.572 OA
ATOM    120  O5S SGN d  64      12.197  37.737  47.002  0.00  0.00    -0.572 OA
ATOM    121  O3  SGN d  64      17.191  33.320  44.652  0.00  0.00    -0.391 OA
ATOM    122  C1  SGN d  64      16.308  34.702  47.892  0.00  0.00     0.150 C 
ATOM    123  O2S SGN d  64      17.503  30.031  46.869  0.00  0.00    -0.296 OA
ATOM    124  C4  SGN d  64      16.556  35.599  45.168  0.00  0.00     0.095 C 
ATOM    125  O5  SGN d  64      15.780  35.956  47.412  0.00  0.00    -0.349 OA
ATOM    126  C6  SGN d  64      15.953  37.904  45.936  0.00  0.00     0.067 C 
ATOM    127  N   SGN d  64      16.920  32.483  47.237  0.00  0.00    -0.210 NA
ATOM    128  H   SGN d  64      18.187  34.477  45.972  0.00  0.00     0.089 H 
ATOM    129  H   SGN d  64      17.557  36.787  46.689  0.00  0.00     0.090 H 
ATOM    130  H   SGN d  64      14.470  31.101  46.839  0.00  0.00     0.231 HD
ATOM    131  H   SGN d  64      15.349  33.529  46.391  0.00  0.00     0.076 H 
ATOM    132  H   SGN d  64      15.608  31.632  44.851  0.00  0.00     0.231 HD
ATOM    133  H   SGN d  64      16.279  33.139  44.374  0.00  0.00     0.210 HD
ATOM    134  H   SGN d  64      15.685  34.368  48.696  0.00  0.00     0.131 H 
ATOM    135  H   SGN d  64      17.308  29.151  46.511  0.00  0.00     0.231 HD
ATOM    136  H   SGN d  64      15.565  35.420  44.805  0.00  0.00     0.091 H 
ATOM    137  H   SGN d  64      16.658  38.687  46.124  0.00  0.00     0.080 H 
ATOM    138  H   SGN d  64      15.714  37.853  44.895  0.00  0.00     0.080 H 
ATOM    139  H   SGN d  64      16.710  32.429  48.233  0.00  0.00     0.140 HD
ATOM    140  C1  IDS d  61      19.517  33.952  34.094  0.00  0.00     0.167 C 
ATOM    141  O5  IDS d  61      19.934  35.326  33.882  0.00  0.00    -0.311 OA
ATOM    142  C5  IDS d  61      19.006  36.281  33.488  0.00  0.00     0.147 C 
ATOM    143  C6  IDS d  61      19.509  37.774  33.404  0.00  0.00     0.233 C 
ATOM    144  C2  IDS d  61      18.546  33.569  32.982  0.00  0.00     0.135 C 
ATOM    145  O1S IDS d  61      21.501  34.798  32.072  0.00  0.00    -0.572 OA
ATOM    146  O3S IDS d  61      21.471  32.391  32.204  0.00  0.00    -0.572 OA
ATOM    147  O3  IDS d  61      16.424  34.085  33.773  0.00  0.00    -0.389 OA
ATOM    148  C4  IDS d  61      17.751  35.948  33.076  0.00  0.00    -0.034 C 
ATOM    149  C3  IDS d  61      17.360  34.526  32.854  0.00  0.00     0.086 C 
ATOM    150  O61 IDS d  61      18.746  38.657  33.009  0.00  0.00    -0.642 OA
ATOM    151  O62 IDS d  61      20.695  38.054  33.706  0.00  0.00    -0.642 OA
ATOM    152  O2S IDS d  61      21.323  33.591  30.139  0.00  0.00    -0.572 OA
ATOM    153  S   IDS d  61      20.977  33.576  31.519  0.00  0.00     0.252 S 
ATOM    154  O2  IDS d  61      19.203  33.599  31.703  0.00  0.00    -0.244 OA
ATOM    155  H   IDS d  61      20.373  33.309  34.098  0.00  0.00     0.134 H 
ATOM    156  H   IDS d  61      18.199  32.592  33.247  0.00  0.00     0.097 H 
ATOM    157  H   IDS d  61      16.202  33.158  33.589  0.00  0.00     0.210 HD
ATOM    158  H   IDS d  61      17.057  36.694  32.913  0.00  0.00     0.085 H 
ATOM    159  H   IDS d  61      16.960  34.515  31.863  0.00  0.00     0.093 H 
ENDROOT
TORSDOF 50
ENDMDL
MODEL 30
REMARK VINA RESULT:      -5.6      3.249      4.067
REMARK  0 active torsions:
REMARK  status: ('A' for Active; 'I' for Inactive)
REMARK       I    between atoms: O3S_3  and  S1_55 
REMARK       I    between atoms: O3_4  and  C3_87 
REMARK       I    between atoms: O4_5  and  C1_15 
REMARK       I    between atoms: O4_5  and  C4_57 
REMARK       I    between atoms: O4_7  and  C1_36 
REMARK       I    between atoms: O4_7  and  C4_89 
REMARK       I    between atoms: C4_8  and  O4_18 
REMARK       I    between atoms: C2_9  and  O2_84 
REMARK       I    between atoms: C6_10  and  C5_32 
REMARK       I    between atoms: C6_10  and  O6_102 
REMARK       I    between atoms: O6_11  and  C6_93 
REMARK       I    between atoms: O6_11  and  S2_25 
REMARK       I    between atoms: C1_13  and  O4_74 
REMARK       I    between atoms: C3_14  and  O3_71 
REMARK       I    between atoms: O4_18  and  C1_54 
REMARK       I    between atoms: S2_19  and  O6_39 
REMARK       I    between atoms: O2S_21  and  S1_45 
REMARK       I    between atoms: C5_22  and  C6_23 
REMARK       I    between atoms: C5_24  and  C6_77 
REMARK       I    between atoms: O1_27  and  C1_48 
REMARK       I    between atoms: C5_28  and  C6_30 
REMARK       I    between atoms: C5_29  and  C6_93 
REMARK       I    between atoms: O1S_31  and  S1_44 
REMARK       I    between atoms: C3_33  and  O3_69 
REMARK       I    between atoms: C2_37  and  N_99 
REMARK       I    between atoms: S2_38  and  O6_102 
REMARK       I    between atoms: O6_39  and  C6_77 
REMARK       I    between atoms: C2_40  and  O2_103 
REMARK       I    between atoms: O3S_42  and  S1_44 
REMARK       I    between atoms: S1_44  and  N_99 
REMARK       I    between atoms: S1_44  and  O2S_81 
REMARK       I    between atoms: S1_45  and  N_94 
REMARK       I    between atoms: S1_45  and  O1S_46 
REMARK       I    between atoms: S1_45  and  O3S_58 
REMARK       I    between atoms: O3_52  and  C3_105 
REMARK       I    between atoms: S1_55  and  N_100 
REMARK       I    between atoms: S1_55  and  O1S_79 
REMARK       I    between atoms: S1_55  and  O2S_83 
REMARK       I    between atoms: O3_56  and  C3_64 
REMARK       I    between atoms: C4_60  and  O4_61 
REMARK       I    between atoms: O4_61  and  C1_73 
REMARK       I    between atoms: C6_63  and  C5_80 
REMARK       I    between atoms: C3_65  and  O3_82 
REMARK       I    between atoms: S_67  and  O2_84 
REMARK       I    between atoms: C2_68  and  O2_98 
REMARK       I    between atoms: O4_74  and  C4_97 
REMARK       I    between atoms: C2_85  and  N_94 
REMARK       I    between atoms: C2_95  and  N_100 
REMARK       I    between atoms: O2_98  and  S_104 
REMARK       I    between atoms: S_101  and  O2_103 
ROOT
ATOM      1  O6S SGN d  66      24.856  46.365  50.621  0.00  0.00    -0.572 OA
ATOM      2  C4  SGN d  66      20.586  44.351  49.841  0.00  0.00     0.095 C 
ATOM      3  C6  SGN d  66      21.904  44.104  51.980  0.00  0.00     0.067 C 
ATOM      4  O4  SGN d  66      21.279  43.141  49.273  0.00  0.00    -0.348 OA
ATOM      5  O5S SGN d  66      25.071  44.147  51.452  0.00  0.00    -0.572 OA
ATOM      6  O2S SGN d  66      16.293  48.025  50.579  0.00  0.00    -0.296 OA
ATOM      7  O5  SGN d  66      19.795  45.409  51.911  0.00  0.00    -0.350 OA
ATOM      8  O1  SGN d  66      17.607  44.451  51.616  0.00  0.00    -0.369 OA
ATOM      9  C5  SGN d  66      20.496  44.237  51.371  0.00  0.00     0.091 C 
ATOM     10  S2  SGN d  66      24.206  45.074  50.727  0.00  0.00     0.251 S 
ATOM     11  S1  SGN d  66      15.861  46.716  50.128  0.00  0.00     0.156 S 
ATOM     12  O1S SGN d  66      14.742  46.813  49.203  0.00  0.00    -0.296 OA
ATOM     13  C1  SGN d  66      18.441  45.604  51.384  0.00  0.00     0.147 C 
ATOM     14  O3S SGN d  66      15.430  45.894  51.249  0.00  0.00    -0.296 OA
ATOM     15  C3  SGN d  66      19.197  44.567  49.218  0.00  0.00     0.083 C 
ATOM     16  O3  SGN d  66      19.341  44.832  47.823  0.00  0.00    -0.391 OA
ATOM     17  C2  SGN d  66      18.553  45.799  49.858  0.00  0.00     0.081 C 
ATOM     18  O4S SGN d  66      23.911  44.578  49.390  0.00  0.00    -0.572 OA
ATOM     19  N   SGN d  66      17.231  45.993  49.246  0.00  0.00    -0.210 NA
ATOM     20  O6  SGN d  66      22.708  45.266  51.669  0.00  0.00    -0.254 OA
ATOM     21  H   SGN d  66      21.172  45.211  49.591  0.00  0.00     0.091 H 
ATOM     22  H   SGN d  66      22.378  43.232  51.581  0.00  0.00     0.080 H 
ATOM     23  H   SGN d  66      21.812  44.024  53.044  0.00  0.00     0.080 H 
ATOM     24  H   SGN d  66      16.575  48.552  49.815  0.00  0.00     0.231 HD
ATOM     25  H   SGN d  66      17.518  44.304  52.570  0.00  0.00     0.212 HD
ATOM     26  H   SGN d  66      19.942  43.359  51.629  0.00  0.00     0.090 H 
ATOM     27  H   SGN d  66      14.998  47.358  48.443  0.00  0.00     0.231 HD
ATOM     28  H   SGN d  66      18.003  46.447  51.875  0.00  0.00     0.131 H 
ATOM     29  H   SGN d  66      16.156  45.809  51.886  0.00  0.00     0.231 HD
ATOM     30  H   SGN d  66      18.598  43.695  49.375  0.00  0.00     0.089 H 
ATOM     31  H   SGN d  66      19.886  45.624  47.700  0.00  0.00     0.210 HD
ATOM     32  H   SGN d  66      19.153  46.670  49.691  0.00  0.00     0.076 H 
ATOM     33  H   SGN d  66      17.382  46.581  48.427  0.00  0.00     0.140 HD
ATOM     34  O61 IDS d  65      17.586  41.213  46.667  0.00  0.00    -0.646 OA
ATOM     35  O3  IDS d  65      21.640  38.929  49.187  0.00  0.00    -0.390 OA
ATOM     36  C5  IDS d  65      19.701  41.720  47.658  0.00  0.00     0.152 C 
ATOM     37  C6  IDS d  65      18.619  41.919  46.563  0.00  0.00     0.206 C 
ATOM     38  O5  IDS d  65      20.849  42.555  47.314  0.00  0.00    -0.340 OA
ATOM     39  C1  IDS d  65      21.981  42.499  48.220  0.00  0.00     0.161 C 
ATOM     40  O1S IDS d  65      23.963  38.814  50.998  0.00  0.00    -0.572 OA
ATOM     41  C4  IDS d  65      20.115  40.225  47.892  0.00  0.00     0.103 C 
ATOM     42  O4  IDS d  65      19.348  39.546  46.894  0.00  0.00    -0.348 OA
ATOM     43  C2  IDS d  65      22.014  41.244  49.142  0.00  0.00     0.134 C 
ATOM     44  O62 IDS d  65      18.810  42.778  45.651  0.00  0.00    -0.646 OA
ATOM     45  C3  IDS d  65      21.577  40.047  48.359  0.00  0.00     0.094 C 
ATOM     46  O2S IDS d  65      22.150  40.177  51.735  0.00  0.00    -0.572 OA
ATOM     47  O3S IDS d  65      24.378  40.939  52.035  0.00  0.00    -0.572 OA
ATOM     48  O2  IDS d  65      23.341  40.979  49.572  0.00  0.00    -0.244 OA
ATOM     49  S   IDS d  65      23.482  40.185  51.163  0.00  0.00     0.252 S 
ATOM     50  H   IDS d  65      21.358  38.144  48.691  0.00  0.00     0.210 HD
ATOM     51  H   IDS d  65      19.283  42.020  48.596  0.00  0.00     0.104 H 
ATOM     52  H   IDS d  65      22.891  42.728  47.705  0.00  0.00     0.133 H 
ATOM     53  H   IDS d  65      19.883  39.645  48.760  0.00  0.00     0.092 H 
ATOM     54  H   IDS d  65      21.374  41.431  49.979  0.00  0.00     0.097 H 
ATOM     55  H   IDS d  65      22.214  39.929  47.507  0.00  0.00     0.091 H 
ATOM     56  O3S SGN d  62      19.947  38.301  37.844  0.00  0.00    -0.296 OA
ATOM     57  C1  SGN d  62      20.482  35.032  38.892  0.00  0.00     0.150 C 
ATOM     58  S2  SGN d  62      22.139  29.348  39.458  0.00  0.00     0.251 S 
ATOM     59  C5  SGN d  62      20.840  32.650  38.257  0.00  0.00     0.091 C 
ATOM     60  O5  SGN d  62      21.408  33.912  38.711  0.00  0.00    -0.349 OA
ATOM     61  O4S SGN d  62      23.432  28.955  39.008  0.00  0.00    -0.572 OA
ATOM     62  O6  SGN d  62      21.373  30.370  38.266  0.00  0.00    -0.254 OA
ATOM     63  O3  SGN d  62      18.219  34.101  36.072  0.00  0.00    -0.391 OA
ATOM     64  S1  SGN d  62      18.749  37.697  37.310  0.00  0.00     0.156 S 
ATOM     65  O6S SGN d  62      22.170  30.047  40.741  0.00  0.00    -0.572 OA
ATOM     66  O4  SGN d  62      19.587  31.596  36.504  0.00  0.00    -0.348 OA
ATOM     67  C6  SGN d  62      21.964  31.650  38.123  0.00  0.00     0.067 C 
ATOM     68  O5S SGN d  62      21.285  28.199  39.590  0.00  0.00    -0.572 OA
ATOM     69  O1S SGN d  62      17.561  38.441  37.671  0.00  0.00    -0.296 OA
ATOM     70  O2S SGN d  62      18.910  37.579  35.889  0.00  0.00    -0.296 OA
ATOM     71  C2  SGN d  62      19.634  35.173  37.636  0.00  0.00     0.081 C 
ATOM     72  C4  SGN d  62      20.114  32.855  36.916  0.00  0.00     0.095 C 
ATOM     73  N   SGN d  62      18.558  36.070  37.912  0.00  0.00    -0.210 NA
ATOM     74  C3  SGN d  62      18.983  33.850  37.221  0.00  0.00     0.083 C 
ATOM     75  H   SGN d  62      19.862  38.391  38.806  0.00  0.00     0.231 HD
ATOM     76  H   SGN d  62      21.087  35.893  39.083  0.00  0.00     0.131 H 
ATOM     77  H   SGN d  62      20.123  32.284  38.961  0.00  0.00     0.090 H 
ATOM     78  H   SGN d  62      17.512  34.730  36.285  0.00  0.00     0.210 HD
ATOM     79  H   SGN d  62      22.695  31.809  38.888  0.00  0.00     0.080 H 
ATOM     80  H   SGN d  62      22.461  31.747  37.180  0.00  0.00     0.080 H 
ATOM     81  H   SGN d  62      17.494  38.495  38.638  0.00  0.00     0.231 HD
ATOM     82  H   SGN d  62      19.715  37.075  35.695  0.00  0.00     0.231 HD
ATOM     83  H   SGN d  62      20.282  35.514  36.856  0.00  0.00     0.076 H 
ATOM     84  H   SGN d  62      20.748  33.223  36.136  0.00  0.00     0.091 H 
ATOM     85  H   SGN d  62      17.711  35.680  37.497  0.00  0.00     0.140 HD
ATOM     86  H   SGN d  62      18.352  33.445  37.985  0.00  0.00     0.089 H 
ATOM     87  O4  IDS d  63      19.593  34.881  40.006  0.00  0.00    -0.348 OA
ATOM     88  O62 IDS d  63      19.090  33.148  43.222  0.00  0.00    -0.646 OA
ATOM     89  C2  IDS d  63      17.619  37.127  40.853  0.00  0.00     0.134 C 
ATOM     90  O2S IDS d  63      14.715  37.171  39.754  0.00  0.00    -0.572 OA
ATOM     91  O61 IDS d  63      21.115  33.776  42.787  0.00  0.00    -0.646 OA
ATOM     92  C3  IDS d  63      19.139  37.269  40.694  0.00  0.00     0.094 C 
ATOM     93  C1  IDS d  63      17.278  36.636  42.287  0.00  0.00     0.161 C 
ATOM     94  O5  IDS d  63      17.872  35.324  42.459  0.00  0.00    -0.340 OA
ATOM     95  C4  IDS d  63      19.841  35.875  40.993  0.00  0.00     0.103 C 
ATOM     96  C6  IDS d  63      19.902  33.979  42.811  0.00  0.00     0.206 C 
ATOM     97  S   IDS d  63      15.412  35.896  39.864  0.00  0.00     0.252 S 
ATOM     98  O3  IDS d  63      19.517  38.225  41.660  0.00  0.00    -0.390 OA
ATOM     99  C5  IDS d  63      19.357  35.333  42.365  0.00  0.00     0.152 C 
ATOM    100  O2  IDS d  63      17.141  36.269  39.851  0.00  0.00    -0.244 OA
ATOM    101  O1S IDS d  63      15.189  35.040  38.712  0.00  0.00    -0.572 OA
ATOM    102  O3S IDS d  63      14.943  35.267  41.064  0.00  0.00    -0.572 OA
ATOM    103  H   IDS d  63      17.133  38.072  40.733  0.00  0.00     0.097 H 
ATOM    104  H   IDS d  63      19.423  37.565  39.706  0.00  0.00     0.091 H 
ATOM    105  H   IDS d  63      16.232  36.528  42.483  0.00  0.00     0.133 H 
ATOM    106  H   IDS d  63      20.894  36.068  40.991  0.00  0.00     0.092 H 
ATOM    107  H   IDS d  63      19.243  37.922  42.540  0.00  0.00     0.210 HD
ATOM    108  H   IDS d  63      19.782  36.037  43.048  0.00  0.00     0.104 H 
ATOM    109  O4  SGN d  64      17.828  37.647  43.187  0.00  0.00    -0.348 OA
ATOM    110  O6  SGN d  64      14.825  39.159  45.619  0.00  0.00    -0.254 OA
ATOM    111  C3  SGN d  64      19.135  37.317  45.228  0.00  0.00     0.083 C 
ATOM    112  S2  SGN d  64      14.280  37.589  46.268  0.00  0.00     0.251 S 
ATOM    113  C5  SGN d  64      17.186  38.872  45.156  0.00  0.00     0.091 C 
ATOM    114  O1S SGN d  64      20.366  34.832  48.802  0.00  0.00    -0.296 OA
ATOM    115  C2  SGN d  64      19.000  37.221  46.716  0.00  0.00     0.081 C 
ATOM    116  O4S SGN d  64      13.721  36.833  45.178  0.00  0.00    -0.572 OA
ATOM    117  O3S SGN d  64      20.644  34.526  46.466  0.00  0.00    -0.296 OA
ATOM    118  S1  SGN d  64      20.928  35.402  47.589  0.00  0.00     0.156 S 
ATOM    119  O6S SGN d  64      15.378  36.854  46.862  0.00  0.00    -0.572 OA
ATOM    120  O5S SGN d  64      13.280  37.833  47.272  0.00  0.00    -0.572 OA
ATOM    121  O3  SGN d  64      19.681  36.118  44.810  0.00  0.00    -0.391 OA
ATOM    122  C1  SGN d  64      18.422  38.513  47.233  0.00  0.00     0.150 C 
ATOM    123  O2S SGN d  64      22.350  35.573  47.710  0.00  0.00    -0.296 OA
ATOM    124  C4  SGN d  64      17.728  37.537  44.615  0.00  0.00     0.095 C 
ATOM    125  O5  SGN d  64      17.142  38.741  46.607  0.00  0.00    -0.349 OA
ATOM    126  C6  SGN d  64      15.807  39.141  44.592  0.00  0.00     0.067 C 
ATOM    127  N   SGN d  64      20.303  37.035  47.305  0.00  0.00    -0.210 NA
ATOM    128  H   SGN d  64      19.758  38.132  44.922  0.00  0.00     0.089 H 
ATOM    129  H   SGN d  64      17.807  39.695  44.870  0.00  0.00     0.090 H 
ATOM    130  H   SGN d  64      19.408  34.726  48.696  0.00  0.00     0.231 HD
ATOM    131  H   SGN d  64      18.365  36.397  46.967  0.00  0.00     0.076 H 
ATOM    132  H   SGN d  64      19.684  34.408  46.383  0.00  0.00     0.231 HD
ATOM    133  H   SGN d  64      19.109  35.387  45.093  0.00  0.00     0.210 HD
ATOM    134  H   SGN d  64      18.272  38.487  48.292  0.00  0.00     0.131 H 
ATOM    135  H   SGN d  64      22.767  34.712  47.869  0.00  0.00     0.231 HD
ATOM    136  H   SGN d  64      17.089  36.716  44.868  0.00  0.00     0.091 H 
ATOM    137  H   SGN d  64      15.811  40.090  44.098  0.00  0.00     0.080 H 
ATOM    138  H   SGN d  64      15.564  38.358  43.905  0.00  0.00     0.080 H 
ATOM    139  H   SGN d  64      20.286  37.504  48.211  0.00  0.00     0.140 HD
ATOM    140  C1  IDS d  61      19.912  31.238  35.145  0.00  0.00     0.167 C 
ATOM    141  O5  IDS d  61      19.267  32.170  34.238  0.00  0.00    -0.311 OA
ATOM    142  C5  IDS d  61      17.905  32.067  33.988  0.00  0.00     0.147 C 
ATOM    143  C6  IDS d  61      17.255  33.192  33.093  0.00  0.00     0.233 C 
ATOM    144  C2  IDS d  61      19.351  29.845  34.879  0.00  0.00     0.135 C 
ATOM    145  O1S IDS d  61      20.590  31.512  32.281  0.00  0.00    -0.572 OA
ATOM    146  O3S IDS d  61      22.208  30.081  33.351  0.00  0.00    -0.572 OA
ATOM    147  O3  IDS d  61      17.530  29.600  36.300  0.00  0.00    -0.389 OA
ATOM    148  C4  IDS d  61      17.172  30.989  34.387  0.00  0.00    -0.034 C 
ATOM    149  C3  IDS d  61      17.826  29.778  34.960  0.00  0.00     0.086 C 
ATOM    150  O61 IDS d  61      16.062  33.125  32.793  0.00  0.00    -0.642 OA
ATOM    151  O62 IDS d  61      17.963  34.135  32.661  0.00  0.00    -0.642 OA
ATOM    152  O2S IDS d  61      21.085  29.499  31.320  0.00  0.00    -0.572 OA
ATOM    153  S   IDS d  61      20.978  30.158  32.577  0.00  0.00     0.252 S 
ATOM    154  O2  IDS d  61      19.685  29.410  33.550  0.00  0.00    -0.244 OA
ATOM    155  H   IDS d  61      20.972  31.262  34.999  0.00  0.00     0.134 H 
ATOM    156  H   IDS d  61      19.784  29.227  35.639  0.00  0.00     0.097 H 
ATOM    157  H   IDS d  61      17.976  28.802  36.627  0.00  0.00     0.210 HD
ATOM    158  H   IDS d  61      16.145  31.012  34.292  0.00  0.00     0.085 H 
ATOM    159  H   IDS d  61      17.443  28.971  34.372  0.00  0.00     0.093 H 
ENDROOT
TORSDOF 50
ENDMDL
MODEL 31
REMARK VINA RESULT:      -5.6      2.763      4.327
REMARK  0 active torsions:
REMARK  status: ('A' for Active; 'I' for Inactive)
REMARK       I    between atoms: O3S_3  and  S1_55 
REMARK       I    between atoms: O3_4  and  C3_87 
REMARK       I    between atoms: O4_5  and  C1_15 
REMARK       I    between atoms: O4_5  and  C4_57 
REMARK       I    between atoms: O4_7  and  C1_36 
REMARK       I    between atoms: O4_7  and  C4_89 
REMARK       I    between atoms: C4_8  and  O4_18 
REMARK       I    between atoms: C2_9  and  O2_84 
REMARK       I    between atoms: C6_10  and  C5_32 
REMARK       I    between atoms: C6_10  and  O6_102 
REMARK       I    between atoms: O6_11  and  C6_93 
REMARK       I    between atoms: O6_11  and  S2_25 
REMARK       I    between atoms: C1_13  and  O4_74 
REMARK       I    between atoms: C3_14  and  O3_71 
REMARK       I    between atoms: O4_18  and  C1_54 
REMARK       I    between atoms: S2_19  and  O6_39 
REMARK       I    between atoms: O2S_21  and  S1_45 
REMARK       I    between atoms: C5_22  and  C6_23 
REMARK       I    between atoms: C5_24  and  C6_77 
REMARK       I    between atoms: O1_27  and  C1_48 
REMARK       I    between atoms: C5_28  and  C6_30 
REMARK       I    between atoms: C5_29  and  C6_93 
REMARK       I    between atoms: O1S_31  and  S1_44 
REMARK       I    between atoms: C3_33  and  O3_69 
REMARK       I    between atoms: C2_37  and  N_99 
REMARK       I    between atoms: S2_38  and  O6_102 
REMARK       I    between atoms: O6_39  and  C6_77 
REMARK       I    between atoms: C2_40  and  O2_103 
REMARK       I    between atoms: O3S_42  and  S1_44 
REMARK       I    between atoms: S1_44  and  N_99 
REMARK       I    between atoms: S1_44  and  O2S_81 
REMARK       I    between atoms: S1_45  and  N_94 
REMARK       I    between atoms: S1_45  and  O1S_46 
REMARK       I    between atoms: S1_45  and  O3S_58 
REMARK       I    between atoms: O3_52  and  C3_105 
REMARK       I    between atoms: S1_55  and  N_100 
REMARK       I    between atoms: S1_55  and  O1S_79 
REMARK       I    between atoms: S1_55  and  O2S_83 
REMARK       I    between atoms: O3_56  and  C3_64 
REMARK       I    between atoms: C4_60  and  O4_61 
REMARK       I    between atoms: O4_61  and  C1_73 
REMARK       I    between atoms: C6_63  and  C5_80 
REMARK       I    between atoms: C3_65  and  O3_82 
REMARK       I    between atoms: S_67  and  O2_84 
REMARK       I    between atoms: C2_68  and  O2_98 
REMARK       I    between atoms: O4_74  and  C4_97 
REMARK       I    between atoms: C2_85  and  N_94 
REMARK       I    between atoms: C2_95  and  N_100 
REMARK       I    between atoms: O2_98  and  S_104 
REMARK       I    between atoms: S_101  and  O2_103 
ROOT
ATOM      1  O6S SGN d  66      23.782  30.946  54.399  0.00  0.00    -0.572 OA
ATOM      2  C4  SGN d  66      20.086  33.385  52.588  0.00  0.00     0.095 C 
ATOM      3  C6  SGN d  66      19.868  31.219  53.866  0.00  0.00     0.067 C 
ATOM      4  O4  SGN d  66      20.228  32.615  51.303  0.00  0.00    -0.348 OA
ATOM      5  O5S SGN d  66      22.395  29.292  53.401  0.00  0.00    -0.572 OA
ATOM      6  O2S SGN d  66      18.572  37.782  55.882  0.00  0.00    -0.296 OA
ATOM      7  O5  SGN d  66      19.075  33.364  54.826  0.00  0.00    -0.350 OA
ATOM      8  O1  SGN d  66      17.169  34.595  54.024  0.00  0.00    -0.369 OA
ATOM      9  C5  SGN d  66      19.229  32.592  53.586  0.00  0.00     0.091 C 
ATOM     10  S2  SGN d  66      22.605  30.725  53.583  0.00  0.00     0.251 S 
ATOM     11  S1  SGN d  66      17.807  37.692  54.654  0.00  0.00     0.156 S 
ATOM     12  O1S SGN d  66      17.505  39.010  54.115  0.00  0.00    -0.296 OA
ATOM     13  C1  SGN d  66      18.465  34.686  54.646  0.00  0.00     0.147 C 
ATOM     14  O3S SGN d  66      16.540  37.011  54.875  0.00  0.00    -0.296 OA
ATOM     15  C3  SGN d  66      19.509  34.792  52.357  0.00  0.00     0.083 C 
ATOM     16  O3  SGN d  66      20.417  35.549  51.559  0.00  0.00    -0.391 OA
ATOM     17  C2  SGN d  66      19.378  35.501  53.708  0.00  0.00     0.081 C 
ATOM     18  O4S SGN d  66      22.781  31.395  52.302  0.00  0.00    -0.572 OA
ATOM     19  N   SGN d  66      18.832  36.844  53.466  0.00  0.00    -0.210 NA
ATOM     20  O6  SGN d  66      21.187  31.376  54.440  0.00  0.00    -0.254 OA
ATOM     21  H   SGN d  66      21.064  33.518  53.000  0.00  0.00     0.091 H 
ATOM     22  H   SGN d  66      19.948  30.676  52.947  0.00  0.00     0.080 H 
ATOM     23  H   SGN d  66      19.252  30.687  54.560  0.00  0.00     0.080 H 
ATOM     24  H   SGN d  66      19.410  38.238  55.709  0.00  0.00     0.231 HD
ATOM     25  H   SGN d  66      16.571  34.086  54.594  0.00  0.00     0.212 HD
ATOM     26  H   SGN d  66      18.259  32.423  53.167  0.00  0.00     0.090 H 
ATOM     27  H   SGN d  66      18.333  39.491  53.957  0.00  0.00     0.231 HD
ATOM     28  H   SGN d  66      18.353  35.141  55.608  0.00  0.00     0.131 H 
ATOM     29  H   SGN d  66      16.707  36.126  55.235  0.00  0.00     0.231 HD
ATOM     30  H   SGN d  66      18.558  34.710  51.872  0.00  0.00     0.089 H 
ATOM     31  H   SGN d  66      21.271  35.612  52.013  0.00  0.00     0.210 HD
ATOM     32  H   SGN d  66      20.333  35.586  54.184  0.00  0.00     0.076 H 
ATOM     33  H   SGN d  66      19.635  37.451  53.302  0.00  0.00     0.140 HD
ATOM     34  O61 IDS d  65      17.861  35.648  48.246  0.00  0.00    -0.646 OA
ATOM     35  O3  IDS d  65      18.357  30.380  48.238  0.00  0.00    -0.390 OA
ATOM     36  C5  IDS d  65      19.149  33.886  49.220  0.00  0.00     0.152 C 
ATOM     37  C6  IDS d  65      19.009  35.316  48.633  0.00  0.00     0.206 C 
ATOM     38  O5  IDS d  65      20.560  33.662  49.525  0.00  0.00    -0.340 OA
ATOM     39  C1  IDS d  65      20.902  32.365  50.079  0.00  0.00     0.161 C 
ATOM     40  O1S IDS d  65      19.081  27.743  49.340  0.00  0.00    -0.572 OA
ATOM     41  C4  IDS d  65      18.562  32.754  48.307  0.00  0.00     0.103 C 
ATOM     42  O4  IDS d  65      18.147  33.490  47.153  0.00  0.00    -0.348 OA
ATOM     43  C2  IDS d  65      19.836  31.254  49.835  0.00  0.00     0.134 C 
ATOM     44  O62 IDS d  65      20.025  36.074  48.594  0.00  0.00    -0.646 OA
ATOM     45  C3  IDS d  65      19.286  31.396  48.452  0.00  0.00     0.094 C 
ATOM     46  O2S IDS d  65      18.140  29.285  50.896  0.00  0.00    -0.572 OA
ATOM     47  O3S IDS d  65      19.972  27.929  51.561  0.00  0.00    -0.572 OA
ATOM     48  O2  IDS d  65      20.436  29.969  49.897  0.00  0.00    -0.244 OA
ATOM     49  S   IDS d  65      19.365  28.653  50.448  0.00  0.00     0.252 S 
ATOM     50  H   IDS d  65      17.991  30.460  47.344  0.00  0.00     0.210 HD
ATOM     51  H   IDS d  65      18.557  33.832  50.109  0.00  0.00     0.104 H 
ATOM     52  H   IDS d  65      21.913  32.106  49.844  0.00  0.00     0.133 H 
ATOM     53  H   IDS d  65      17.682  32.182  48.515  0.00  0.00     0.092 H 
ATOM     54  H   IDS d  65      19.076  31.355  50.582  0.00  0.00     0.097 H 
ATOM     55  H   IDS d  65      20.086  31.339  47.744  0.00  0.00     0.091 H 
ATOM     56  O3S SGN d  62      22.274  37.216  39.881  0.00  0.00    -0.296 OA
ATOM     57  C1  SGN d  62      20.468  34.717  38.277  0.00  0.00     0.150 C 
ATOM     58  S2  SGN d  62      18.449  30.523  34.576  0.00  0.00     0.251 S 
ATOM     59  C5  SGN d  62      19.802  33.654  36.126  0.00  0.00     0.091 C 
ATOM     60  O5  SGN d  62      20.637  33.624  37.318  0.00  0.00    -0.349 OA
ATOM     61  O4S SGN d  62      19.382  29.661  33.930  0.00  0.00    -0.572 OA
ATOM     62  O6  SGN d  62      19.003  32.178  34.493  0.00  0.00    -0.254 OA
ATOM     63  O3  SGN d  62      19.734  37.339  35.721  0.00  0.00    -0.391 OA
ATOM     64  S1  SGN d  62      21.367  38.047  39.123  0.00  0.00     0.156 S 
ATOM     65  O6S SGN d  62      18.215  30.164  35.973  0.00  0.00    -0.572 OA
ATOM     66  O4  SGN d  62      19.210  34.946  34.193  0.00  0.00    -0.348 OA
ATOM     67  C6  SGN d  62      20.150  32.453  35.278  0.00  0.00     0.067 C 
ATOM     68  O5S SGN d  62      17.188  30.501  33.887  0.00  0.00    -0.572 OA
ATOM     69  O1S SGN d  62      20.733  39.050  39.952  0.00  0.00    -0.296 OA
ATOM     70  O2S SGN d  62      22.103  38.623  38.033  0.00  0.00    -0.296 OA
ATOM     71  C2  SGN d  62      20.541  36.040  37.526  0.00  0.00     0.081 C 
ATOM     72  C4  SGN d  62      20.034  34.965  35.356  0.00  0.00     0.095 C 
ATOM     73  N   SGN d  62      20.105  37.083  38.399  0.00  0.00    -0.210 NA
ATOM     74  C3  SGN d  62      19.597  36.079  36.321  0.00  0.00     0.083 C 
ATOM     75  H   SGN d  62      21.798  36.814  40.625  0.00  0.00     0.231 HD
ATOM     76  H   SGN d  62      21.249  34.607  38.999  0.00  0.00     0.131 H 
ATOM     77  H   SGN d  62      18.766  33.612  36.389  0.00  0.00     0.090 H 
ATOM     78  H   SGN d  62      19.453  38.026  36.345  0.00  0.00     0.210 HD
ATOM     79  H   SGN d  62      20.384  31.615  35.899  0.00  0.00     0.080 H 
ATOM     80  H   SGN d  62      21.006  32.645  34.664  0.00  0.00     0.080 H 
ATOM     81  H   SGN d  62      20.249  38.616  40.672  0.00  0.00     0.231 HD
ATOM     82  H   SGN d  62      22.509  37.916  37.508  0.00  0.00     0.231 HD
ATOM     83  H   SGN d  62      21.551  36.158  37.195  0.00  0.00     0.076 H 
ATOM     84  H   SGN d  62      21.049  35.106  35.044  0.00  0.00     0.091 H 
ATOM     85  H   SGN d  62      19.502  37.707  37.864  0.00  0.00     0.140 HD
ATOM     86  H   SGN d  62      18.574  35.926  36.596  0.00  0.00     0.089 H 
ATOM     87  O4  IDS d  63      19.224  34.686  38.988  0.00  0.00    -0.348 OA
ATOM     88  O62 IDS d  63      16.432  32.519  40.040  0.00  0.00    -0.646 OA
ATOM     89  C2  IDS d  63      18.571  36.708  41.255  0.00  0.00     0.134 C 
ATOM     90  O2S IDS d  63      17.058  39.346  40.627  0.00  0.00    -0.572 OA
ATOM     91  O61 IDS d  63      18.403  31.626  40.100  0.00  0.00    -0.646 OA
ATOM     92  C3  IDS d  63      19.801  35.792  41.185  0.00  0.00     0.094 C 
ATOM     93  C1  IDS d  63      17.388  35.960  41.928  0.00  0.00     0.161 C 
ATOM     94  O5  IDS d  63      17.052  34.821  41.095  0.00  0.00    -0.340 OA
ATOM     95  C4  IDS d  63      19.439  34.471  40.378  0.00  0.00     0.103 C 
ATOM     96  C6  IDS d  63      17.634  32.563  40.308  0.00  0.00     0.206 C 
ATOM     97  S   IDS d  63      16.844  38.186  39.771  0.00  0.00     0.252 S 
ATOM     98  O3  IDS d  63      20.098  35.480  42.528  0.00  0.00    -0.390 OA
ATOM     99  C5  IDS d  63      18.157  33.832  40.977  0.00  0.00     0.152 C 
ATOM    100  O2  IDS d  63      18.270  37.157  39.960  0.00  0.00    -0.244 OA
ATOM    101  O1S IDS d  63      16.798  38.535  38.363  0.00  0.00    -0.572 OA
ATOM    102  O3S IDS d  63      15.611  37.583  40.188  0.00  0.00    -0.572 OA
ATOM    103  H   IDS d  63      18.769  37.567  41.860  0.00  0.00     0.097 H 
ATOM    104  H   IDS d  63      20.629  36.253  40.689  0.00  0.00     0.091 H 
ATOM    105  H   IDS d  63      16.495  36.540  42.030  0.00  0.00     0.133 H 
ATOM    106  H   IDS d  63      20.287  33.826  40.473  0.00  0.00     0.092 H 
ATOM    107  H   IDS d  63      19.325  35.065  42.942  0.00  0.00     0.210 HD
ATOM    108  H   IDS d  63      18.494  33.513  41.941  0.00  0.00     0.104 H 
ATOM    109  O4  SGN d  64      17.868  35.588  43.257  0.00  0.00    -0.348 OA
ATOM    110  O6  SGN d  64      15.345  37.148  46.159  0.00  0.00    -0.254 OA
ATOM    111  C3  SGN d  64      17.648  33.440  44.407  0.00  0.00     0.083 C 
ATOM    112  S2  SGN d  64      13.839  36.436  45.523  0.00  0.00     0.251 S 
ATOM    113  C5  SGN d  64      17.097  35.595  45.537  0.00  0.00     0.091 C 
ATOM    114  O1S SGN d  64      15.528  29.506  45.110  0.00  0.00    -0.296 OA
ATOM    115  C2  SGN d  64      16.788  32.708  45.391  0.00  0.00     0.081 C 
ATOM    116  O4S SGN d  64      13.575  37.037  44.241  0.00  0.00    -0.572 OA
ATOM    117  O3S SGN d  64      16.689  30.388  43.239  0.00  0.00    -0.296 OA
ATOM    118  S1  SGN d  64      16.804  30.021  44.639  0.00  0.00     0.156 S 
ATOM    119  O6S SGN d  64      13.955  35.000  45.376  0.00  0.00    -0.572 OA
ATOM    120  O5S SGN d  64      12.772  36.730  46.441  0.00  0.00    -0.572 OA
ATOM    121  O3  SGN d  64      17.618  32.699  43.242  0.00  0.00    -0.391 OA
ATOM    122  C1  SGN d  64      16.795  33.465  46.694  0.00  0.00     0.150 C 
ATOM    123  O2S SGN d  64      17.844  29.041  44.791  0.00  0.00    -0.296 OA
ATOM    124  C4  SGN d  64      17.055  34.856  44.187  0.00  0.00     0.095 C 
ATOM    125  O5  SGN d  64      16.302  34.802  46.467  0.00  0.00    -0.349 OA
ATOM    126  C6  SGN d  64      16.526  36.989  45.386  0.00  0.00     0.067 C 
ATOM    127  N   SGN d  64      17.336  31.395  45.623  0.00  0.00    -0.210 NA
ATOM    128  H   SGN d  64      18.656  33.555  44.746  0.00  0.00     0.089 H 
ATOM    129  H   SGN d  64      18.100  35.705  45.895  0.00  0.00     0.090 H 
ATOM    130  H   SGN d  64      14.844  30.184  44.998  0.00  0.00     0.231 HD
ATOM    131  H   SGN d  64      15.793  32.626  45.008  0.00  0.00     0.076 H 
ATOM    132  H   SGN d  64      15.986  31.050  43.134  0.00  0.00     0.231 HD
ATOM    133  H   SGN d  64      16.700  32.601  42.944  0.00  0.00     0.210 HD
ATOM    134  H   SGN d  64      16.166  33.003  47.427  0.00  0.00     0.131 H 
ATOM    135  H   SGN d  64      17.620  28.251  44.274  0.00  0.00     0.231 HD
ATOM    136  H   SGN d  64      16.057  34.777  43.808  0.00  0.00     0.091 H 
ATOM    137  H   SGN d  64      17.255  37.702  45.711  0.00  0.00     0.080 H 
ATOM    138  H   SGN d  64      16.280  37.144  44.356  0.00  0.00     0.080 H 
ATOM    139  H   SGN d  64      17.130  31.158  46.594  0.00  0.00     0.140 HD
ATOM    140  C1  IDS d  61      19.908  35.258  32.971  0.00  0.00     0.167 C 
ATOM    141  O5  IDS d  61      20.364  36.635  33.019  0.00  0.00    -0.311 OA
ATOM    142  C5  IDS d  61      19.464  37.674  32.823  0.00  0.00     0.147 C 
ATOM    143  C6  IDS d  61      20.011  39.141  33.018  0.00  0.00     0.233 C 
ATOM    144  C2  IDS d  61      18.920  35.121  31.817  0.00  0.00     0.135 C 
ATOM    145  O1S IDS d  61      21.906  36.416  31.124  0.00  0.00    -0.572 OA
ATOM    146  O3S IDS d  61      21.805  34.030  30.798  0.00  0.00    -0.572 OA
ATOM    147  O3  IDS d  61      16.818  35.538  32.714  0.00  0.00    -0.389 OA
ATOM    148  C4  IDS d  61      18.197  37.461  32.368  0.00  0.00    -0.034 C 
ATOM    149  C3  IDS d  61      17.763  36.118  31.886  0.00  0.00     0.086 C 
ATOM    150  O61 IDS d  61      19.273  40.104  32.806  0.00  0.00    -0.642 OA
ATOM    151  O62 IDS d  61      21.206  39.324  33.356  0.00  0.00    -0.642 OA
ATOM    152  O2S IDS d  61      21.682  35.604  29.000  0.00  0.00    -0.572 OA
ATOM    153  S   IDS d  61      21.342  35.337  30.356  0.00  0.00     0.252 S 
ATOM    154  O2  IDS d  61      19.571  35.375  30.560  0.00  0.00    -0.244 OA
ATOM    155  H   IDS d  61      20.744  34.602  32.844  0.00  0.00     0.134 H 
ATOM    156  H   IDS d  61      18.545  34.122  31.896  0.00  0.00     0.097 H 
ATOM    157  H   IDS d  61      16.568  34.670  32.361  0.00  0.00     0.210 HD
ATOM    158  H   IDS d  61      17.525  38.243  32.358  0.00  0.00     0.085 H 
ATOM    159  H   IDS d  61      17.358  36.308  30.914  0.00  0.00     0.093 H 
ENDROOT
TORSDOF 50
ENDMDL
MODEL 32
REMARK VINA RESULT:      -5.6      4.123     15.469
REMARK  0 active torsions:
REMARK  status: ('A' for Active; 'I' for Inactive)
REMARK       I    between atoms: O3S_3  and  S1_55 
REMARK       I    between atoms: O3_4  and  C3_87 
REMARK       I    between atoms: O4_5  and  C1_15 
REMARK       I    between atoms: O4_5  and  C4_57 
REMARK       I    between atoms: O4_7  and  C1_36 
REMARK       I    between atoms: O4_7  and  C4_89 
REMARK       I    between atoms: C4_8  and  O4_18 
REMARK       I    between atoms: C2_9  and  O2_84 
REMARK       I    between atoms: C6_10  and  C5_32 
REMARK       I    between atoms: C6_10  and  O6_102 
REMARK       I    between atoms: O6_11  and  C6_93 
REMARK       I    between atoms: O6_11  and  S2_25 
REMARK       I    between atoms: C1_13  and  O4_74 
REMARK       I    between atoms: C3_14  and  O3_71 
REMARK       I    between atoms: O4_18  and  C1_54 
REMARK       I    between atoms: S2_19  and  O6_39 
REMARK       I    between atoms: O2S_21  and  S1_45 
REMARK       I    between atoms: C5_22  and  C6_23 
REMARK       I    between atoms: C5_24  and  C6_77 
REMARK       I    between atoms: O1_27  and  C1_48 
REMARK       I    between atoms: C5_28  and  C6_30 
REMARK       I    between atoms: C5_29  and  C6_93 
REMARK       I    between atoms: O1S_31  and  S1_44 
REMARK       I    between atoms: C3_33  and  O3_69 
REMARK       I    between atoms: C2_37  and  N_99 
REMARK       I    between atoms: S2_38  and  O6_102 
REMARK       I    between atoms: O6_39  and  C6_77 
REMARK       I    between atoms: C2_40  and  O2_103 
REMARK       I    between atoms: O3S_42  and  S1_44 
REMARK       I    between atoms: S1_44  and  N_99 
REMARK       I    between atoms: S1_44  and  O2S_81 
REMARK       I    between atoms: S1_45  and  N_94 
REMARK       I    between atoms: S1_45  and  O1S_46 
REMARK       I    between atoms: S1_45  and  O3S_58 
REMARK       I    between atoms: O3_52  and  C3_105 
REMARK       I    between atoms: S1_55  and  N_100 
REMARK       I    between atoms: S1_55  and  O1S_79 
REMARK       I    between atoms: S1_55  and  O2S_83 
REMARK       I    between atoms: O3_56  and  C3_64 
REMARK       I    between atoms: C4_60  and  O4_61 
REMARK       I    between atoms: O4_61  and  C1_73 
REMARK       I    between atoms: C6_63  and  C5_80 
REMARK       I    between atoms: C3_65  and  O3_82 
REMARK       I    between atoms: S_67  and  O2_84 
REMARK       I    between atoms: C2_68  and  O2_98 
REMARK       I    between atoms: O4_74  and  C4_97 
REMARK       I    between atoms: C2_85  and  N_94 
REMARK       I    between atoms: C2_95  and  N_100 
REMARK       I    between atoms: O2_98  and  S_104 
REMARK       I    between atoms: S_101  and  O2_103 
ROOT
ATOM      1  O6S SGN d  66      15.703  33.887  32.599  0.00  0.00    -0.572 OA
ATOM      2  C4  SGN d  66      19.212  34.726  35.742  0.00  0.00     0.095 C 
ATOM      3  C6  SGN d  66      19.306  32.952  33.949  0.00  0.00     0.067 C 
ATOM      4  O4  SGN d  66      18.580  33.740  36.687  0.00  0.00    -0.348 OA
ATOM      5  O5S SGN d  66      16.404  31.730  33.315  0.00  0.00    -0.572 OA
ATOM      6  O2S SGN d  66      22.418  39.200  34.263  0.00  0.00    -0.296 OA
ATOM      7  O5  SGN d  66      20.751  34.965  33.843  0.00  0.00    -0.350 OA
ATOM      8  O1  SGN d  66      22.590  35.404  35.332  0.00  0.00    -0.369 OA
ATOM      9  C5  SGN d  66      20.119  33.992  34.742  0.00  0.00     0.091 C 
ATOM     10  S2  SGN d  66      16.551  33.167  33.528  0.00  0.00     0.251 S 
ATOM     11  S1  SGN d  66      22.795  38.615  35.535  0.00  0.00     0.156 S 
ATOM     12  O1S SGN d  66      23.210  39.634  36.488  0.00  0.00    -0.296 OA
ATOM     13  C1  SGN d  66      21.551  35.989  34.522  0.00  0.00     0.147 C 
ATOM     14  O3S SGN d  66      23.906  37.689  35.376  0.00  0.00    -0.296 OA
ATOM     15  C3  SGN d  66      19.986  35.826  36.488  0.00  0.00     0.083 C 
ATOM     16  O3  SGN d  66      19.077  36.589  37.280  0.00  0.00    -0.391 OA
ATOM     17  C2  SGN d  66      20.612  36.774  35.461  0.00  0.00     0.081 C 
ATOM     18  O4S SGN d  66      16.185  33.534  34.889  0.00  0.00    -0.572 OA
ATOM     19  N   SGN d  66      21.341  37.820  36.192  0.00  0.00    -0.210 NA
ATOM     20  O6  SGN d  66      18.248  33.593  33.199  0.00  0.00    -0.254 OA
ATOM     21  H   SGN d  66      18.426  35.214  35.204  0.00  0.00     0.091 H 
ATOM     22  H   SGN d  66      18.876  32.248  34.631  0.00  0.00     0.080 H 
ATOM     23  H   SGN d  66      19.960  32.454  33.264  0.00  0.00     0.080 H 
ATOM     24  H   SGN d  66      21.677  39.811  34.395  0.00  0.00     0.231 HD
ATOM     25  H   SGN d  66      23.197  34.904  34.766  0.00  0.00     0.212 HD
ATOM     26  H   SGN d  66      20.887  33.471  35.275  0.00  0.00     0.090 H 
ATOM     27  H   SGN d  66      22.489  40.270  36.615  0.00  0.00     0.231 HD
ATOM     28  H   SGN d  66      22.005  36.612  33.781  0.00  0.00     0.131 H 
ATOM     29  H   SGN d  66      23.661  36.995  34.745  0.00  0.00     0.231 HD
ATOM     30  H   SGN d  66      20.736  35.377  37.104  0.00  0.00     0.089 H 
ATOM     31  H   SGN d  66      18.405  36.988  36.705  0.00  0.00     0.210 HD
ATOM     32  H   SGN d  66      19.856  37.226  34.853  0.00  0.00     0.076 H 
ATOM     33  H   SGN d  66      20.666  38.565  36.367  0.00  0.00     0.140 HD
ATOM     34  O61 IDS d  65      20.630  35.198  40.908  0.00  0.00    -0.646 OA
ATOM     35  O3  IDS d  65      19.070  30.419  39.258  0.00  0.00    -0.390 OA
ATOM     36  C5  IDS d  65      19.309  34.137  39.223  0.00  0.00     0.152 C 
ATOM     37  C6  IDS d  65      19.582  35.293  40.222  0.00  0.00     0.206 C 
ATOM     38  O5  IDS d  65      18.014  34.384  38.593  0.00  0.00    -0.340 OA
ATOM     39  C1  IDS d  65      17.570  33.399  37.624  0.00  0.00     0.161 C 
ATOM     40  O1S IDS d  65      18.134  28.419  37.305  0.00  0.00    -0.572 OA
ATOM     41  C4  IDS d  65      19.387  32.704  39.856  0.00  0.00     0.103 C 
ATOM     42  O4  IDS d  65      19.626  33.003  41.234  0.00  0.00    -0.348 OA
ATOM     43  C2  IDS d  65      18.279  32.016  37.733  0.00  0.00     0.134 C 
ATOM     44  O62 IDS d  65      18.772  36.266  40.283  0.00  0.00    -0.646 OA
ATOM     45  C3  IDS d  65      18.462  31.669  39.176  0.00  0.00     0.094 C 
ATOM     46  O2S IDS d  65      19.750  29.972  36.492  0.00  0.00    -0.572 OA
ATOM     47  O3S IDS d  65      17.919  29.364  35.109  0.00  0.00    -0.572 OA
ATOM     48  O2  IDS d  65      17.464  30.996  37.176  0.00  0.00    -0.244 OA
ATOM     49  S   IDS d  65      18.346  29.609  36.483  0.00  0.00     0.252 S 
ATOM     50  H   IDS d  65      19.195  30.180  40.190  0.00  0.00     0.210 HD
ATOM     51  H   IDS d  65      20.090  34.138  38.493  0.00  0.00     0.104 H 
ATOM     52  H   IDS d  65      16.501  33.376  37.568  0.00  0.00     0.133 H 
ATOM     53  H   IDS d  65      20.152  31.982  39.666  0.00  0.00     0.092 H 
ATOM     54  H   IDS d  65      19.213  32.081  37.215  0.00  0.00     0.097 H 
ATOM     55  H   IDS d  65      17.509  31.665  39.663  0.00  0.00     0.091 H 
ATOM     56  O3S SGN d  62      14.589  35.866  48.323  0.00  0.00    -0.296 OA
ATOM     57  C1  SGN d  62      15.350  32.664  49.437  0.00  0.00     0.150 C 
ATOM     58  S2  SGN d  62      15.407  27.323  52.051  0.00  0.00     0.251 S 
ATOM     59  C5  SGN d  62      15.189  30.978  51.264  0.00  0.00     0.091 C 
ATOM     60  O5  SGN d  62      14.711  31.462  49.976  0.00  0.00    -0.349 OA
ATOM     61  O4S SGN d  62      14.179  26.618  52.217  0.00  0.00    -0.572 OA
ATOM     62  O6  SGN d  62      15.205  28.996  52.510  0.00  0.00    -0.254 OA
ATOM     63  O3  SGN d  62      15.909  34.300  52.746  0.00  0.00    -0.391 OA
ATOM     64  S1  SGN d  62      15.415  36.214  49.456  0.00  0.00     0.156 S 
ATOM     65  O6S SGN d  62      15.922  27.258  50.686  0.00  0.00    -0.572 OA
ATOM     66  O4  SGN d  62      15.505  31.563  53.569  0.00  0.00    -0.348 OA
ATOM     67  C6  SGN d  62      14.389  29.752  51.633  0.00  0.00     0.067 C 
ATOM     68  O5S SGN d  62      16.409  26.795  52.937  0.00  0.00    -0.572 OA
ATOM     69  O1S SGN d  62      16.439  37.175  49.102  0.00  0.00    -0.296 OA
ATOM     70  O2S SGN d  62      14.554  36.691  50.499  0.00  0.00    -0.296 OA
ATOM     71  C2  SGN d  62      15.357  33.738  50.516  0.00  0.00     0.081 C 
ATOM     72  C4  SGN d  62      15.039  32.081  52.326  0.00  0.00     0.095 C 
ATOM     73  N   SGN d  62      16.214  34.800  50.094  0.00  0.00    -0.210 NA
ATOM     74  C3  SGN d  62      15.936  33.230  51.840  0.00  0.00     0.083 C 
ATOM     75  H   SGN d  62      15.151  35.539  47.602  0.00  0.00     0.231 HD
ATOM     76  H   SGN d  62      14.781  32.945  48.576  0.00  0.00     0.131 H 
ATOM     77  H   SGN d  62      16.226  30.721  51.209  0.00  0.00     0.090 H 
ATOM     78  H   SGN d  62      16.481  35.013  52.422  0.00  0.00     0.210 HD
ATOM     79  H   SGN d  62      14.159  29.181  50.757  0.00  0.00     0.080 H 
ATOM     80  H   SGN d  62      13.461  30.016  52.094  0.00  0.00     0.080 H 
ATOM     81  H   SGN d  62      16.995  36.810  48.396  0.00  0.00     0.231 HD
ATOM     82  H   SGN d  62      13.886  36.017  50.701  0.00  0.00     0.231 HD
ATOM     83  H   SGN d  62      14.342  34.044  50.662  0.00  0.00     0.076 H 
ATOM     84  H   SGN d  62      14.030  32.414  52.460  0.00  0.00     0.091 H 
ATOM     85  H   SGN d  62      16.770  35.091  50.899  0.00  0.00     0.140 HD
ATOM     86  H   SGN d  62      16.941  32.876  51.739  0.00  0.00     0.089 H 
ATOM     87  O4  IDS d  63      16.703  32.466  49.008  0.00  0.00    -0.348 OA
ATOM     88  O62 IDS d  63      19.162  29.937  47.933  0.00  0.00    -0.646 OA
ATOM     89  C2  IDS d  63      18.335  34.714  47.616  0.00  0.00     0.134 C 
ATOM     90  O2S IDS d  63      20.141  36.613  49.282  0.00  0.00    -0.572 OA
ATOM     91  O61 IDS d  63      17.136  29.655  47.224  0.00  0.00    -0.646 OA
ATOM     92  C3  IDS d  63      16.969  34.178  47.169  0.00  0.00     0.094 C 
ATOM     93  C1  IDS d  63      19.472  33.855  46.998  0.00  0.00     0.161 C 
ATOM     94  O5  IDS d  63      19.333  32.504  47.506  0.00  0.00    -0.340 OA
ATOM     95  C4  IDS d  63      16.823  32.655  47.603  0.00  0.00     0.103 C 
ATOM     96  C6  IDS d  63      18.110  30.369  47.458  0.00  0.00     0.206 C 
ATOM     97  S   IDS d  63      19.876  35.269  49.780  0.00  0.00     0.252 S 
ATOM     98  O3  IDS d  63      16.979  34.287  45.762  0.00  0.00    -0.390 OA
ATOM     99  C5  IDS d  63      18.056  31.853  47.106  0.00  0.00     0.152 C 
ATOM    100  O2  IDS d  63      18.369  34.742  49.019  0.00  0.00    -0.244 OA
ATOM    101  O1S IDS d  63      19.621  35.247  51.209  0.00  0.00    -0.572 OA
ATOM    102  O3S IDS d  63      21.023  34.472  49.456  0.00  0.00    -0.572 OA
ATOM    103  H   IDS d  63      18.486  35.714  47.266  0.00  0.00     0.097 H 
ATOM    104  H   IDS d  63      16.153  34.714  47.606  0.00  0.00     0.091 H 
ATOM    105  H   IDS d  63      20.461  34.178  47.251  0.00  0.00     0.133 H 
ATOM    106  H   IDS d  63      15.915  32.306  47.157  0.00  0.00     0.092 H 
ATOM    107  H   IDS d  63      17.730  33.789  45.405  0.00  0.00     0.210 HD
ATOM    108  H   IDS d  63      17.927  31.878  46.044  0.00  0.00     0.104 H 
ATOM    109  O4  SGN d  64      19.294  33.956  45.552  0.00  0.00    -0.348 OA
ATOM    110  O6  SGN d  64      22.760  35.416  43.799  0.00  0.00    -0.254 OA
ATOM    111  C3  SGN d  64      19.361  32.167  43.884  0.00  0.00     0.083 C 
ATOM    112  S2  SGN d  64      23.863  34.192  44.479  0.00  0.00     0.251 S 
ATOM    113  C5  SGN d  64      20.624  34.296  43.575  0.00  0.00     0.091 C 
ATOM    114  O1S SGN d  64      20.729  28.090  42.479  0.00  0.00    -0.296 OA
ATOM    115  C2  SGN d  64      20.279  31.486  42.917  0.00  0.00     0.081 C 
ATOM    116  O4S SGN d  64      23.898  34.375  45.906  0.00  0.00    -0.572 OA
ATOM    117  O3S SGN d  64      19.324  28.782  44.261  0.00  0.00    -0.296 OA
ATOM    118  S1  SGN d  64      19.509  28.805  42.821  0.00  0.00     0.156 S 
ATOM    119  O6S SGN d  64      23.418  32.849  44.167  0.00  0.00    -0.572 OA
ATOM    120  O5S SGN d  64      25.172  34.394  43.917  0.00  0.00    -0.572 OA
ATOM    121  O3  SGN d  64      18.927  31.190  44.760  0.00  0.00    -0.391 OA
ATOM    122  C1  SGN d  64      20.773  32.503  41.922  0.00  0.00     0.150 C 
ATOM    123  O2S SGN d  64      18.367  28.209  42.185  0.00  0.00    -0.296 OA
ATOM    124  C4  SGN d  64      20.154  33.274  44.626  0.00  0.00     0.095 C 
ATOM    125  O5  SGN d  64      21.454  33.562  42.628  0.00  0.00    -0.349 OA
ATOM    126  C6  SGN d  64      21.410  35.405  44.242  0.00  0.00     0.067 C 
ATOM    127  N   SGN d  64      19.552  30.464  42.203  0.00  0.00    -0.210 NA
ATOM    128  H   SGN d  64      18.524  32.629  43.403  0.00  0.00     0.089 H 
ATOM    129  H   SGN d  64      19.797  34.756  43.075  0.00  0.00     0.090 H 
ATOM    130  H   SGN d  64      21.484  28.509  42.920  0.00  0.00     0.231 HD
ATOM    131  H   SGN d  64      21.098  31.047  43.447  0.00  0.00     0.076 H 
ATOM    132  H   SGN d  64      20.095  29.183  44.693  0.00  0.00     0.231 HD
ATOM    133  H   SGN d  64      19.693  30.778  45.190  0.00  0.00     0.210 HD
ATOM    134  H   SGN d  64      21.463  32.076  41.224  0.00  0.00     0.131 H 
ATOM    135  H   SGN d  64      18.277  27.289  42.477  0.00  0.00     0.231 HD
ATOM    136  H   SGN d  64      20.977  32.839  45.154  0.00  0.00     0.091 H 
ATOM    137  H   SGN d  64      20.957  36.344  44.005  0.00  0.00     0.080 H 
ATOM    138  H   SGN d  64      21.402  35.237  45.298  0.00  0.00     0.080 H 
ATOM    139  H   SGN d  64      19.953  30.419  41.267  0.00  0.00     0.140 HD
ATOM    140  C1  IDS d  61      14.588  31.752  54.667  0.00  0.00     0.167 C 
ATOM    141  O5  IDS d  61      14.456  33.172  54.939  0.00  0.00    -0.311 OA
ATOM    142  C5  IDS d  61      15.468  33.849  55.607  0.00  0.00     0.147 C 
ATOM    143  C6  IDS d  61      15.308  35.412  55.752  0.00  0.00     0.233 C 
ATOM    144  C2  IDS d  61      15.186  31.081  55.899  0.00  0.00     0.135 C 
ATOM    145  O1S IDS d  61      12.459  32.934  56.342  0.00  0.00    -0.572 OA
ATOM    146  O3S IDS d  61      11.974  30.604  55.960  0.00  0.00    -0.572 OA
ATOM    147  O3  IDS d  61      17.489  31.112  55.598  0.00  0.00    -0.389 OA
ATOM    148  C4  IDS d  61      16.497  33.198  56.219  0.00  0.00    -0.034 C 
ATOM    149  C3  IDS d  61      16.501  31.713  56.358  0.00  0.00     0.086 C 
ATOM    150  O61 IDS d  61      16.147  36.059  56.380  0.00  0.00    -0.642 OA
ATOM    151  O62 IDS d  61      14.309  35.988  55.255  0.00  0.00    -0.642 OA
ATOM    152  O2S IDS d  61      11.941  31.611  58.131  0.00  0.00    -0.572 OA
ATOM    153  S   IDS d  61      12.563  31.592  56.852  0.00  0.00     0.252 S 
ATOM    154  O2  IDS d  61      14.294  31.195  57.021  0.00  0.00    -0.244 OA
ATOM    155  H   IDS d  61      13.632  31.337  54.427  0.00  0.00     0.134 H 
ATOM    156  H   IDS d  61      15.353  30.066  55.603  0.00  0.00     0.097 H 
ATOM    157  H   IDS d  61      17.452  30.150  55.720  0.00  0.00     0.210 HD
ATOM    158  H   IDS d  61      17.290  33.742  56.593  0.00  0.00     0.085 H 
ATOM    159  H   IDS d  61      16.665  31.548  57.401  0.00  0.00     0.093 H 
ENDROOT
TORSDOF 50
ENDMDL
MODEL 33
REMARK VINA RESULT:      -5.5      2.483     15.996
REMARK  0 active torsions:
REMARK  status: ('A' for Active; 'I' for Inactive)
REMARK       I    between atoms: O3S_3  and  S1_55 
REMARK       I    between atoms: O3_4  and  C3_87 
REMARK       I    between atoms: O4_5  and  C1_15 
REMARK       I    between atoms: O4_5  and  C4_57 
REMARK       I    between atoms: O4_7  and  C1_36 
REMARK       I    between atoms: O4_7  and  C4_89 
REMARK       I    between atoms: C4_8  and  O4_18 
REMARK       I    between atoms: C2_9  and  O2_84 
REMARK       I    between atoms: C6_10  and  C5_32 
REMARK       I    between atoms: C6_10  and  O6_102 
REMARK       I    between atoms: O6_11  and  C6_93 
REMARK       I    between atoms: O6_11  and  S2_25 
REMARK       I    between atoms: C1_13  and  O4_74 
REMARK       I    between atoms: C3_14  and  O3_71 
REMARK       I    between atoms: O4_18  and  C1_54 
REMARK       I    between atoms: S2_19  and  O6_39 
REMARK       I    between atoms: O2S_21  and  S1_45 
REMARK       I    between atoms: C5_22  and  C6_23 
REMARK       I    between atoms: C5_24  and  C6_77 
REMARK       I    between atoms: O1_27  and  C1_48 
REMARK       I    between atoms: C5_28  and  C6_30 
REMARK       I    between atoms: C5_29  and  C6_93 
REMARK       I    between atoms: O1S_31  and  S1_44 
REMARK       I    between atoms: C3_33  and  O3_69 
REMARK       I    between atoms: C2_37  and  N_99 
REMARK       I    between atoms: S2_38  and  O6_102 
REMARK       I    between atoms: O6_39  and  C6_77 
REMARK       I    between atoms: C2_40  and  O2_103 
REMARK       I    between atoms: O3S_42  and  S1_44 
REMARK       I    between atoms: S1_44  and  N_99 
REMARK       I    between atoms: S1_44  and  O2S_81 
REMARK       I    between atoms: S1_45  and  N_94 
REMARK       I    between atoms: S1_45  and  O1S_46 
REMARK       I    between atoms: S1_45  and  O3S_58 
REMARK       I    between atoms: O3_52  and  C3_105 
REMARK       I    between atoms: S1_55  and  N_100 
REMARK       I    between atoms: S1_55  and  O1S_79 
REMARK       I    between atoms: S1_55  and  O2S_83 
REMARK       I    between atoms: O3_56  and  C3_64 
REMARK       I    between atoms: C4_60  and  O4_61 
REMARK       I    between atoms: O4_61  and  C1_73 
REMARK       I    between atoms: C6_63  and  C5_80 
REMARK       I    between atoms: C3_65  and  O3_82 
REMARK       I    between atoms: S_67  and  O2_84 
REMARK       I    between atoms: C2_68  and  O2_98 
REMARK       I    between atoms: O4_74  and  C4_97 
REMARK       I    between atoms: C2_85  and  N_94 
REMARK       I    between atoms: C2_95  and  N_100 
REMARK       I    between atoms: O2_98  and  S_104 
REMARK       I    between atoms: S_101  and  O2_103 
ROOT
ATOM      1  O6S SGN d  66      21.297  34.342  31.904  0.00  0.00    -0.572 OA
ATOM      2  C4  SGN d  66      21.004  31.503  35.744  0.00  0.00     0.095 C 
ATOM      3  C6  SGN d  66      19.467  31.354  33.747  0.00  0.00     0.067 C 
ATOM      4  O4  SGN d  66      20.074  32.496  36.387  0.00  0.00    -0.348 OA
ATOM      5  O5S SGN d  66      18.973  34.225  32.395  0.00  0.00    -0.572 OA
ATOM      6  O2S SGN d  66      24.829  27.281  35.611  0.00  0.00    -0.296 OA
ATOM      7  O5  SGN d  66      21.124  29.573  34.230  0.00  0.00    -0.350 OA
ATOM      8  O1  SGN d  66      20.988  28.051  36.089  0.00  0.00    -0.369 OA
ATOM      9  C5  SGN d  66      20.212  30.554  34.831  0.00  0.00     0.091 C 
ATOM     10  S2  SGN d  66      20.311  33.864  32.853  0.00  0.00     0.251 S 
ATOM     11  S1  SGN d  66      24.036  27.303  36.825  0.00  0.00     0.156 S 
ATOM     12  O1S SGN d  66      24.828  26.922  37.986  0.00  0.00    -0.296 OA
ATOM     13  C1  SGN d  66      21.869  28.763  35.199  0.00  0.00     0.147 C 
ATOM     14  O3S SGN d  66      22.919  26.375  36.737  0.00  0.00    -0.296 OA
ATOM     15  C3  SGN d  66      21.821  30.718  36.784  0.00  0.00     0.083 C 
ATOM     16  O3  SGN d  66      22.664  31.620  37.499  0.00  0.00    -0.391 OA
ATOM     17  C2  SGN d  66      22.724  29.720  36.055  0.00  0.00     0.081 C 
ATOM     18  O4S SGN d  66      20.590  34.441  34.160  0.00  0.00    -0.572 OA
ATOM     19  N   SGN d  66      23.500  28.986  37.064  0.00  0.00    -0.210 NA
ATOM     20  O6  SGN d  66      20.400  32.087  32.920  0.00  0.00    -0.254 OA
ATOM     21  H   SGN d  66      21.706  32.049  35.150  0.00  0.00     0.091 H 
ATOM     22  H   SGN d  66      18.798  32.044  34.217  0.00  0.00     0.080 H 
ATOM     23  H   SGN d  66      18.922  30.671  33.128  0.00  0.00     0.080 H 
ATOM     24  H   SGN d  66      25.565  27.907  35.695  0.00  0.00     0.231 HD
ATOM     25  H   SGN d  66      20.437  27.439  35.578  0.00  0.00     0.212 HD
ATOM     26  H   SGN d  66      19.482  30.029  35.412  0.00  0.00     0.090 H 
ATOM     27  H   SGN d  66      25.584  27.524  38.072  0.00  0.00     0.231 HD
ATOM     28  H   SGN d  66      22.462  28.052  34.663  0.00  0.00     0.131 H 
ATOM     29  H   SGN d  66      22.369  26.602  35.970  0.00  0.00     0.231 HD
ATOM     30  H   SGN d  66      21.154  30.216  37.453  0.00  0.00     0.089 H 
ATOM     31  H   SGN d  66      23.260  32.066  36.878  0.00  0.00     0.210 HD
ATOM     32  H   SGN d  66      23.393  30.230  35.393  0.00  0.00     0.076 H 
ATOM     33  H   SGN d  66      24.346  29.533  37.222  0.00  0.00     0.140 HD
ATOM     34  O61 IDS d  65      20.569  31.174  41.094  0.00  0.00    -0.646 OA
ATOM     35  O3  IDS d  65      16.453  33.198  38.456  0.00  0.00    -0.390 OA
ATOM     36  C5  IDS d  65      20.014  32.272  39.045  0.00  0.00     0.152 C 
ATOM     37  C6  IDS d  65      20.962  32.012  40.246  0.00  0.00     0.206 C 
ATOM     38  O5  IDS d  65      20.601  33.332  38.229  0.00  0.00    -0.340 OA
ATOM     39  C1  IDS d  65      19.851  33.730  37.052  0.00  0.00     0.161 C 
ATOM     40  O1S IDS d  65      14.935  34.044  36.074  0.00  0.00    -0.572 OA
ATOM     41  C4  IDS d  65      18.534  32.600  39.451  0.00  0.00     0.103 C 
ATOM     42  O4  IDS d  65      18.616  32.614  40.879  0.00  0.00    -0.348 OA
ATOM     43  C2  IDS d  65      18.345  33.330  37.076  0.00  0.00     0.134 C 
ATOM     44  O62 IDS d  65      22.072  32.622  40.304  0.00  0.00    -0.646 OA
ATOM     45  C3  IDS d  65      17.805  33.531  38.456  0.00  0.00     0.094 C 
ATOM     46  O2S IDS d  65      16.190  32.031  35.832  0.00  0.00    -0.572 OA
ATOM     47  O3S IDS d  65      16.149  33.599  34.051  0.00  0.00    -0.572 OA
ATOM     48  O2  IDS d  65      17.593  34.180  36.224  0.00  0.00    -0.244 OA
ATOM     49  S   IDS d  65      16.138  33.441  35.502  0.00  0.00     0.252 S 
ATOM     50  H   IDS d  65      16.088  33.323  39.346  0.00  0.00     0.210 HD
ATOM     51  H   IDS d  65      19.931  31.365  38.485  0.00  0.00     0.104 H 
ATOM     52  H   IDS d  65      20.063  34.747  36.793  0.00  0.00     0.133 H 
ATOM     53  H   IDS d  65      17.692  31.959  39.299  0.00  0.00     0.092 H 
ATOM     54  H   IDS d  65      18.268  32.311  36.760  0.00  0.00     0.097 H 
ATOM     55  H   IDS d  65      17.948  34.551  38.748  0.00  0.00     0.091 H 
ATOM     56  O3S SGN d  62      21.658  38.445  47.247  0.00  0.00    -0.296 OA
ATOM     57  C1  SGN d  62      18.262  38.550  47.973  0.00  0.00     0.150 C 
ATOM     58  S2  SGN d  62      12.768  40.051  49.687  0.00  0.00     0.251 S 
ATOM     59  C5  SGN d  62      16.452  39.412  49.451  0.00  0.00     0.091 C 
ATOM     60  O5  SGN d  62      17.170  39.501  48.188  0.00  0.00    -0.349 OA
ATOM     61  O4S SGN d  62      12.328  41.394  49.506  0.00  0.00    -0.572 OA
ATOM     62  O6  SGN d  62      14.383  40.033  50.354  0.00  0.00    -0.254 OA
ATOM     63  O3  SGN d  62      19.352  38.427  51.542  0.00  0.00    -0.391 OA
ATOM     64  S1  SGN d  62      21.691  37.834  48.556  0.00  0.00     0.156 S 
ATOM     65  O6S SGN d  62      12.751  39.274  48.450  0.00  0.00    -0.572 OA
ATOM     66  O4  SGN d  62      16.688  39.500  51.837  0.00  0.00    -0.348 OA
ATOM     67  C6  SGN d  62      15.390  40.486  49.467  0.00  0.00     0.067 C 
ATOM     68  O5S SGN d  62      11.942  39.380  50.653  0.00  0.00    -0.572 OA
ATOM     69  O1S SGN d  62      22.444  36.598  48.556  0.00  0.00    -0.296 OA
ATOM     70  O2S SGN d  62      22.218  38.797  49.479  0.00  0.00    -0.296 OA
ATOM     71  C2  SGN d  62      19.179  38.578  49.187  0.00  0.00     0.081 C 
ATOM     72  C4  SGN d  62      17.433  39.582  50.624  0.00  0.00     0.095 C 
ATOM     73  N   SGN d  62      20.075  37.468  49.106  0.00  0.00    -0.210 NA
ATOM     74  C3  SGN d  62      18.412  38.403  50.501  0.00  0.00     0.083 C 
ATOM     75  H   SGN d  62      21.304  37.811  46.603  0.00  0.00     0.231 HD
ATOM     76  H   SGN d  62      18.754  38.857  47.074  0.00  0.00     0.131 H 
ATOM     77  H   SGN d  62      15.987  38.454  49.554  0.00  0.00     0.090 H 
ATOM     78  H   SGN d  62      19.959  37.677  51.446  0.00  0.00     0.210 HD
ATOM     79  H   SGN d  62      14.986  40.623  48.486  0.00  0.00     0.080 H 
ATOM     80  H   SGN d  62      15.792  41.427  49.781  0.00  0.00     0.080 H 
ATOM     81  H   SGN d  62      22.053  35.980  47.919  0.00  0.00     0.231 HD
ATOM     82  H   SGN d  62      21.683  39.605  49.444  0.00  0.00     0.231 HD
ATOM     83  H   SGN d  62      19.675  39.526  49.185  0.00  0.00     0.076 H 
ATOM     84  H   SGN d  62      17.956  40.516  50.615  0.00  0.00     0.091 H 
ATOM     85  H   SGN d  62      20.147  37.055  50.036  0.00  0.00     0.140 HD
ATOM     86  H   SGN d  62      17.865  37.484  50.538  0.00  0.00     0.089 H 
ATOM     87  O4  IDS d  63      17.830  37.197  47.781  0.00  0.00    -0.348 OA
ATOM     88  O62 IDS d  63      14.975  35.076  46.809  0.00  0.00    -0.646 OA
ATOM     89  C2  IDS d  63      19.822  34.915  47.090  0.00  0.00     0.134 C 
ATOM     90  O2S IDS d  63      21.089  33.192  49.342  0.00  0.00    -0.572 OA
ATOM     91  O61 IDS d  63      15.214  36.917  45.696  0.00  0.00    -0.646 OA
ATOM     92  C3  IDS d  63      19.644  36.227  46.314  0.00  0.00     0.094 C 
ATOM     93  C1  IDS d  63      18.817  33.850  46.572  0.00  0.00     0.161 C 
ATOM     94  O5  IDS d  63      17.477  34.344  46.828  0.00  0.00    -0.340 OA
ATOM     95  C4  IDS d  63      18.148  36.743  46.471  0.00  0.00     0.103 C 
ATOM     96  C6  IDS d  63      15.673  35.902  46.218  0.00  0.00     0.206 C 
ATOM     97  S   IDS d  63      19.785  33.803  49.566  0.00  0.00     0.252 S 
ATOM     98  O3  IDS d  63      19.909  35.893  44.970  0.00  0.00    -0.390 OA
ATOM     99  C5  IDS d  63      17.164  35.602  46.097  0.00  0.00     0.152 C 
ATOM    100  O2  IDS d  63      19.682  35.180  48.461  0.00  0.00    -0.244 OA
ATOM    101  O1S IDS d  63      19.654  34.361  50.899  0.00  0.00    -0.572 OA
ATOM    102  O3S IDS d  63      18.803  32.781  49.343  0.00  0.00    -0.572 OA
ATOM    103  H   IDS d  63      20.800  34.509  46.934  0.00  0.00     0.097 H 
ATOM    104  H   IDS d  63      20.289  37.005  46.668  0.00  0.00     0.091 H 
ATOM    105  H   IDS d  63      18.890  32.897  47.053  0.00  0.00     0.133 H 
ATOM    106  H   IDS d  63      18.055  37.581  45.813  0.00  0.00     0.092 H 
ATOM    107  H   IDS d  63      19.306  35.188  44.687  0.00  0.00     0.210 HD
ATOM    108  H   IDS d  63      17.337  35.491  45.047  0.00  0.00     0.104 H 
ATOM    109  O4  SGN d  64      19.117  33.689  45.151  0.00  0.00    -0.348 OA
ATOM    110  O6  SGN d  64      19.996  29.717  44.333  0.00  0.00    -0.254 OA
ATOM    111  C3  SGN d  64      17.558  33.596  43.268  0.00  0.00     0.083 C 
ATOM    112  S2  SGN d  64      18.494  29.034  45.010  0.00  0.00     0.251 S 
ATOM    113  C5  SGN d  64      19.390  31.924  43.538  0.00  0.00     0.091 C 
ATOM    114  O1S SGN d  64      13.471  32.737  41.530  0.00  0.00    -0.296 OA
ATOM    115  C2  SGN d  64      16.812  32.633  42.398  0.00  0.00     0.081 C 
ATOM    116  O4S SGN d  64      18.502  29.275  46.429  0.00  0.00    -0.572 OA
ATOM    117  O3S SGN d  64      14.239  34.340  43.100  0.00  0.00    -0.296 OA
ATOM    118  S1  SGN d  64      14.386  33.847  41.742  0.00  0.00     0.156 S 
ATOM    119  O6S SGN d  64      17.322  29.642  44.415  0.00  0.00    -0.572 OA
ATOM    120  O5S SGN d  64      18.476  27.620  44.744  0.00  0.00    -0.572 OA
ATOM    121  O3  SGN d  64      16.603  34.382  43.884  0.00  0.00    -0.391 OA
ATOM    122  C1  SGN d  64      17.807  31.755  41.684  0.00  0.00     0.150 C 
ATOM    123  O2S SGN d  64      14.125  34.915  40.817  0.00  0.00    -0.296 OA
ATOM    124  C4  SGN d  64      18.378  32.791  44.309  0.00  0.00     0.095 C 
ATOM    125  O5  SGN d  64      18.609  31.059  42.662  0.00  0.00    -0.349 OA
ATOM    126  C6  SGN d  64      20.222  31.109  44.506  0.00  0.00     0.067 C 
ATOM    127  N   SGN d  64      16.058  33.365  41.410  0.00  0.00    -0.210 NA
ATOM    128  H   SGN d  64      18.240  34.209  42.715  0.00  0.00     0.089 H 
ATOM    129  H   SGN d  64      20.070  32.524  42.969  0.00  0.00     0.090 H 
ATOM    130  H   SGN d  64      13.667  32.030  42.165  0.00  0.00     0.231 HD
ATOM    131  H   SGN d  64      16.151  32.043  42.998  0.00  0.00     0.076 H 
ATOM    132  H   SGN d  64      14.414  33.620  43.727  0.00  0.00     0.231 HD
ATOM    133  H   SGN d  64      15.991  33.817  44.381  0.00  0.00     0.210 HD
ATOM    134  H   SGN d  64      17.326  31.023  41.072  0.00  0.00     0.131 H 
ATOM    135  H   SGN d  64      13.218  35.234  40.940  0.00  0.00     0.231 HD
ATOM    136  H   SGN d  64      17.720  32.196  44.909  0.00  0.00     0.091 H 
ATOM    137  H   SGN d  64      21.257  31.318  44.337  0.00  0.00     0.080 H 
ATOM    138  H   SGN d  64      19.940  31.377  45.503  0.00  0.00     0.080 H 
ATOM    139  H   SGN d  64      16.035  32.786  40.570  0.00  0.00     0.140 HD
ATOM    140  C1  IDS d  61      16.942  40.581  52.758  0.00  0.00     0.167 C 
ATOM    141  O5  IDS d  61      18.316  40.503  53.218  0.00  0.00    -0.311 OA
ATOM    142  C5  IDS d  61      18.681  39.552  54.162  0.00  0.00     0.147 C 
ATOM    143  C6  IDS d  61      20.215  39.447  54.515  0.00  0.00     0.233 C 
ATOM    144  C2  IDS d  61      16.023  40.398  53.961  0.00  0.00     0.135 C 
ATOM    145  O1S IDS d  61      18.352  42.765  54.164  0.00  0.00    -0.572 OA
ATOM    146  O3S IDS d  61      16.238  43.579  53.340  0.00  0.00    -0.572 OA
ATOM    147  O3  IDS d  61      15.596  38.120  54.108  0.00  0.00    -0.389 OA
ATOM    148  C4  IDS d  61      17.760  38.819  54.848  0.00  0.00    -0.034 C 
ATOM    149  C3  IDS d  61      16.303  39.120  54.752  0.00  0.00     0.086 C 
ATOM    150  O61 IDS d  61      20.592  38.659  55.384  0.00  0.00    -0.642 OA
ATOM    151  O62 IDS d  61      21.044  40.191  53.935  0.00  0.00    -0.642 OA
ATOM    152  O2S IDS d  61      16.974  43.894  55.595  0.00  0.00    -0.572 OA
ATOM    153  S   IDS d  61      16.969  43.024  54.469  0.00  0.00     0.252 S 
ATOM    154  O2  IDS d  61      16.196  41.475  54.898  0.00  0.00    -0.244 OA
ATOM    155  H   IDS d  61      16.770  41.522  52.280  0.00  0.00     0.134 H 
ATOM    156  H   IDS d  61      15.036  40.362  53.548  0.00  0.00     0.097 H 
ATOM    157  H   IDS d  61      14.657  38.360  54.071  0.00  0.00     0.210 HD
ATOM    158  H   IDS d  61      18.077  38.039  55.445  0.00  0.00     0.085 H 
ATOM    159  H   IDS d  61      15.988  39.219  55.770  0.00  0.00     0.093 H 
ENDROOT
TORSDOF 50
ENDMDL
MODEL 34
REMARK VINA RESULT:      -5.5      2.276      3.078
REMARK  0 active torsions:
REMARK  status: ('A' for Active; 'I' for Inactive)
REMARK       I    between atoms: O3S_3  and  S1_55 
REMARK       I    between atoms: O3_4  and  C3_87 
REMARK       I    between atoms: O4_5  and  C1_15 
REMARK       I    between atoms: O4_5  and  C4_57 
REMARK       I    between atoms: O4_7  and  C1_36 
REMARK       I    between atoms: O4_7  and  C4_89 
REMARK       I    between atoms: C4_8  and  O4_18 
REMARK       I    between atoms: C2_9  and  O2_84 
REMARK       I    between atoms: C6_10  and  C5_32 
REMARK       I    between atoms: C6_10  and  O6_102 
REMARK       I    between atoms: O6_11  and  C6_93 
REMARK       I    between atoms: O6_11  and  S2_25 
REMARK       I    between atoms: C1_13  and  O4_74 
REMARK       I    between atoms: C3_14  and  O3_71 
REMARK       I    between atoms: O4_18  and  C1_54 
REMARK       I    between atoms: S2_19  and  O6_39 
REMARK       I    between atoms: O2S_21  and  S1_45 
REMARK       I    between atoms: C5_22  and  C6_23 
REMARK       I    between atoms: C5_24  and  C6_77 
REMARK       I    between atoms: O1_27  and  C1_48 
REMARK       I    between atoms: C5_28  and  C6_30 
REMARK       I    between atoms: C5_29  and  C6_93 
REMARK       I    between atoms: O1S_31  and  S1_44 
REMARK       I    between atoms: C3_33  and  O3_69 
REMARK       I    between atoms: C2_37  and  N_99 
REMARK       I    between atoms: S2_38  and  O6_102 
REMARK       I    between atoms: O6_39  and  C6_77 
REMARK       I    between atoms: C2_40  and  O2_103 
REMARK       I    between atoms: O3S_42  and  S1_44 
REMARK       I    between atoms: S1_44  and  N_99 
REMARK       I    between atoms: S1_44  and  O2S_81 
REMARK       I    between atoms: S1_45  and  N_94 
REMARK       I    between atoms: S1_45  and  O1S_46 
REMARK       I    between atoms: S1_45  and  O3S_58 
REMARK       I    between atoms: O3_52  and  C3_105 
REMARK       I    between atoms: S1_55  and  N_100 
REMARK       I    between atoms: S1_55  and  O1S_79 
REMARK       I    between atoms: S1_55  and  O2S_83 
REMARK       I    between atoms: O3_56  and  C3_64 
REMARK       I    between atoms: C4_60  and  O4_61 
REMARK       I    between atoms: O4_61  and  C1_73 
REMARK       I    between atoms: C6_63  and  C5_80 
REMARK       I    between atoms: C3_65  and  O3_82 
REMARK       I    between atoms: S_67  and  O2_84 
REMARK       I    between atoms: C2_68  and  O2_98 
REMARK       I    between atoms: O4_74  and  C4_97 
REMARK       I    between atoms: C2_85  and  N_94 
REMARK       I    between atoms: C2_95  and  N_100 
REMARK       I    between atoms: O2_98  and  S_104 
REMARK       I    between atoms: S_101  and  O2_103 
ROOT
ATOM      1  O6S SGN d  66      26.423  39.486  54.695  0.00  0.00    -0.572 OA
ATOM      2  C4  SGN d  66      22.266  37.346  53.677  0.00  0.00     0.095 C 
ATOM      3  C6  SGN d  66      23.963  36.447  55.316  0.00  0.00     0.067 C 
ATOM      4  O4  SGN d  66      22.944  36.596  52.562  0.00  0.00    -0.348 OA
ATOM      5  O5S SGN d  66      26.969  37.183  54.458  0.00  0.00    -0.572 OA
ATOM      6  O2S SGN d  66      17.884  39.697  56.461  0.00  0.00    -0.296 OA
ATOM      7  O5  SGN d  66      21.775  37.329  56.083  0.00  0.00    -0.350 OA
ATOM      8  O1  SGN d  66      19.657  36.257  55.687  0.00  0.00    -0.369 OA
ATOM      9  C5  SGN d  66      22.462  36.603  55.007  0.00  0.00     0.091 C 
ATOM     10  S2  SGN d  66      25.913  38.182  54.318  0.00  0.00     0.251 S 
ATOM     11  S1  SGN d  66      17.489  38.639  55.552  0.00  0.00     0.156 S 
ATOM     12  O1S SGN d  66      16.217  38.936  54.909  0.00  0.00    -0.296 OA
ATOM     13  C1  SGN d  66      20.336  37.515  55.868  0.00  0.00     0.147 C 
ATOM     14  O3S SGN d  66      17.337  37.375  56.255  0.00  0.00    -0.296 OA
ATOM     15  C3  SGN d  66      20.774  37.585  53.390  0.00  0.00     0.083 C 
ATOM     16  O3  SGN d  66      20.643  38.417  52.238  0.00  0.00    -0.391 OA
ATOM     17  C2  SGN d  66      20.156  38.333  54.573  0.00  0.00     0.081 C 
ATOM     18  O4S SGN d  66      25.425  38.240  52.947  0.00  0.00    -0.572 OA
ATOM     19  N   SGN d  66      18.734  38.558  54.278  0.00  0.00    -0.210 NA
ATOM     20  O6  SGN d  66      24.598  37.742  55.434  0.00  0.00    -0.254 OA
ATOM     21  H   SGN d  66      22.724  38.311  53.748  0.00  0.00     0.091 H 
ATOM     22  H   SGN d  66      24.429  35.898  54.524  0.00  0.00     0.080 H 
ATOM     23  H   SGN d  66      24.071  35.925  56.244  0.00  0.00     0.080 H 
ATOM     24  H   SGN d  66      17.980  40.527  55.968  0.00  0.00     0.231 HD
ATOM     25  H   SGN d  66      19.754  35.719  56.489  0.00  0.00     0.212 HD
ATOM     26  H   SGN d  66      22.038  35.623  54.933  0.00  0.00     0.090 H 
ATOM     27  H   SGN d  66      16.286  39.776  54.430  0.00  0.00     0.231 HD
ATOM     28  H   SGN d  66      19.925  38.006  56.725  0.00  0.00     0.131 H 
ATOM     29  H   SGN d  66      18.170  37.147  56.697  0.00  0.00     0.231 HD
ATOM     30  H   SGN d  66      20.289  36.645  53.233  0.00  0.00     0.089 H 
ATOM     31  H   SGN d  66      21.089  39.263  52.398  0.00  0.00     0.210 HD
ATOM     32  H   SGN d  66      20.641  39.276  54.720  0.00  0.00     0.076 H 
ATOM     33  H   SGN d  66      18.685  39.446  53.778  0.00  0.00     0.140 HD
ATOM     34  O61 IDS d  65      19.016  35.370  49.875  0.00  0.00    -0.646 OA
ATOM     35  O3  IDS d  65      23.633  32.898  50.631  0.00  0.00    -0.390 OA
ATOM     36  C5  IDS d  65      21.225  35.740  50.709  0.00  0.00     0.152 C 
ATOM     37  C6  IDS d  65      19.952  36.204  49.953  0.00  0.00     0.206 C 
ATOM     38  O5  IDS d  65      22.219  36.807  50.613  0.00  0.00    -0.340 OA
ATOM     39  C1  IDS d  65      23.496  36.557  51.255  0.00  0.00     0.161 C 
ATOM     40  O1S IDS d  65      26.246  32.405  51.905  0.00  0.00    -0.572 OA
ATOM     41  C4  IDS d  65      21.798  34.363  50.224  0.00  0.00     0.103 C 
ATOM     42  O4  IDS d  65      20.923  34.046  49.138  0.00  0.00    -0.348 OA
ATOM     43  C2  IDS d  65      23.799  35.055  51.537  0.00  0.00     0.134 C 
ATOM     44  O62 IDS d  65      19.903  37.380  49.482  0.00  0.00    -0.646 OA
ATOM     45  C3  IDS d  65      23.330  34.233  50.379  0.00  0.00     0.094 C 
ATOM     46  O2S IDS d  65      24.488  33.053  53.380  0.00  0.00    -0.572 OA
ATOM     47  O3S IDS d  65      26.662  33.954  53.691  0.00  0.00    -0.572 OA
ATOM     48  O2  IDS d  65      25.199  34.842  51.638  0.00  0.00    -0.244 OA
ATOM     49  S   IDS d  65      25.690  33.497  52.702  0.00  0.00     0.252 S 
ATOM     50  H   IDS d  65      23.334  32.352  49.887  0.00  0.00     0.210 HD
ATOM     51  H   IDS d  65      20.959  35.562  51.730  0.00  0.00     0.104 H 
ATOM     52  H   IDS d  65      24.277  37.112  50.777  0.00  0.00     0.133 H 
ATOM     53  H   IDS d  65      21.775  33.450  50.781  0.00  0.00     0.092 H 
ATOM     54  H   IDS d  65      23.307  34.783  52.447  0.00  0.00     0.097 H 
ATOM     55  H   IDS d  65      23.811  34.573  49.485  0.00  0.00     0.091 H 
ATOM     56  O3S SGN d  62      19.987  36.726  40.435  0.00  0.00    -0.296 OA
ATOM     57  C1  SGN d  62      20.972  33.437  39.901  0.00  0.00     0.150 C 
ATOM     58  S2  SGN d  62      23.172  28.345  37.757  0.00  0.00     0.251 S 
ATOM     59  C5  SGN d  62      21.408  31.610  38.265  0.00  0.00     0.091 C 
ATOM     60  O5  SGN d  62      21.940  32.645  39.140  0.00  0.00    -0.349 OA
ATOM     61  O4S SGN d  62      24.392  28.372  37.021  0.00  0.00    -0.572 OA
ATOM     62  O6  SGN d  62      22.122  29.637  37.227  0.00  0.00    -0.254 OA
ATOM     63  O3  SGN d  62      18.325  33.413  37.269  0.00  0.00    -0.391 OA
ATOM     64  S1  SGN d  62      18.767  36.220  39.850  0.00  0.00     0.156 S 
ATOM     65  O6S SGN d  62      23.374  28.452  39.200  0.00  0.00    -0.572 OA
ATOM     66  O4  SGN d  62      19.952  31.190  36.405  0.00  0.00    -0.348 OA
ATOM     67  C6  SGN d  62      22.568  30.936  37.573  0.00  0.00     0.067 C 
ATOM     68  O5S SGN d  62      22.455  27.128  37.491  0.00  0.00    -0.572 OA
ATOM     69  O1S SGN d  62      17.606  36.561  40.645  0.00  0.00    -0.296 OA
ATOM     70  O2S SGN d  62      18.679  36.721  38.509  0.00  0.00    -0.296 OA
ATOM     71  C2  SGN d  62      19.904  33.951  38.946  0.00  0.00     0.081 C 
ATOM     72  C4  SGN d  62      20.438  32.234  37.247  0.00  0.00     0.095 C 
ATOM     73  N   SGN d  62      18.823  34.481  39.716  0.00  0.00    -0.210 NA
ATOM     74  C3  SGN d  62      19.301  32.832  38.090  0.00  0.00     0.083 C 
ATOM     75  H   SGN d  62      20.069  36.400  41.345  0.00  0.00     0.231 HD
ATOM     76  H   SGN d  62      21.527  34.226  40.365  0.00  0.00     0.131 H 
ATOM     77  H   SGN d  62      20.862  30.884  38.829  0.00  0.00     0.090 H 
ATOM     78  H   SGN d  62      17.618  33.784  37.819  0.00  0.00     0.210 HD
ATOM     79  H   SGN d  62      23.410  30.876  38.232  0.00  0.00     0.080 H 
ATOM     80  H   SGN d  62      22.879  31.485  36.708  0.00  0.00     0.080 H 
ATOM     81  H   SGN d  62      17.709  36.203  41.540  0.00  0.00     0.231 HD
ATOM     82  H   SGN d  62      19.476  36.469  38.016  0.00  0.00     0.231 HD
ATOM     83  H   SGN d  62      20.370  34.676  38.313  0.00  0.00     0.076 H 
ATOM     84  H   SGN d  62      20.888  32.981  36.626  0.00  0.00     0.091 H 
ATOM     85  H   SGN d  62      17.952  34.172  39.285  0.00  0.00     0.140 HD
ATOM     86  H   SGN d  62      18.854  32.060  38.680  0.00  0.00     0.089 H 
ATOM     87  O4  IDS d  63      20.314  32.710  40.946  0.00  0.00    -0.348 OA
ATOM     88  O62 IDS d  63      20.544  29.757  43.142  0.00  0.00    -0.646 OA
ATOM     89  C2  IDS d  63      18.344  34.083  42.918  0.00  0.00     0.134 C 
ATOM     90  O2S IDS d  63      15.297  34.133  42.325  0.00  0.00    -0.572 OA
ATOM     91  O61 IDS d  63      22.398  30.807  42.764  0.00  0.00    -0.646 OA
ATOM     92  C3  IDS d  63      19.793  34.507  42.644  0.00  0.00     0.094 C 
ATOM     93  C1  IDS d  63      18.308  33.002  44.033  0.00  0.00     0.161 C 
ATOM     94  O5  IDS d  63      19.031  31.842  43.548  0.00  0.00    -0.340 OA
ATOM     95  C4  IDS d  63      20.652  33.237  42.223  0.00  0.00     0.103 C 
ATOM     96  C6  IDS d  63      21.197  30.796  43.027  0.00  0.00     0.206 C 
ATOM     97  S   IDS d  63      16.106  33.047  41.787  0.00  0.00     0.252 S 
ATOM     98  O3  IDS d  63      20.258  35.028  43.870  0.00  0.00    -0.390 OA
ATOM     99  C5  IDS d  63      20.469  32.114  43.279  0.00  0.00     0.152 C 
ATOM    100  O2  IDS d  63      17.767  33.650  41.715  0.00  0.00    -0.244 OA
ATOM    101  O1S IDS d  63      15.751  32.716  40.419  0.00  0.00    -0.572 OA
ATOM    102  O3S IDS d  63      15.914  31.918  42.650  0.00  0.00    -0.572 OA
ATOM    103  H   IDS d  63      17.767  34.909  43.279  0.00  0.00     0.097 H 
ATOM    104  H   IDS d  63      19.870  35.221  41.851  0.00  0.00     0.091 H 
ATOM    105  H   IDS d  63      17.327  32.666  44.296  0.00  0.00     0.133 H 
ATOM    106  H   IDS d  63      21.667  33.572  42.170  0.00  0.00     0.092 H 
ATOM    107  H   IDS d  63      20.173  34.353  44.561  0.00  0.00     0.210 HD
ATOM    108  H   IDS d  63      20.950  32.532  44.138  0.00  0.00     0.104 H 
ATOM    109  O4  SGN d  64      18.925  33.626  45.202  0.00  0.00    -0.348 OA
ATOM    110  O6  SGN d  64      16.294  33.533  48.409  0.00  0.00    -0.254 OA
ATOM    111  C3  SGN d  64      20.601  32.691  46.718  0.00  0.00     0.083 C 
ATOM    112  S2  SGN d  64      16.007  31.773  48.385  0.00  0.00     0.251 S 
ATOM    113  C5  SGN d  64      18.548  33.823  47.570  0.00  0.00     0.091 C 
ATOM    114  O1S SGN d  64      22.657  29.177  48.692  0.00  0.00    -0.296 OA
ATOM    115  C2  SGN d  64      20.744  31.974  48.025  0.00  0.00     0.081 C 
ATOM    116  O4S SGN d  64      15.325  31.455  47.157  0.00  0.00    -0.572 OA
ATOM    117  O3S SGN d  64      22.535  29.901  46.436  0.00  0.00    -0.296 OA
ATOM    118  S1  SGN d  64      22.943  30.273  47.779  0.00  0.00     0.156 S 
ATOM    119  O6S SGN d  64      17.251  31.035  48.461  0.00  0.00    -0.572 OA
ATOM    120  O5S SGN d  64      15.186  31.429  49.515  0.00  0.00    -0.572 OA
ATOM    121  O3  SGN d  64      21.161  31.866  45.761  0.00  0.00    -0.391 OA
ATOM    122  C1  SGN d  64      20.163  32.836  49.116  0.00  0.00     0.150 C 
ATOM    123  O2S SGN d  64      24.344  30.593  47.780  0.00  0.00    -0.296 OA
ATOM    124  C4  SGN d  64      19.093  32.927  46.444  0.00  0.00     0.095 C 
ATOM    125  O5  SGN d  64      18.776  33.104  48.818  0.00  0.00    -0.349 OA
ATOM    126  C6  SGN d  64      17.072  34.087  47.358  0.00  0.00     0.067 C 
ATOM    127  N   SGN d  64      22.143  31.763  48.307  0.00  0.00    -0.210 NA
ATOM    128  H   SGN d  64      21.088  33.644  46.716  0.00  0.00     0.089 H 
ATOM    129  H   SGN d  64      19.037  34.775  47.588  0.00  0.00     0.090 H 
ATOM    130  H   SGN d  64      21.708  28.980  48.673  0.00  0.00     0.231 HD
ATOM    131  H   SGN d  64      20.236  31.034  47.978  0.00  0.00     0.076 H 
ATOM    132  H   SGN d  64      21.589  29.685  46.433  0.00  0.00     0.231 HD
ATOM    133  H   SGN d  64      20.712  31.006  45.773  0.00  0.00     0.210 HD
ATOM    134  H   SGN d  64      20.208  32.356  50.071  0.00  0.00     0.131 H 
ATOM    135  H   SGN d  64      24.852  29.817  47.499  0.00  0.00     0.231 HD
ATOM    136  H   SGN d  64      18.581  31.988  46.400  0.00  0.00     0.091 H 
ATOM    137  H   SGN d  64      16.909  35.144  47.322  0.00  0.00     0.080 H 
ATOM    138  H   SGN d  64      16.775  33.628  46.438  0.00  0.00     0.080 H 
ATOM    139  H   SGN d  64      22.249  31.811  49.320  0.00  0.00     0.140 HD
ATOM    140  C1  IDS d  61      20.056  31.475  34.995  0.00  0.00     0.167 C 
ATOM    141  O5  IDS d  61      19.183  32.587  34.666  0.00  0.00    -0.311 OA
ATOM    142  C5  IDS d  61      17.812  32.390  34.572  0.00  0.00     0.147 C 
ATOM    143  C6  IDS d  61      16.920  33.671  34.338  0.00  0.00     0.233 C 
ATOM    144  C2  IDS d  61      19.575  30.246  34.231  0.00  0.00     0.135 C 
ATOM    145  O1S IDS d  61      20.183  32.999  32.465  0.00  0.00    -0.572 OA
ATOM    146  O3S IDS d  61      22.080  31.518  32.602  0.00  0.00    -0.572 OA
ATOM    147  O3  IDS d  61      18.066  29.167  35.629  0.00  0.00    -0.389 OA
ATOM    148  C4  IDS d  61      17.256  31.146  34.560  0.00  0.00    -0.034 C 
ATOM    149  C3  IDS d  61      18.100  29.921  34.469  0.00  0.00     0.086 C 
ATOM    150  O61 IDS d  61      15.703  33.552  34.193  0.00  0.00    -0.642 OA
ATOM    151  O62 IDS d  61      17.457  34.803  34.265  0.00  0.00    -0.642 OA
ATOM    152  O2S IDS d  61      20.663  31.657  30.679  0.00  0.00    -0.572 OA
ATOM    153  S   IDS d  61      20.729  31.718  32.099  0.00  0.00     0.252 S 
ATOM    154  O2  IDS d  61      19.699  30.450  32.813  0.00  0.00    -0.244 OA
ATOM    155  H   IDS d  61      21.067  31.717  34.740  0.00  0.00     0.134 H 
ATOM    156  H   IDS d  61      20.187  29.444  34.590  0.00  0.00     0.097 H 
ATOM    157  H   IDS d  61      18.628  28.383  35.522  0.00  0.00     0.210 HD
ATOM    158  H   IDS d  61      16.229  31.050  34.615  0.00  0.00     0.085 H 
ATOM    159  H   IDS d  61      17.686  29.378  33.646  0.00  0.00     0.093 H 
ENDROOT
TORSDOF 50
ENDMDL
MODEL 35
REMARK VINA RESULT:      -5.5      3.609     16.260
REMARK  0 active torsions:
REMARK  status: ('A' for Active; 'I' for Inactive)
REMARK       I    between atoms: O3S_3  and  S1_55 
REMARK       I    between atoms: O3_4  and  C3_87 
REMARK       I    between atoms: O4_5  and  C1_15 
REMARK       I    between atoms: O4_5  and  C4_57 
REMARK       I    between atoms: O4_7  and  C1_36 
REMARK       I    between atoms: O4_7  and  C4_89 
REMARK       I    between atoms: C4_8  and  O4_18 
REMARK       I    between atoms: C2_9  and  O2_84 
REMARK       I    between atoms: C6_10  and  C5_32 
REMARK       I    between atoms: C6_10  and  O6_102 
REMARK       I    between atoms: O6_11  and  C6_93 
REMARK       I    between atoms: O6_11  and  S2_25 
REMARK       I    between atoms: C1_13  and  O4_74 
REMARK       I    between atoms: C3_14  and  O3_71 
REMARK       I    between atoms: O4_18  and  C1_54 
REMARK       I    between atoms: S2_19  and  O6_39 
REMARK       I    between atoms: O2S_21  and  S1_45 
REMARK       I    between atoms: C5_22  and  C6_23 
REMARK       I    between atoms: C5_24  and  C6_77 
REMARK       I    between atoms: O1_27  and  C1_48 
REMARK       I    between atoms: C5_28  and  C6_30 
REMARK       I    between atoms: C5_29  and  C6_93 
REMARK       I    between atoms: O1S_31  and  S1_44 
REMARK       I    between atoms: C3_33  and  O3_69 
REMARK       I    between atoms: C2_37  and  N_99 
REMARK       I    between atoms: S2_38  and  O6_102 
REMARK       I    between atoms: O6_39  and  C6_77 
REMARK       I    between atoms: C2_40  and  O2_103 
REMARK       I    between atoms: O3S_42  and  S1_44 
REMARK       I    between atoms: S1_44  and  N_99 
REMARK       I    between atoms: S1_44  and  O2S_81 
REMARK       I    between atoms: S1_45  and  N_94 
REMARK       I    between atoms: S1_45  and  O1S_46 
REMARK       I    between atoms: S1_45  and  O3S_58 
REMARK       I    between atoms: O3_52  and  C3_105 
REMARK       I    between atoms: S1_55  and  N_100 
REMARK       I    between atoms: S1_55  and  O1S_79 
REMARK       I    between atoms: S1_55  and  O2S_83 
REMARK       I    between atoms: O3_56  and  C3_64 
REMARK       I    between atoms: C4_60  and  O4_61 
REMARK       I    between atoms: O4_61  and  C1_73 
REMARK       I    between atoms: C6_63  and  C5_80 
REMARK       I    between atoms: C3_65  and  O3_82 
REMARK       I    between atoms: S_67  and  O2_84 
REMARK       I    between atoms: C2_68  and  O2_98 
REMARK       I    between atoms: O4_74  and  C4_97 
REMARK       I    between atoms: C2_85  and  N_94 
REMARK       I    between atoms: C2_95  and  N_100 
REMARK       I    between atoms: O2_98  and  S_104 
REMARK       I    between atoms: S_101  and  O2_103 
ROOT
ATOM      1  O6S SGN d  66      17.589  34.589  32.563  0.00  0.00    -0.572 OA
ATOM      2  C4  SGN d  66      19.840  31.612  35.557  0.00  0.00     0.095 C 
ATOM      3  C6  SGN d  66      17.565  31.168  34.555  0.00  0.00     0.067 C 
ATOM      4  O4  SGN d  66      19.192  32.317  36.718  0.00  0.00    -0.348 OA
ATOM      5  O5S SGN d  66      15.908  33.879  34.089  0.00  0.00    -0.572 OA
ATOM      6  O2S SGN d  66      23.804  28.481  32.920  0.00  0.00    -0.296 OA
ATOM      7  O5  SGN d  66      19.548  29.836  33.886  0.00  0.00    -0.350 OA
ATOM      8  O1  SGN d  66      20.671  28.253  35.309  0.00  0.00    -0.369 OA
ATOM      9  C5  SGN d  66      18.896  30.534  35.001  0.00  0.00     0.091 C 
ATOM     10  S2  SGN d  66      17.335  33.843  33.779  0.00  0.00     0.251 S 
ATOM     11  S1  SGN d  66      23.750  28.256  34.351  0.00  0.00     0.156 S 
ATOM     12  O1S SGN d  66      25.077  28.037  34.908  0.00  0.00    -0.296 OA
ATOM     13  C1  SGN d  66      20.822  29.197  34.231  0.00  0.00     0.147 C 
ATOM     14  O3S SGN d  66      22.946  27.084  34.666  0.00  0.00    -0.296 OA
ATOM     15  C3  SGN d  66      21.206  31.013  35.932  0.00  0.00     0.083 C 
ATOM     16  O3  SGN d  66      22.102  32.067  36.285  0.00  0.00    -0.391 OA
ATOM     17  C2  SGN d  66      21.788  30.301  34.709  0.00  0.00     0.081 C 
ATOM     18  O4S SGN d  66      18.120  34.418  34.863  0.00  0.00    -0.572 OA
ATOM     19  N   SGN d  66      23.094  29.742  35.085  0.00  0.00    -0.210 NA
ATOM     20  O6  SGN d  66      17.788  32.143  33.509  0.00  0.00    -0.254 OA
ATOM     21  H   SGN d  66      20.023  32.339  34.793  0.00  0.00     0.091 H 
ATOM     22  H   SGN d  66      17.108  31.651  35.394  0.00  0.00     0.080 H 
ATOM     23  H   SGN d  66      16.927  30.397  34.176  0.00  0.00     0.080 H 
ATOM     24  H   SGN d  66      24.344  29.266  32.737  0.00  0.00     0.231 HD
ATOM     25  H   SGN d  66      20.068  27.545  35.037  0.00  0.00     0.212 HD
ATOM     26  H   SGN d  66      18.679  29.822  35.770  0.00  0.00     0.090 H 
ATOM     27  H   SGN d  66      25.639  28.803  34.713  0.00  0.00     0.231 HD
ATOM     28  H   SGN d  66      21.186  28.678  33.370  0.00  0.00     0.131 H 
ATOM     29  H   SGN d  66      22.052  27.198  34.308  0.00  0.00     0.231 HD
ATOM     30  H   SGN d  66      21.082  30.334  36.750  0.00  0.00     0.089 H 
ATOM     31  H   SGN d  66      22.201  32.671  35.533  0.00  0.00     0.210 HD
ATOM     32  H   SGN d  66      21.916  30.988  33.897  0.00  0.00     0.076 H 
ATOM     33  H   SGN d  66      23.779  30.475  34.900  0.00  0.00     0.140 HD
ATOM     34  O61 IDS d  65      22.251  30.968  40.321  0.00  0.00    -0.646 OA
ATOM     35  O3  IDS d  65      17.063  32.013  40.360  0.00  0.00    -0.390 OA
ATOM     36  C5  IDS d  65      20.533  31.977  39.000  0.00  0.00     0.152 C 
ATOM     37  C6  IDS d  65      21.988  31.912  39.534  0.00  0.00     0.206 C 
ATOM     38  O5  IDS d  65      20.407  33.182  38.183  0.00  0.00    -0.340 OA
ATOM     39  C1  IDS d  65      19.103  33.429  37.596  0.00  0.00     0.161 C 
ATOM     40  O1S IDS d  65      14.417  32.552  39.177  0.00  0.00    -0.572 OA
ATOM     41  C4  IDS d  65      19.432  31.911  40.116  0.00  0.00     0.103 C 
ATOM     42  O4  IDS d  65      20.222  31.886  41.308  0.00  0.00    -0.348 OA
ATOM     43  C2  IDS d  65      17.928  32.667  38.279  0.00  0.00     0.134 C 
ATOM     44  O62 IDS d  65      22.832  32.775  39.146  0.00  0.00    -0.646 OA
ATOM     45  C3  IDS d  65      18.135  32.671  39.760  0.00  0.00     0.094 C 
ATOM     46  O2S IDS d  65      15.740  30.925  38.041  0.00  0.00    -0.572 OA
ATOM     47  O3S IDS d  65      14.497  32.505  36.778  0.00  0.00    -0.572 OA
ATOM     48  O2  IDS d  65      16.699  33.337  38.045  0.00  0.00    -0.244 OA
ATOM     49  S   IDS d  65      15.255  32.291  38.008  0.00  0.00     0.252 S 
ATOM     50  H   IDS d  65      17.184  32.008  41.322  0.00  0.00     0.210 HD
ATOM     51  H   IDS d  65      20.355  31.101  38.413  0.00  0.00     0.104 H 
ATOM     52  H   IDS d  65      18.952  34.476  37.433  0.00  0.00     0.133 H 
ATOM     53  H   IDS d  65      18.772  31.087  40.289  0.00  0.00     0.092 H 
ATOM     54  H   IDS d  65      17.901  31.674  37.881  0.00  0.00     0.097 H 
ATOM     55  H   IDS d  65      18.205  33.682  40.105  0.00  0.00     0.091 H 
ATOM     56  O3S SGN d  62      24.874  38.025  46.255  0.00  0.00    -0.296 OA
ATOM     57  C1  SGN d  62      22.369  37.255  48.537  0.00  0.00     0.150 C 
ATOM     58  S2  SGN d  62      18.334  37.275  52.905  0.00  0.00     0.251 S 
ATOM     59  C5  SGN d  62      21.432  37.580  50.822  0.00  0.00     0.091 C 
ATOM     60  O5  SGN d  62      21.377  37.896  49.401  0.00  0.00    -0.349 OA
ATOM     61  O4S SGN d  62      17.611  38.473  53.176  0.00  0.00    -0.572 OA
ATOM     62  O6  SGN d  62      20.031  37.631  52.697  0.00  0.00    -0.254 OA
ATOM     63  O3  SGN d  62      25.118  37.261  51.064  0.00  0.00    -0.391 OA
ATOM     64  S1  SGN d  62      25.684  37.389  47.269  0.00  0.00     0.156 S 
ATOM     65  O6S SGN d  62      17.843  36.569  51.724  0.00  0.00    -0.572 OA
ATOM     66  O4  SGN d  62      22.822  37.626  52.776  0.00  0.00    -0.348 OA
ATOM     67  C6  SGN d  62      20.340  38.355  51.519  0.00  0.00     0.067 C 
ATOM     68  O5S SGN d  62      18.259  36.381  54.028  0.00  0.00    -0.572 OA
ATOM     69  O1S SGN d  62      26.557  36.380  46.707  0.00  0.00    -0.296 OA
ATOM     70  O2S SGN d  62      26.408  38.414  47.963  0.00  0.00    -0.296 OA
ATOM     71  C2  SGN d  62      23.750  37.460  49.144  0.00  0.00     0.081 C 
ATOM     72  C4  SGN d  62      22.817  37.940  51.385  0.00  0.00     0.095 C 
ATOM     73  N   SGN d  62      24.676  36.612  48.464  0.00  0.00    -0.210 NA
ATOM     74  C3  SGN d  62      23.806  37.047  50.618  0.00  0.00     0.083 C 
ATOM     75  H   SGN d  62      24.373  37.350  45.771  0.00  0.00     0.231 HD
ATOM     76  H   SGN d  62      22.268  37.710  47.574  0.00  0.00     0.131 H 
ATOM     77  H   SGN d  62      21.279  36.533  50.981  0.00  0.00     0.090 H 
ATOM     78  H   SGN d  62      25.725  36.689  50.569  0.00  0.00     0.210 HD
ATOM     79  H   SGN d  62      19.476  38.427  50.891  0.00  0.00     0.080 H 
ATOM     80  H   SGN d  62      20.654  39.353  51.746  0.00  0.00     0.080 H 
ATOM     81  H   SGN d  62      26.025  35.710  46.249  0.00  0.00     0.231 HD
ATOM     82  H   SGN d  62      25.784  39.065  48.321  0.00  0.00     0.231 HD
ATOM     83  H   SGN d  62      23.982  38.501  49.054  0.00  0.00     0.076 H 
ATOM     84  H   SGN d  62      23.071  38.974  51.275  0.00  0.00     0.091 H 
ATOM     85  H   SGN d  62      25.288  36.192  49.164  0.00  0.00     0.140 HD
ATOM     86  H   SGN d  62      23.544  36.020  50.766  0.00  0.00     0.089 H 
ATOM     87  O4  IDS d  63      22.172  35.846  48.364  0.00  0.00    -0.348 OA
ATOM     88  O62 IDS d  63      19.693  33.124  48.566  0.00  0.00    -0.646 OA
ATOM     89  C2  IDS d  63      23.938  34.160  46.442  0.00  0.00     0.134 C 
ATOM     90  O2S IDS d  63      26.477  32.715  47.494  0.00  0.00    -0.572 OA
ATOM     91  O61 IDS d  63      18.972  35.010  47.787  0.00  0.00    -0.646 OA
ATOM     92  C3  IDS d  63      23.140  35.417  46.070  0.00  0.00     0.094 C 
ATOM     93  C1  IDS d  63      23.037  32.901  46.311  0.00  0.00     0.161 C 
ATOM     94  O5  IDS d  63      21.946  33.036  47.257  0.00  0.00    -0.340 OA
ATOM     95  C4  IDS d  63      21.864  35.539  47.010  0.00  0.00     0.103 C 
ATOM     96  C6  IDS d  63      19.819  34.121  47.852  0.00  0.00     0.206 C 
ATOM     97  S   IDS d  63      25.377  32.973  48.414  0.00  0.00     0.252 S 
ATOM     98  O3  IDS d  63      22.746  35.214  44.731  0.00  0.00    -0.390 OA
ATOM     99  C5  IDS d  63      21.069  34.205  46.980  0.00  0.00     0.152 C 
ATOM    100  O2  IDS d  63      24.463  34.326  47.732  0.00  0.00    -0.244 OA
ATOM    101  O1S IDS d  63      25.835  33.427  49.714  0.00  0.00    -0.572 OA
ATOM    102  O3S IDS d  63      24.638  31.750  48.532  0.00  0.00    -0.572 OA
ATOM    103  H   IDS d  63      24.758  34.016  45.771  0.00  0.00     0.097 H 
ATOM    104  H   IDS d  63      23.710  36.315  46.188  0.00  0.00     0.091 H 
ATOM    105  H   IDS d  63      23.528  31.977  46.537  0.00  0.00     0.133 H 
ATOM    106  H   IDS d  63      21.288  36.354  46.622  0.00  0.00     0.092 H 
ATOM    107  H   IDS d  63      22.233  34.393  44.666  0.00  0.00     0.210 HD
ATOM    108  H   IDS d  63      20.703  34.184  45.975  0.00  0.00     0.104 H 
ATOM    109  O4  SGN d  64      22.600  32.877  44.917  0.00  0.00    -0.348 OA
ATOM    110  O6  SGN d  64      23.694  29.284  43.152  0.00  0.00    -0.254 OA
ATOM    111  C3  SGN d  64      20.355  32.477  44.033  0.00  0.00     0.083 C 
ATOM    112  S2  SGN d  64      22.909  28.222  44.351  0.00  0.00     0.251 S 
ATOM    113  C5  SGN d  64      22.354  31.302  43.114  0.00  0.00     0.091 C 
ATOM    114  O1S SGN d  64      16.207  30.702  44.372  0.00  0.00    -0.296 OA
ATOM    115  C2  SGN d  64      19.473  31.395  43.490  0.00  0.00     0.081 C 
ATOM    116  O4S SGN d  64      23.588  28.400  45.608  0.00  0.00    -0.572 OA
ATOM    117  O3S SGN d  64      17.337  32.380  45.610  0.00  0.00    -0.296 OA
ATOM    118  S1  SGN d  64      16.868  31.995  44.291  0.00  0.00     0.156 S 
ATOM    119  O6S SGN d  64      21.505  28.545  44.502  0.00  0.00    -0.572 OA
ATOM    120  O5S SGN d  64      23.033  26.861  43.905  0.00  0.00    -0.572 OA
ATOM    121  O3  SGN d  64      19.712  32.976  45.150  0.00  0.00    -0.391 OA
ATOM    122  C1  SGN d  64      20.118  30.822  42.255  0.00  0.00     0.150 C 
ATOM    123  O2S SGN d  64      15.972  33.001  43.791  0.00  0.00    -0.296 OA
ATOM    124  C4  SGN d  64      21.727  31.859  44.405  0.00  0.00     0.095 C 
ATOM    125  O5  SGN d  64      21.422  30.307  42.599  0.00  0.00    -0.349 OA
ATOM    126  C6  SGN d  64      23.701  30.680  43.415  0.00  0.00     0.067 C 
ATOM    127  N   SGN d  64      18.197  31.956  43.121  0.00  0.00    -0.210 NA
ATOM    128  H   SGN d  64      20.528  33.261  43.326  0.00  0.00     0.089 H 
ATOM    129  H   SGN d  64      22.520  32.074  42.392  0.00  0.00     0.090 H 
ATOM    130  H   SGN d  64      16.831  30.041  44.712  0.00  0.00     0.231 HD
ATOM    131  H   SGN d  64      19.337  30.636  44.231  0.00  0.00     0.076 H 
ATOM    132  H   SGN d  64      17.942  31.702  45.950  0.00  0.00     0.231 HD
ATOM    133  H   SGN d  64      19.559  32.257  45.784  0.00  0.00     0.210 HD
ATOM    134  H   SGN d  64      19.545  30.018  41.843  0.00  0.00     0.131 H 
ATOM    135  H   SGN d  64      15.211  33.080  44.387  0.00  0.00     0.231 HD
ATOM    136  H   SGN d  64      21.594  31.096  45.144  0.00  0.00     0.091 H 
ATOM    137  H   SGN d  64      24.445  31.147  42.804  0.00  0.00     0.080 H 
ATOM    138  H   SGN d  64      23.918  30.829  44.452  0.00  0.00     0.080 H 
ATOM    139  H   SGN d  64      17.865  31.425  42.316  0.00  0.00     0.140 HD
ATOM    140  C1  IDS d  61      23.293  38.698  53.619  0.00  0.00     0.167 C 
ATOM    141  O5  IDS d  61      24.696  38.945  53.339  0.00  0.00    -0.311 OA
ATOM    142  C5  IDS d  61      25.665  38.077  53.824  0.00  0.00     0.147 C 
ATOM    143  C6  IDS d  61      27.153  38.342  53.371  0.00  0.00     0.233 C 
ATOM    144  C2  IDS d  61      23.166  38.244  55.069  0.00  0.00     0.135 C 
ATOM    145  O1S IDS d  61      24.766  41.105  54.499  0.00  0.00    -0.572 OA
ATOM    146  O3S IDS d  61      22.415  41.402  54.940  0.00  0.00    -0.572 OA
ATOM    147  O3  IDS d  61      23.324  35.927  55.038  0.00  0.00    -0.389 OA
ATOM    148  C4  IDS d  61      25.381  37.111  54.742  0.00  0.00    -0.034 C 
ATOM    149  C3  IDS d  61      24.050  37.045  55.411  0.00  0.00     0.086 C 
ATOM    150  O61 IDS d  61      28.062  37.637  53.810  0.00  0.00    -0.642 OA
ATOM    151  O62 IDS d  61      27.411  39.291  52.590  0.00  0.00    -0.642 OA
ATOM    152  O2S IDS d  61      24.115  41.797  56.577  0.00  0.00    -0.572 OA
ATOM    153  S   IDS d  61      23.709  41.000  55.470  0.00  0.00     0.252 S 
ATOM    154  O2  IDS d  61      23.577  39.292  55.965  0.00  0.00    -0.244 OA
ATOM    155  H   IDS d  61      22.724  39.586  53.441  0.00  0.00     0.134 H 
ATOM    156  H   IDS d  61      22.135  37.981  55.184  0.00  0.00     0.097 H 
ATOM    157  H   IDS d  61      22.470  35.928  55.497  0.00  0.00     0.210 HD
ATOM    158  H   IDS d  61      26.101  36.410  54.978  0.00  0.00     0.085 H 
ATOM    159  H   IDS d  61      24.283  37.021  56.455  0.00  0.00     0.093 H 
ENDROOT
TORSDOF 50
ENDMDL
MODEL 36
REMARK VINA RESULT:      -5.5      3.128      6.563
REMARK  0 active torsions:
REMARK  status: ('A' for Active; 'I' for Inactive)
REMARK       I    between atoms: O3S_3  and  S1_55 
REMARK       I    between atoms: O3_4  and  C3_87 
REMARK       I    between atoms: O4_5  and  C1_15 
REMARK       I    between atoms: O4_5  and  C4_57 
REMARK       I    between atoms: O4_7  and  C1_36 
REMARK       I    between atoms: O4_7  and  C4_89 
REMARK       I    between atoms: C4_8  and  O4_18 
REMARK       I    between atoms: C2_9  and  O2_84 
REMARK       I    between atoms: C6_10  and  C5_32 
REMARK       I    between atoms: C6_10  and  O6_102 
REMARK       I    between atoms: O6_11  and  C6_93 
REMARK       I    between atoms: O6_11  and  S2_25 
REMARK       I    between atoms: C1_13  and  O4_74 
REMARK       I    between atoms: C3_14  and  O3_71 
REMARK       I    between atoms: O4_18  and  C1_54 
REMARK       I    between atoms: S2_19  and  O6_39 
REMARK       I    between atoms: O2S_21  and  S1_45 
REMARK       I    between atoms: C5_22  and  C6_23 
REMARK       I    between atoms: C5_24  and  C6_77 
REMARK       I    between atoms: O1_27  and  C1_48 
REMARK       I    between atoms: C5_28  and  C6_30 
REMARK       I    between atoms: C5_29  and  C6_93 
REMARK       I    between atoms: O1S_31  and  S1_44 
REMARK       I    between atoms: C3_33  and  O3_69 
REMARK       I    between atoms: C2_37  and  N_99 
REMARK       I    between atoms: S2_38  and  O6_102 
REMARK       I    between atoms: O6_39  and  C6_77 
REMARK       I    between atoms: C2_40  and  O2_103 
REMARK       I    between atoms: O3S_42  and  S1_44 
REMARK       I    between atoms: S1_44  and  N_99 
REMARK       I    between atoms: S1_44  and  O2S_81 
REMARK       I    between atoms: S1_45  and  N_94 
REMARK       I    between atoms: S1_45  and  O1S_46 
REMARK       I    between atoms: S1_45  and  O3S_58 
REMARK       I    between atoms: O3_52  and  C3_105 
REMARK       I    between atoms: S1_55  and  N_100 
REMARK       I    between atoms: S1_55  and  O1S_79 
REMARK       I    between atoms: S1_55  and  O2S_83 
REMARK       I    between atoms: O3_56  and  C3_64 
REMARK       I    between atoms: C4_60  and  O4_61 
REMARK       I    between atoms: O4_61  and  C1_73 
REMARK       I    between atoms: C6_63  and  C5_80 
REMARK       I    between atoms: C3_65  and  O3_82 
REMARK       I    between atoms: S_67  and  O2_84 
REMARK       I    between atoms: C2_68  and  O2_98 
REMARK       I    between atoms: O4_74  and  C4_97 
REMARK       I    between atoms: C2_85  and  N_94 
REMARK       I    between atoms: C2_95  and  N_100 
REMARK       I    between atoms: O2_98  and  S_104 
REMARK       I    between atoms: S_101  and  O2_103 
ROOT
ATOM      1  O6S SGN d  66      11.938  39.893  54.645  0.00  0.00    -0.572 OA
ATOM      2  C4  SGN d  66      14.904  36.396  53.277  0.00  0.00     0.095 C 
ATOM      3  C6  SGN d  66      15.545  38.272  54.841  0.00  0.00     0.067 C 
ATOM      4  O4  SGN d  66      15.322  37.234  52.099  0.00  0.00    -0.348 OA
ATOM      5  O5S SGN d  66      13.988  40.994  54.152  0.00  0.00    -0.572 OA
ATOM      6  O2S SGN d  66      14.069  31.581  56.208  0.00  0.00    -0.296 OA
ATOM      7  O5  SGN d  66      15.333  35.937  55.652  0.00  0.00    -0.350 OA
ATOM      8  O1  SGN d  66      16.842  34.152  55.079  0.00  0.00    -0.369 OA
ATOM      9  C5  SGN d  66      15.730  36.778  54.516  0.00  0.00     0.091 C 
ATOM     10  S2  SGN d  66      13.272  39.722  54.105  0.00  0.00     0.251 S 
ATOM     11  S1  SGN d  66      15.074  31.457  55.171  0.00  0.00     0.156 S 
ATOM     12  O1S SGN d  66      15.028  30.148  54.536  0.00  0.00    -0.296 OA
ATOM     13  C1  SGN d  66      15.486  34.496  55.424  0.00  0.00     0.147 C 
ATOM     14  O3S SGN d  66      16.412  31.629  55.716  0.00  0.00    -0.296 OA
ATOM     15  C3  SGN d  66      15.010  34.890  52.983  0.00  0.00     0.083 C 
ATOM     16  O3  SGN d  66      14.105  34.550  51.934  0.00  0.00    -0.391 OA
ATOM     17  C2  SGN d  66      14.588  34.111  54.231  0.00  0.00     0.081 C 
ATOM     18  O4S SGN d  66      13.173  39.229  52.738  0.00  0.00    -0.572 OA
ATOM     19  N   SGN d  66      14.690  32.676  53.928  0.00  0.00    -0.210 NA
ATOM     20  O6  SGN d  66      14.157  38.565  55.127  0.00  0.00    -0.254 OA
ATOM     21  H   SGN d  66      13.872  36.599  53.474  0.00  0.00     0.091 H 
ATOM     22  H   SGN d  66      15.861  38.856  54.002  0.00  0.00     0.080 H 
ATOM     23  H   SGN d  66      16.132  38.512  55.703  0.00  0.00     0.080 H 
ATOM     24  H   SGN d  66      13.188  31.463  55.820  0.00  0.00     0.231 HD
ATOM     25  H   SGN d  66      17.431  34.383  55.814  0.00  0.00     0.212 HD
ATOM     26  H   SGN d  66      16.768  36.612  54.315  0.00  0.00     0.090 H 
ATOM     27  H   SGN d  66      14.145  30.003  54.161  0.00  0.00     0.231 HD
ATOM     28  H   SGN d  66      15.219  33.980  56.322  0.00  0.00     0.131 H 
ATOM     29  H   SGN d  66      16.477  32.495  56.149  0.00  0.00     0.231 HD
ATOM     30  H   SGN d  66      16.016  34.654  52.704  0.00  0.00     0.089 H 
ATOM     31  H   SGN d  66      13.200  34.771  52.205  0.00  0.00     0.210 HD
ATOM     32  H   SGN d  66      13.579  34.346  54.500  0.00  0.00     0.076 H 
ATOM     33  H   SGN d  66      13.788  32.405  53.536  0.00  0.00     0.140 HD
ATOM     34  O61 IDS d  65      17.153  33.722  49.189  0.00  0.00    -0.646 OA
ATOM     35  O3  IDS d  65      18.474  38.814  49.763  0.00  0.00    -0.390 OA
ATOM     36  C5  IDS d  65      16.349  35.773  50.116  0.00  0.00     0.152 C 
ATOM     37  C6  IDS d  65      16.128  34.420  49.388  0.00  0.00     0.206 C 
ATOM     38  O5  IDS d  65      15.065  36.469  50.171  0.00  0.00    -0.340 OA
ATOM     39  C1  IDS d  65      15.065  37.772  50.811  0.00  0.00     0.161 C 
ATOM     40  O1S IDS d  65      18.452  41.474  51.035  0.00  0.00    -0.572 OA
ATOM     41  C4  IDS d  65      17.472  36.669  49.486  0.00  0.00     0.103 C 
ATOM     42  O4  IDS d  65      17.863  35.896  48.348  0.00  0.00    -0.348 OA
ATOM     43  C2  IDS d  65      16.468  38.441  50.921  0.00  0.00     0.134 C 
ATOM     44  O62 IDS d  65      14.953  34.078  49.057  0.00  0.00    -0.646 OA
ATOM     45  C3  IDS d  65      17.235  38.186  49.663  0.00  0.00     0.094 C 
ATOM     46  O2S IDS d  65      18.443  39.617  52.532  0.00  0.00    -0.572 OA
ATOM     47  O3S IDS d  65      17.075  41.499  53.002  0.00  0.00    -0.572 OA
ATOM     48  O2  IDS d  65      16.338  39.850  51.032  0.00  0.00    -0.244 OA
ATOM     49  S   IDS d  65      17.637  40.667  51.942  0.00  0.00     0.252 S 
ATOM     50  H   IDS d  65      18.983  38.657  48.953  0.00  0.00     0.210 HD
ATOM     51  H   IDS d  65      16.709  35.565  51.101  0.00  0.00     0.104 H 
ATOM     52  H   IDS d  65      14.281  38.386  50.421  0.00  0.00     0.133 H 
ATOM     53  H   IDS d  65      18.423  36.878  49.931  0.00  0.00     0.092 H 
ATOM     54  H   IDS d  65      16.961  38.037  51.780  0.00  0.00     0.097 H 
ATOM     55  H   IDS d  65      16.681  38.562  48.828  0.00  0.00     0.091 H 
ATOM     56  O3S SGN d  62      14.470  34.276  40.001  0.00  0.00    -0.296 OA
ATOM     57  C1  SGN d  62      17.322  36.048  39.108  0.00  0.00     0.150 C 
ATOM     58  S2  SGN d  62      21.412  39.438  36.434  0.00  0.00     0.251 S 
ATOM     59  C5  SGN d  62      18.773  36.917  37.280  0.00  0.00     0.091 C 
ATOM     60  O5  SGN d  62      17.751  37.179  38.284  0.00  0.00    -0.349 OA
ATOM     61  O4S SGN d  62      20.994  40.608  35.737  0.00  0.00    -0.572 OA
ATOM     62  O6  SGN d  62      20.367  38.096  36.034  0.00  0.00    -0.254 OA
ATOM     63  O3  SGN d  62      17.686  33.477  36.426  0.00  0.00    -0.391 OA
ATOM     64  S1  SGN d  62      15.189  33.218  39.331  0.00  0.00     0.156 S 
ATOM     65  O6S SGN d  62      21.433  39.615  37.884  0.00  0.00    -0.572 OA
ATOM     66  O4  SGN d  62      19.314  35.603  35.347  0.00  0.00    -0.348 OA
ATOM     67  C6  SGN d  62      19.049  38.206  36.542  0.00  0.00     0.067 C 
ATOM     68  O5S SGN d  62      22.728  39.046  36.009  0.00  0.00    -0.572 OA
ATOM     69  O1S SGN d  62      15.246  32.012  40.131  0.00  0.00    -0.296 OA
ATOM     70  O2S SGN d  62      14.568  33.000  38.056  0.00  0.00    -0.296 OA
ATOM     71  C2  SGN d  62      16.979  34.880  38.194  0.00  0.00     0.081 C 
ATOM     72  C4  SGN d  62      18.292  35.817  36.318  0.00  0.00     0.095 C 
ATOM     73  N   SGN d  62      16.831  33.706  38.993  0.00  0.00    -0.210 NA
ATOM     74  C3  SGN d  62      18.101  34.572  37.198  0.00  0.00     0.083 C 
ATOM     75  H   SGN d  62      14.873  34.441  40.868  0.00  0.00     0.231 HD
ATOM     76  H   SGN d  62      16.483  36.391  39.676  0.00  0.00     0.131 H 
ATOM     77  H   SGN d  62      19.675  36.573  37.740  0.00  0.00     0.090 H 
ATOM     78  H   SGN d  62      17.571  32.702  36.998  0.00  0.00     0.210 HD
ATOM     79  H   SGN d  62      18.978  39.039  37.210  0.00  0.00     0.080 H 
ATOM     80  H   SGN d  62      18.340  38.365  35.757  0.00  0.00     0.080 H 
ATOM     81  H   SGN d  62      15.672  32.206  40.980  0.00  0.00     0.231 HD
ATOM     82  H   SGN d  62      14.553  33.832  37.558  0.00  0.00     0.231 HD
ATOM     83  H   SGN d  62      16.090  35.147  37.663  0.00  0.00     0.076 H 
ATOM     84  H   SGN d  62      17.387  36.063  35.802  0.00  0.00     0.091 H 
ATOM     85  H   SGN d  62      17.293  32.936  38.508  0.00  0.00     0.140 HD
ATOM     86  H   SGN d  62      19.025  34.334  37.681  0.00  0.00     0.089 H 
ATOM     87  O4  IDS d  63      18.311  35.597  40.043  0.00  0.00    -0.348 OA
ATOM     88  O62 IDS d  63      21.356  36.568  41.881  0.00  0.00    -0.646 OA
ATOM     89  C2  IDS d  63      17.718  33.357  42.114  0.00  0.00     0.134 C 
ATOM     90  O2S IDS d  63      18.356  30.391  41.454  0.00  0.00    -0.572 OA
ATOM     91  O61 IDS d  63      19.841  38.100  41.676  0.00  0.00    -0.646 OA
ATOM     92  C3  IDS d  63      16.917  34.653  41.928  0.00  0.00     0.094 C 
ATOM     93  C1  IDS d  63      18.900  33.598  43.092  0.00  0.00     0.161 C 
ATOM     94  O5  IDS d  63      19.778  34.585  42.492  0.00  0.00    -0.340 OA
ATOM     95  C4  IDS d  63      17.874  35.799  41.382  0.00  0.00     0.103 C 
ATOM     96  C6  IDS d  63      20.182  36.940  41.906  0.00  0.00     0.206 C 
ATOM     97  S   IDS d  63      19.133  31.442  40.812  0.00  0.00     0.252 S 
ATOM     98  O3  IDS d  63      16.449  34.979  43.218  0.00  0.00    -0.390 OA
ATOM     99  C5  IDS d  63      19.127  35.908  42.293  0.00  0.00     0.152 C 
ATOM    100  O2  IDS d  63      18.133  32.900  40.854  0.00  0.00    -0.244 OA
ATOM    101  O1S IDS d  63      19.375  31.175  39.406  0.00  0.00    -0.572 OA
ATOM    102  O3S IDS d  63      20.370  31.543  41.531  0.00  0.00    -0.572 OA
ATOM    103  H   IDS d  63      17.111  32.594  42.555  0.00  0.00     0.097 H 
ATOM    104  H   IDS d  63      16.116  34.545  41.227  0.00  0.00     0.091 H 
ATOM    105  H   IDS d  63      19.499  32.733  43.288  0.00  0.00     0.133 H 
ATOM    106  H   IDS d  63      17.294  36.699  41.394  0.00  0.00     0.092 H 
ATOM    107  H   IDS d  63      17.202  35.069  43.822  0.00  0.00     0.210 HD
ATOM    108  H   IDS d  63      18.709  36.274  43.207  0.00  0.00     0.104 H 
ATOM    109  O4  SGN d  64      18.288  34.045  44.341  0.00  0.00    -0.348 OA
ATOM    110  O6  SGN d  64      19.418  31.537  47.448  0.00  0.00    -0.254 OA
ATOM    111  C3  SGN d  64      18.954  35.910  45.779  0.00  0.00     0.083 C 
ATOM    112  S2  SGN d  64      21.178  31.698  47.209  0.00  0.00     0.251 S 
ATOM    113  C5  SGN d  64      18.478  33.643  46.706  0.00  0.00     0.091 C 
ATOM    114  O1S SGN d  64      22.058  38.787  47.375  0.00  0.00    -0.296 OA
ATOM    115  C2  SGN d  64      19.765  36.234  46.995  0.00  0.00     0.081 C 
ATOM    116  O4S SGN d  64      21.505  31.112  45.936  0.00  0.00    -0.572 OA
ATOM    117  O3S SGN d  64      21.120  38.477  45.218  0.00  0.00    -0.296 OA
ATOM    118  S1  SGN d  64      20.824  38.786  46.605  0.00  0.00     0.156 S 
ATOM    119  O6S SGN d  64      21.587  33.088  47.229  0.00  0.00    -0.572 OA
ATOM    120  O5S SGN d  64      21.849  30.996  48.270  0.00  0.00    -0.572 OA
ATOM    121  O3  SGN d  64      19.492  36.652  44.745  0.00  0.00    -0.391 OA
ATOM    122  C1  SGN d  64      19.211  35.461  48.164  0.00  0.00     0.150 C 
ATOM    123  O2S SGN d  64      20.169  40.063  46.679  0.00  0.00    -0.296 OA
ATOM    124  C4  SGN d  64      19.069  34.389  45.496  0.00  0.00     0.095 C 
ATOM    125  O5  SGN d  64      19.263  34.050  47.865  0.00  0.00    -0.349 OA
ATOM    126  C6  SGN d  64      18.565  32.147  46.489  0.00  0.00     0.067 C 
ATOM    127  N   SGN d  64      19.654  37.642  47.284  0.00  0.00    -0.210 NA
ATOM    128  H   SGN d  64      17.917  36.144  45.900  0.00  0.00     0.089 H 
ATOM    129  H   SGN d  64      17.444  33.879  46.849  0.00  0.00     0.090 H 
ATOM    130  H   SGN d  64      22.481  37.917  47.309  0.00  0.00     0.231 HD
ATOM    131  H   SGN d  64      20.789  35.976  46.824  0.00  0.00     0.076 H 
ATOM    132  H   SGN d  64      21.563  37.615  45.166  0.00  0.00     0.231 HD
ATOM    133  H   SGN d  64      20.432  36.433  44.644  0.00  0.00     0.210 HD
ATOM    134  H   SGN d  64      19.777  35.630  49.057  0.00  0.00     0.131 H 
ATOM    135  H   SGN d  64      20.755  40.748  46.321  0.00  0.00     0.231 HD
ATOM    136  H   SGN d  64      20.093  34.127  45.328  0.00  0.00     0.091 H 
ATOM    137  H   SGN d  64      17.586  31.725  46.574  0.00  0.00     0.080 H 
ATOM    138  H   SGN d  64      18.969  31.970  45.515  0.00  0.00     0.080 H 
ATOM    139  H   SGN d  64      19.704  37.739  48.299  0.00  0.00     0.140 HD
ATOM    140  C1  IDS d  61      18.845  35.625  33.984  0.00  0.00     0.167 C 
ATOM    141  O5  IDS d  61      17.953  34.501  33.766  0.00  0.00    -0.311 OA
ATOM    142  C5  IDS d  61      18.472  33.222  33.615  0.00  0.00     0.147 C 
ATOM    143  C6  IDS d  61      17.434  32.037  33.511  0.00  0.00     0.233 C 
ATOM    144  C2  IDS d  61      20.054  35.462  33.068  0.00  0.00     0.135 C 
ATOM    145  O1S IDS d  61      17.044  35.355  31.655  0.00  0.00    -0.572 OA
ATOM    146  O3S IDS d  61      18.012  37.562  31.664  0.00  0.00    -0.572 OA
ATOM    147  O3  IDS d  61      21.634  34.277  34.291  0.00  0.00    -0.389 OA
ATOM    148  C4  IDS d  61      19.804  32.993  33.443  0.00  0.00    -0.034 C 
ATOM    149  C3  IDS d  61      20.761  34.116  33.229  0.00  0.00     0.086 C 
ATOM    150  O61 IDS d  61      17.832  30.887  33.323  0.00  0.00    -0.642 OA
ATOM    151  O62 IDS d  61      16.203  32.274  33.587  0.00  0.00    -0.642 OA
ATOM    152  O2S IDS d  61      17.998  36.145  29.736  0.00  0.00    -0.572 OA
ATOM    153  S   IDS d  61      18.094  36.202  31.155  0.00  0.00     0.252 S 
ATOM    154  O2  IDS d  61      19.655  35.524  31.688  0.00  0.00    -0.244 OA
ATOM    155  H   IDS d  61      18.330  36.542  33.784  0.00  0.00     0.134 H 
ATOM    156  H   IDS d  61      20.715  36.257  33.345  0.00  0.00     0.097 H 
ATOM    157  H   IDS d  61      22.235  35.017  34.106  0.00  0.00     0.210 HD
ATOM    158  H   IDS d  61      20.157  32.024  33.461  0.00  0.00     0.085 H 
ATOM    159  H   IDS d  61      21.286  33.847  32.337  0.00  0.00     0.093 H 
ENDROOT
TORSDOF 50
ENDMDL
MODEL 37
REMARK VINA RESULT:      -5.5      2.928     16.205
REMARK  0 active torsions:
REMARK  status: ('A' for Active; 'I' for Inactive)
REMARK       I    between atoms: O3S_3  and  S1_55 
REMARK       I    between atoms: O3_4  and  C3_87 
REMARK       I    between atoms: O4_5  and  C1_15 
REMARK       I    between atoms: O4_5  and  C4_57 
REMARK       I    between atoms: O4_7  and  C1_36 
REMARK       I    between atoms: O4_7  and  C4_89 
REMARK       I    between atoms: C4_8  and  O4_18 
REMARK       I    between atoms: C2_9  and  O2_84 
REMARK       I    between atoms: C6_10  and  C5_32 
REMARK       I    between atoms: C6_10  and  O6_102 
REMARK       I    between atoms: O6_11  and  C6_93 
REMARK       I    between atoms: O6_11  and  S2_25 
REMARK       I    between atoms: C1_13  and  O4_74 
REMARK       I    between atoms: C3_14  and  O3_71 
REMARK       I    between atoms: O4_18  and  C1_54 
REMARK       I    between atoms: S2_19  and  O6_39 
REMARK       I    between atoms: O2S_21  and  S1_45 
REMARK       I    between atoms: C5_22  and  C6_23 
REMARK       I    between atoms: C5_24  and  C6_77 
REMARK       I    between atoms: O1_27  and  C1_48 
REMARK       I    between atoms: C5_28  and  C6_30 
REMARK       I    between atoms: C5_29  and  C6_93 
REMARK       I    between atoms: O1S_31  and  S1_44 
REMARK       I    between atoms: C3_33  and  O3_69 
REMARK       I    between atoms: C2_37  and  N_99 
REMARK       I    between atoms: S2_38  and  O6_102 
REMARK       I    between atoms: O6_39  and  C6_77 
REMARK       I    between atoms: C2_40  and  O2_103 
REMARK       I    between atoms: O3S_42  and  S1_44 
REMARK       I    between atoms: S1_44  and  N_99 
REMARK       I    between atoms: S1_44  and  O2S_81 
REMARK       I    between atoms: S1_45  and  N_94 
REMARK       I    between atoms: S1_45  and  O1S_46 
REMARK       I    between atoms: S1_45  and  O3S_58 
REMARK       I    between atoms: O3_52  and  C3_105 
REMARK       I    between atoms: S1_55  and  N_100 
REMARK       I    between atoms: S1_55  and  O1S_79 
REMARK       I    between atoms: S1_55  and  O2S_83 
REMARK       I    between atoms: O3_56  and  C3_64 
REMARK       I    between atoms: C4_60  and  O4_61 
REMARK       I    between atoms: O4_61  and  C1_73 
REMARK       I    between atoms: C6_63  and  C5_80 
REMARK       I    between atoms: C3_65  and  O3_82 
REMARK       I    between atoms: S_67  and  O2_84 
REMARK       I    between atoms: C2_68  and  O2_98 
REMARK       I    between atoms: O4_74  and  C4_97 
REMARK       I    between atoms: C2_85  and  N_94 
REMARK       I    between atoms: C2_95  and  N_100 
REMARK       I    between atoms: O2_98  and  S_104 
REMARK       I    between atoms: S_101  and  O2_103 
ROOT
ATOM      1  O6S SGN d  66      23.485  37.524  32.634  0.00  0.00    -0.572 OA
ATOM      2  C4  SGN d  66      19.660  35.720  34.871  0.00  0.00     0.095 C 
ATOM      3  C6  SGN d  66      19.544  37.383  32.976  0.00  0.00     0.067 C 
ATOM      4  O4  SGN d  66      19.726  36.850  35.861  0.00  0.00    -0.348 OA
ATOM      5  O5S SGN d  66      22.051  39.389  32.983  0.00  0.00    -0.572 OA
ATOM      6  O2S SGN d  66      18.322  30.504  33.004  0.00  0.00    -0.296 OA
ATOM      7  O5  SGN d  66      18.795  35.037  32.675  0.00  0.00    -0.350 OA
ATOM      8  O1  SGN d  66      16.831  34.092  33.695  0.00  0.00    -0.369 OA
ATOM      9  C5  SGN d  66      18.876  36.156  33.623  0.00  0.00     0.091 C 
ATOM     10  S2  SGN d  66      22.260  37.972  33.266  0.00  0.00     0.251 S 
ATOM     11  S1  SGN d  66      17.481  30.960  34.093  0.00  0.00     0.156 S 
ATOM     12  O1S SGN d  66      17.134  29.868  34.992  0.00  0.00    -0.296 OA
ATOM     13  C1  SGN d  66      18.164  33.829  33.215  0.00  0.00     0.147 C 
ATOM     14  O3S SGN d  66      16.237  31.524  33.593  0.00  0.00    -0.296 OA
ATOM     15  C3  SGN d  66      19.057  34.446  35.487  0.00  0.00     0.083 C 
ATOM     16  O3  SGN d  66      19.905  33.982  36.536  0.00  0.00    -0.391 OA
ATOM     17  C2  SGN d  66      19.007  33.353  34.416  0.00  0.00     0.081 C 
ATOM     18  O4S SGN d  66      22.349  37.732  34.700  0.00  0.00    -0.572 OA
ATOM     19  N   SGN d  66      18.435  32.144  35.024  0.00  0.00    -0.210 NA
ATOM     20  O6  SGN d  66      20.895  37.072  32.563  0.00  0.00    -0.254 OA
ATOM     21  H   SGN d  66      20.661  35.477  34.583  0.00  0.00     0.091 H 
ATOM     22  H   SGN d  66      19.569  38.184  33.685  0.00  0.00     0.080 H 
ATOM     23  H   SGN d  66      18.978  37.668  32.113  0.00  0.00     0.080 H 
ATOM     24  H   SGN d  66      19.144  30.134  33.363  0.00  0.00     0.231 HD
ATOM     25  H   SGN d  66      16.276  34.393  32.959  0.00  0.00     0.212 HD
ATOM     26  H   SGN d  66      17.882  36.435  33.908  0.00  0.00     0.090 H 
ATOM     27  H   SGN d  66      17.946  29.469  35.343  0.00  0.00     0.231 HD
ATOM     28  H   SGN d  66      18.109  33.098  32.436  0.00  0.00     0.131 H 
ATOM     29  H   SGN d  66      16.434  32.257  32.989  0.00  0.00     0.231 HD
ATOM     30  H   SGN d  66      18.078  34.662  35.861  0.00  0.00     0.089 H 
ATOM     31  H   SGN d  66      20.786  33.792  36.179  0.00  0.00     0.210 HD
ATOM     32  H   SGN d  66      19.990  33.137  34.051  0.00  0.00     0.076 H 
ATOM     33  H   SGN d  66      19.221  31.627  35.419  0.00  0.00     0.140 HD
ATOM     34  O61 IDS d  65      17.142  34.880  39.548  0.00  0.00    -0.646 OA
ATOM     35  O3  IDS d  65      17.682  39.899  37.962  0.00  0.00    -0.390 OA
ATOM     36  C5  IDS d  65      18.505  36.270  38.162  0.00  0.00     0.152 C 
ATOM     37  C6  IDS d  65      18.315  35.090  39.151  0.00  0.00     0.206 C 
ATOM     38  O5  IDS d  65      19.934  36.406  37.893  0.00  0.00    -0.340 OA
ATOM     39  C1  IDS d  65      20.322  37.474  36.989  0.00  0.00     0.161 C 
ATOM     40  O1S IDS d  65      18.497  42.076  36.149  0.00  0.00    -0.572 OA
ATOM     41  C4  IDS d  65      17.870  37.623  38.642  0.00  0.00     0.103 C 
ATOM     42  O4  IDS d  65      17.375  37.273  39.937  0.00  0.00    -0.348 OA
ATOM     43  C2  IDS d  65      19.252  38.593  36.810  0.00  0.00     0.134 C 
ATOM     44  O62 IDS d  65      19.319  34.393  39.487  0.00  0.00    -0.646 OA
ATOM     45  C3  IDS d  65      18.613  38.878  38.131  0.00  0.00     0.094 C 
ATOM     46  O2S IDS d  65      17.645  40.119  35.087  0.00  0.00    -0.572 OA
ATOM     47  O3S IDS d  65      19.528  41.224  34.155  0.00  0.00    -0.572 OA
ATOM     48  O2  IDS d  65      19.867  39.802  36.393  0.00  0.00    -0.244 OA
ATOM     49  S   IDS d  65      18.844  40.872  35.396  0.00  0.00     0.252 S 
ATOM     50  H   IDS d  65      17.258  40.095  38.812  0.00  0.00     0.210 HD
ATOM     51  H   IDS d  65      17.971  36.041  37.264  0.00  0.00     0.104 H 
ATOM     52  H   IDS d  65      21.318  37.804  37.197  0.00  0.00     0.133 H 
ATOM     53  H   IDS d  65      17.010  38.092  38.212  0.00  0.00     0.092 H 
ATOM     54  H   IDS d  65      18.541  38.258  36.084  0.00  0.00     0.097 H 
ATOM     55  H   IDS d  65      19.367  39.160  38.836  0.00  0.00     0.091 H 
ATOM     56  O3S SGN d  62      20.994  36.020  48.252  0.00  0.00    -0.296 OA
ATOM     57  C1  SGN d  62      19.111  38.870  48.889  0.00  0.00     0.150 C 
ATOM     58  S2  SGN d  62      16.895  43.978  50.978  0.00  0.00     0.251 S 
ATOM     59  C5  SGN d  62      18.318  40.538  50.560  0.00  0.00     0.091 C 
ATOM     60  O5  SGN d  62      19.228  40.208  49.471  0.00  0.00    -0.349 OA
ATOM     61  O4S SGN d  62      17.792  45.008  51.385  0.00  0.00    -0.572 OA
ATOM     62  O6  SGN d  62      17.428  42.436  51.603  0.00  0.00    -0.254 OA
ATOM     63  O3  SGN d  62      18.192  37.157  52.076  0.00  0.00    -0.391 OA
ATOM     64  S1  SGN d  62      20.034  35.453  49.170  0.00  0.00     0.156 S 
ATOM     65  O6S SGN d  62      16.754  43.885  49.527  0.00  0.00    -0.572 OA
ATOM     66  O4  SGN d  62      17.591  39.898  52.754  0.00  0.00    -0.348 OA
ATOM     67  C6  SGN d  62      18.621  41.945  51.016  0.00  0.00     0.067 C 
ATOM     68  O5S SGN d  62      15.592  44.197  51.545  0.00  0.00    -0.572 OA
ATOM     69  O1S SGN d  62      19.446  34.236  48.652  0.00  0.00    -0.296 OA
ATOM     70  O2S SGN d  62      20.693  35.250  50.428  0.00  0.00    -0.296 OA
ATOM     71  C2  SGN d  62      19.124  37.845  50.014  0.00  0.00     0.081 C 
ATOM     72  C4  SGN d  62      18.489  39.530  51.709  0.00  0.00     0.095 C 
ATOM     73  N   SGN d  62      18.736  36.578  49.479  0.00  0.00    -0.210 NA
ATOM     74  C3  SGN d  62      18.105  38.169  51.109  0.00  0.00     0.083 C 
ATOM     75  H   SGN d  62      20.571  36.167  47.392  0.00  0.00     0.231 HD
ATOM     76  H   SGN d  62      19.938  38.762  48.219  0.00  0.00     0.131 H 
ATOM     77  H   SGN d  62      17.301  40.484  50.231  0.00  0.00     0.090 H 
ATOM     78  H   SGN d  62      17.946  36.307  51.678  0.00  0.00     0.210 HD
ATOM     79  H   SGN d  62      18.902  42.554  50.182  0.00  0.00     0.080 H 
ATOM     80  H   SGN d  62      19.434  41.962  51.712  0.00  0.00     0.080 H 
ATOM     81  H   SGN d  62      19.013  34.421  47.804  0.00  0.00     0.231 HD
ATOM     82  H   SGN d  62      21.070  36.089  50.735  0.00  0.00     0.231 HD
ATOM     83  H   SGN d  62      20.110  37.846  50.429  0.00  0.00     0.076 H 
ATOM     84  H   SGN d  62      19.480  39.504  52.114  0.00  0.00     0.091 H 
ATOM     85  H   SGN d  62      18.095  36.142  50.141  0.00  0.00     0.140 HD
ATOM     86  H   SGN d  62      17.103  38.217  50.736  0.00  0.00     0.089 H 
ATOM     87  O4  IDS d  63      17.916  38.667  48.124  0.00  0.00    -0.348 OA
ATOM     88  O62 IDS d  63      15.216  40.371  46.280  0.00  0.00    -0.646 OA
ATOM     89  C2  IDS d  63      17.392  36.036  46.555  0.00  0.00     0.134 C 
ATOM     90  O2S IDS d  63      15.819  33.704  47.869  0.00  0.00    -0.572 OA
ATOM     91  O61 IDS d  63      17.195  41.225  46.073  0.00  0.00    -0.646 OA
ATOM     92  C3  IDS d  63      18.623  36.943  46.418  0.00  0.00     0.094 C 
ATOM     93  C1  IDS d  63      16.262  36.527  45.610  0.00  0.00     0.161 C 
ATOM     94  O5  IDS d  63      15.883  37.863  46.028  0.00  0.00    -0.340 OA
ATOM     95  C4  IDS d  63      18.221  38.444  46.753  0.00  0.00     0.103 C 
ATOM     96  C6  IDS d  63      16.433  40.260  46.115  0.00  0.00     0.206 C 
ATOM     97  S   IDS d  63      15.561  35.068  48.309  0.00  0.00     0.252 S 
ATOM     98  O3  IDS d  63      19.008  36.829  45.065  0.00  0.00    -0.390 OA
ATOM     99  C5  IDS d  63      16.986  38.853  45.905  0.00  0.00     0.152 C 
ATOM    100  O2  IDS d  63      17.005  36.006  47.904  0.00  0.00    -0.244 OA
ATOM    101  O1S IDS d  63      15.421  35.170  49.750  0.00  0.00    -0.572 OA
ATOM    102  O3S IDS d  63      14.362  35.499  47.650  0.00  0.00    -0.572 OA
ATOM    103  H   IDS d  63      17.621  35.034  46.258  0.00  0.00     0.097 H 
ATOM    104  H   IDS d  63      19.413  36.668  47.083  0.00  0.00     0.091 H 
ATOM    105  H   IDS d  63      15.372  35.933  45.635  0.00  0.00     0.133 H 
ATOM    106  H   IDS d  63      19.079  39.039  46.518  0.00  0.00     0.092 H 
ATOM    107  H   IDS d  63      18.267  37.088  44.495  0.00  0.00     0.210 HD
ATOM    108  H   IDS d  63      17.387  38.863  44.913  0.00  0.00     0.104 H 
ATOM    109  O4  SGN d  64      16.829  36.476  44.264  0.00  0.00    -0.348 OA
ATOM    110  O6  SGN d  64      14.484  34.068  41.831  0.00  0.00    -0.254 OA
ATOM    111  C3  SGN d  64      16.701  38.162  42.496  0.00  0.00     0.083 C 
ATOM    112  S2  SGN d  64      12.946  34.924  42.119  0.00  0.00     0.251 S 
ATOM    113  C5  SGN d  64      16.205  35.757  42.054  0.00  0.00     0.091 C 
ATOM    114  O1S SGN d  64      14.665  41.663  40.480  0.00  0.00    -0.296 OA
ATOM    115  C2  SGN d  64      15.913  38.544  41.282  0.00  0.00     0.081 C 
ATOM    116  O4S SGN d  64      12.595  34.744  43.504  0.00  0.00    -0.572 OA
ATOM    117  O3S SGN d  64      15.696  41.414  42.603  0.00  0.00    -0.296 OA
ATOM    118  S1  SGN d  64      15.903  41.333  41.168  0.00  0.00     0.156 S 
ATOM    119  O6S SGN d  64      13.065  36.337  41.823  0.00  0.00    -0.572 OA
ATOM    120  O5S SGN d  64      11.938  34.349  41.270  0.00  0.00    -0.572 OA
ATOM    121  O3  SGN d  64      16.604  39.226  43.372  0.00  0.00    -0.391 OA
ATOM    122  C1  SGN d  64      15.997  37.423  40.279  0.00  0.00     0.150 C 
ATOM    123  O2S SGN d  64      16.959  42.230  40.788  0.00  0.00    -0.296 OA
ATOM    124  C4  SGN d  64      16.083  36.876  43.104  0.00  0.00     0.095 C 
ATOM    125  O5  SGN d  64      15.479  36.216  40.876  0.00  0.00    -0.349 OA
ATOM    126  C6  SGN d  64      15.614  34.471  42.591  0.00  0.00     0.067 C 
ATOM    127  N   SGN d  64      16.486  39.729  40.691  0.00  0.00    -0.210 NA
ATOM    128  H   SGN d  64      17.728  37.960  42.274  0.00  0.00     0.089 H 
ATOM    129  H   SGN d  64      17.228  35.554  41.811  0.00  0.00     0.090 H 
ATOM    130  H   SGN d  64      13.969  41.045  40.753  0.00  0.00     0.231 HD
ATOM    131  H   SGN d  64      14.896  38.729  41.557  0.00  0.00     0.076 H 
ATOM    132  H   SGN d  64      14.982  40.809  42.861  0.00  0.00     0.231 HD
ATOM    133  H   SGN d  64      15.669  39.401  43.566  0.00  0.00     0.210 HD
ATOM    134  H   SGN d  64      15.421  37.629  39.401  0.00  0.00     0.131 H 
ATOM    135  H   SGN d  64      16.710  43.138  41.020  0.00  0.00     0.231 HD
ATOM    136  H   SGN d  64      15.064  37.056  43.376  0.00  0.00     0.091 H 
ATOM    137  H   SGN d  64      16.356  33.702  42.549  0.00  0.00     0.080 H 
ATOM    138  H   SGN d  64      15.301  34.639  43.601  0.00  0.00     0.080 H 
ATOM    139  H   SGN d  64      16.345  39.652  39.684  0.00  0.00     0.140 HD
ATOM    140  C1  IDS d  61      18.207  39.986  54.056  0.00  0.00     0.167 C 
ATOM    141  O5  IDS d  61      18.654  38.666  54.463  0.00  0.00    -0.311 OA
ATOM    142  C5  IDS d  61      17.733  37.729  54.912  0.00  0.00     0.147 C 
ATOM    143  C6  IDS d  61      18.279  36.279  55.215  0.00  0.00     0.233 C 
ATOM    144  C2  IDS d  61      17.148  40.460  55.045  0.00  0.00     0.135 C 
ATOM    145  O1S IDS d  61      20.072  39.477  56.292  0.00  0.00    -0.572 OA
ATOM    146  O3S IDS d  61      19.971  41.847  55.859  0.00  0.00    -0.572 OA
ATOM    147  O3  IDS d  61      15.105  39.763  54.188  0.00  0.00    -0.389 OA
ATOM    148  C4  IDS d  61      16.442  38.057  55.198  0.00  0.00    -0.034 C 
ATOM    149  C3  IDS d  61      15.990  39.478  55.214  0.00  0.00     0.086 C 
ATOM    150  O61 IDS d  61      17.520  35.420  55.666  0.00  0.00    -0.642 OA
ATOM    151  O62 IDS d  61      19.492  36.015  55.027  0.00  0.00    -0.642 OA
ATOM    152  O2S IDS d  61      19.720  40.902  58.044  0.00  0.00    -0.572 OA
ATOM    153  S   IDS d  61      19.470  40.734  56.653  0.00  0.00     0.252 S 
ATOM    154  O2  IDS d  61      17.715  40.614  56.358  0.00  0.00    -0.244 OA
ATOM    155  H   IDS d  61      19.039  40.659  54.027  0.00  0.00     0.134 H 
ATOM    156  H   IDS d  61      16.788  41.382  54.638  0.00  0.00     0.097 H 
ATOM    157  H   IDS d  61      14.840  40.695  54.240  0.00  0.00     0.210 HD
ATOM    158  H   IDS d  61      15.764  37.308  55.407  0.00  0.00     0.085 H 
ATOM    159  H   IDS d  61      15.521  39.592  56.168  0.00  0.00     0.093 H 
ENDROOT
TORSDOF 50
ENDMDL
MODEL 38
REMARK VINA RESULT:      -5.4      4.026     16.084
REMARK  0 active torsions:
REMARK  status: ('A' for Active; 'I' for Inactive)
REMARK       I    between atoms: O3S_3  and  S1_55 
REMARK       I    between atoms: O3_4  and  C3_87 
REMARK       I    between atoms: O4_5  and  C1_15 
REMARK       I    between atoms: O4_5  and  C4_57 
REMARK       I    between atoms: O4_7  and  C1_36 
REMARK       I    between atoms: O4_7  and  C4_89 
REMARK       I    between atoms: C4_8  and  O4_18 
REMARK       I    between atoms: C2_9  and  O2_84 
REMARK       I    between atoms: C6_10  and  C5_32 
REMARK       I    between atoms: C6_10  and  O6_102 
REMARK       I    between atoms: O6_11  and  C6_93 
REMARK       I    between atoms: O6_11  and  S2_25 
REMARK       I    between atoms: C1_13  and  O4_74 
REMARK       I    between atoms: C3_14  and  O3_71 
REMARK       I    between atoms: O4_18  and  C1_54 
REMARK       I    between atoms: S2_19  and  O6_39 
REMARK       I    between atoms: O2S_21  and  S1_45 
REMARK       I    between atoms: C5_22  and  C6_23 
REMARK       I    between atoms: C5_24  and  C6_77 
REMARK       I    between atoms: O1_27  and  C1_48 
REMARK       I    between atoms: C5_28  and  C6_30 
REMARK       I    between atoms: C5_29  and  C6_93 
REMARK       I    between atoms: O1S_31  and  S1_44 
REMARK       I    between atoms: C3_33  and  O3_69 
REMARK       I    between atoms: C2_37  and  N_99 
REMARK       I    between atoms: S2_38  and  O6_102 
REMARK       I    between atoms: O6_39  and  C6_77 
REMARK       I    between atoms: C2_40  and  O2_103 
REMARK       I    between atoms: O3S_42  and  S1_44 
REMARK       I    between atoms: S1_44  and  N_99 
REMARK       I    between atoms: S1_44  and  O2S_81 
REMARK       I    between atoms: S1_45  and  N_94 
REMARK       I    between atoms: S1_45  and  O1S_46 
REMARK       I    between atoms: S1_45  and  O3S_58 
REMARK       I    between atoms: O3_52  and  C3_105 
REMARK       I    between atoms: S1_55  and  N_100 
REMARK       I    between atoms: S1_55  and  O1S_79 
REMARK       I    between atoms: S1_55  and  O2S_83 
REMARK       I    between atoms: O3_56  and  C3_64 
REMARK       I    between atoms: C4_60  and  O4_61 
REMARK       I    between atoms: O4_61  and  C1_73 
REMARK       I    between atoms: C6_63  and  C5_80 
REMARK       I    between atoms: C3_65  and  O3_82 
REMARK       I    between atoms: S_67  and  O2_84 
REMARK       I    between atoms: C2_68  and  O2_98 
REMARK       I    between atoms: O4_74  and  C4_97 
REMARK       I    between atoms: C2_85  and  N_94 
REMARK       I    between atoms: C2_95  and  N_100 
REMARK       I    between atoms: O2_98  and  S_104 
REMARK       I    between atoms: S_101  and  O2_103 
ROOT
ATOM      1  O6S SGN d  66      19.039  33.541  32.118  0.00  0.00    -0.572 OA
ATOM      2  C4  SGN d  66      20.067  31.432  36.288  0.00  0.00     0.095 C 
ATOM      3  C6  SGN d  66      17.905  31.105  35.025  0.00  0.00     0.067 C 
ATOM      4  O4  SGN d  66      19.468  32.607  37.011  0.00  0.00    -0.348 OA
ATOM      5  O5S SGN d  66      17.049  33.742  33.406  0.00  0.00    -0.572 OA
ATOM      6  O2S SGN d  66      23.440  26.885  35.638  0.00  0.00    -0.296 OA
ATOM      7  O5  SGN d  66      19.565  29.272  35.230  0.00  0.00    -0.350 OA
ATOM      8  O1  SGN d  66      20.063  28.106  37.275  0.00  0.00    -0.369 OA
ATOM      9  C5  SGN d  66      18.966  30.427  35.912  0.00  0.00     0.091 C 
ATOM     10  S2  SGN d  66      18.450  33.331  33.425  0.00  0.00     0.251 S 
ATOM     11  S1  SGN d  66      23.144  27.189  37.024  0.00  0.00     0.156 S 
ATOM     12  O1S SGN d  66      24.290  26.932  37.884  0.00  0.00    -0.296 OA
ATOM     13  C1  SGN d  66      20.584  28.566  36.013  0.00  0.00     0.147 C 
ATOM     14  O3S SGN d  66      22.040  26.377  37.514  0.00  0.00    -0.296 OA
ATOM     15  C3  SGN d  66      21.179  30.755  37.106  0.00  0.00     0.083 C 
ATOM     16  O3  SGN d  66      22.255  31.675  37.291  0.00  0.00    -0.391 OA
ATOM     17  C2  SGN d  66      21.722  29.563  36.313  0.00  0.00     0.081 C 
ATOM     18  O4S SGN d  66      19.204  34.088  34.415  0.00  0.00    -0.572 OA
ATOM     19  N   SGN d  66      22.787  28.935  37.107  0.00  0.00    -0.210 NA
ATOM     20  O6  SGN d  66      18.498  31.591  33.798  0.00  0.00    -0.254 OA
ATOM     21  H   SGN d  66      20.523  31.797  35.391  0.00  0.00     0.091 H 
ATOM     22  H   SGN d  66      17.476  31.928  35.558  0.00  0.00     0.080 H 
ATOM     23  H   SGN d  66      17.151  30.386  34.781  0.00  0.00     0.080 H 
ATOM     24  H   SGN d  66      24.177  27.438  35.336  0.00  0.00     0.231 HD
ATOM     25  H   SGN d  66      19.344  27.475  37.118  0.00  0.00     0.212 HD
ATOM     26  H   SGN d  66      18.480  30.084  36.802  0.00  0.00     0.090 H 
ATOM     27  H   SGN d  66      25.045  27.460  37.582  0.00  0.00     0.231 HD
ATOM     28  H   SGN d  66      20.917  27.719  35.451  0.00  0.00     0.131 H 
ATOM     29  H   SGN d  66      21.258  26.526  36.961  0.00  0.00     0.231 HD
ATOM     30  H   SGN d  66      20.785  30.441  38.049  0.00  0.00     0.089 H 
ATOM     31  H   SGN d  66      22.599  31.948  36.426  0.00  0.00     0.210 HD
ATOM     32  H   SGN d  66      22.122  29.885  35.373  0.00  0.00     0.076 H 
ATOM     33  H   SGN d  66      23.651  29.412  36.850  0.00  0.00     0.140 HD
ATOM     34  O61 IDS d  65      21.595  32.051  41.407  0.00  0.00    -0.646 OA
ATOM     35  O3  IDS d  65      16.871  34.006  40.042  0.00  0.00    -0.390 OA
ATOM     36  C5  IDS d  65      20.370  32.840  39.512  0.00  0.00     0.152 C 
ATOM     37  C6  IDS d  65      21.681  32.691  40.329  0.00  0.00     0.206 C 
ATOM     38  O5  IDS d  65      20.656  33.683  38.353  0.00  0.00    -0.340 OA
ATOM     39  C1  IDS d  65      19.543  33.952  37.461  0.00  0.00     0.161 C 
ATOM     40  O1S IDS d  65      14.620  34.588  38.229  0.00  0.00    -0.572 OA
ATOM     41  C4  IDS d  65      19.151  33.378  40.340  0.00  0.00     0.103 C 
ATOM     42  O4  IDS d  65      19.746  33.623  41.616  0.00  0.00    -0.348 OA
ATOM     43  C2  IDS d  65      18.136  33.714  38.088  0.00  0.00     0.134 C 
ATOM     44  O62 IDS d  65      22.755  33.188  39.876  0.00  0.00    -0.646 OA
ATOM     45  C3  IDS d  65      18.141  34.197  39.504  0.00  0.00     0.094 C 
ATOM     46  O2S IDS d  65      15.635  32.448  37.955  0.00  0.00    -0.572 OA
ATOM     47  O3S IDS d  65      15.001  33.691  36.035  0.00  0.00    -0.572 OA
ATOM     48  O2  IDS d  65      17.154  34.480  37.407  0.00  0.00    -0.244 OA
ATOM     49  S   IDS d  65      15.513  33.781  37.399  0.00  0.00     0.252 S 
ATOM     50  H   IDS d  65      16.859  34.316  40.961  0.00  0.00     0.210 HD
ATOM     51  H   IDS d  65      20.059  31.865  39.202  0.00  0.00     0.104 H 
ATOM     52  H   IDS d  65      19.680  34.883  36.953  0.00  0.00     0.133 H 
ATOM     53  H   IDS d  65      18.290  32.808  40.619  0.00  0.00     0.092 H 
ATOM     54  H   IDS d  65      17.916  32.669  38.022  0.00  0.00     0.097 H 
ATOM     55  H   IDS d  65      18.414  35.232  39.524  0.00  0.00     0.091 H 
ATOM     56  O3S SGN d  62      25.086  40.105  45.261  0.00  0.00    -0.296 OA
ATOM     57  C1  SGN d  62      22.191  40.672  47.097  0.00  0.00     0.150 C 
ATOM     58  S2  SGN d  62      17.749  42.983  50.305  0.00  0.00     0.251 S 
ATOM     59  C5  SGN d  62      21.071  41.947  48.920  0.00  0.00     0.091 C 
ATOM     60  O5  SGN d  62      21.284  41.750  47.493  0.00  0.00    -0.349 OA
ATOM     61  O4S SGN d  62      17.317  44.314  50.034  0.00  0.00    -0.572 OA
ATOM     62  O6  SGN d  62      19.494  42.915  50.354  0.00  0.00    -0.254 OA
ATOM     63  O3  SGN d  62      24.498  41.040  50.009  0.00  0.00    -0.391 OA
ATOM     64  S1  SGN d  62      25.571  39.722  46.566  0.00  0.00     0.156 S 
ATOM     65  O6S SGN d  62      17.258  42.015  49.327  0.00  0.00    -0.572 OA
ATOM     66  O4  SGN d  62      22.161  42.410  51.007  0.00  0.00    -0.348 OA
ATOM     67  C6  SGN d  62      20.124  43.109  49.100  0.00  0.00     0.067 C 
ATOM     68  O5S SGN d  62      17.307  42.570  51.609  0.00  0.00    -0.572 OA
ATOM     69  O1S SGN d  62      26.232  38.435  46.541  0.00  0.00    -0.296 OA
ATOM     70  O2S SGN d  62      26.430  40.769  47.042  0.00  0.00    -0.296 OA
ATOM     71  C2  SGN d  62      23.487  40.811  47.883  0.00  0.00     0.081 C 
ATOM     72  C4  SGN d  62      22.416  42.211  49.618  0.00  0.00     0.095 C 
ATOM     73  N   SGN d  62      24.255  39.619  47.708  0.00  0.00    -0.210 NA
ATOM     74  C3  SGN d  62      23.244  40.937  49.390  0.00  0.00     0.083 C 
ATOM     75  H   SGN d  62      24.501  39.411  44.917  0.00  0.00     0.231 HD
ATOM     76  H   SGN d  62      22.333  40.772  46.041  0.00  0.00     0.131 H 
ATOM     77  H   SGN d  62      20.644  41.071  49.362  0.00  0.00     0.090 H 
ATOM     78  H   SGN d  62      25.004  40.228  49.853  0.00  0.00     0.210 HD
ATOM     79  H   SGN d  62      19.396  43.119  48.316  0.00  0.00     0.080 H 
ATOM     80  H   SGN d  62      20.644  44.044  49.065  0.00  0.00     0.080 H 
ATOM     81  H   SGN d  62      25.616  37.761  46.213  0.00  0.00     0.231 HD
ATOM     82  H   SGN d  62      25.946  41.610  47.042  0.00  0.00     0.231 HD
ATOM     83  H   SGN d  62      23.980  41.690  47.524  0.00  0.00     0.076 H 
ATOM     84  H   SGN d  62      22.931  43.073  49.247  0.00  0.00     0.091 H 
ATOM     85  H   SGN d  62      24.646  39.363  48.614  0.00  0.00     0.140 HD
ATOM     86  H   SGN d  62      22.718  40.097  49.792  0.00  0.00     0.089 H 
ATOM     87  O4  IDS d  63      21.674  39.356  47.333  0.00  0.00    -0.348 OA
ATOM     88  O62 IDS d  63      18.592  37.399  47.853  0.00  0.00    -0.646 OA
ATOM     89  C2  IDS d  63      23.202  36.802  46.442  0.00  0.00     0.134 C 
ATOM     90  O2S IDS d  63      25.142  35.363  48.393  0.00  0.00    -0.572 OA
ATOM     91  O61 IDS d  63      18.471  38.993  46.394  0.00  0.00    -0.646 OA
ATOM     92  C3  IDS d  63      22.798  37.976  45.540  0.00  0.00     0.094 C 
ATOM     93  C1  IDS d  63      22.043  35.772  46.524  0.00  0.00     0.161 C 
ATOM     94  O5  IDS d  63      20.905  36.433  47.134  0.00  0.00    -0.340 OA
ATOM     95  C4  IDS d  63      21.480  38.658  46.109  0.00  0.00     0.103 C 
ATOM     96  C6  IDS d  63      19.055  38.040  46.907  0.00  0.00     0.206 C 
ATOM     97  S   IDS d  63      24.030  36.130  48.938  0.00  0.00     0.252 S 
ATOM     98  O3  IDS d  63      22.545  37.396  44.280  0.00  0.00    -0.390 OA
ATOM     99  C5  IDS d  63      20.390  37.576  46.331  0.00  0.00     0.152 C 
ATOM    100  O2  IDS d  63      23.578  37.306  47.696  0.00  0.00    -0.244 OA
ATOM    101  O1S IDS d  63      24.411  36.915  50.098  0.00  0.00    -0.572 OA
ATOM    102  O3S IDS d  63      23.001  35.190  49.275  0.00  0.00    -0.572 OA
ATOM    103  H   IDS d  63      24.042  36.279  46.034  0.00  0.00     0.097 H 
ATOM    104  H   IDS d  63      23.553  38.733  45.488  0.00  0.00     0.091 H 
ATOM    105  H   IDS d  63      22.254  34.910  47.124  0.00  0.00     0.133 H 
ATOM    106  H   IDS d  63      21.181  39.379  45.377  0.00  0.00     0.092 H 
ATOM    107  H   IDS d  63      21.858  36.717  44.368  0.00  0.00     0.210 HD
ATOM    108  H   IDS d  63      20.165  37.273  45.330  0.00  0.00     0.104 H 
ATOM    109  O4  SGN d  64      21.801  35.345  45.148  0.00  0.00    -0.348 OA
ATOM    110  O6  SGN d  64      22.190  31.224  44.856  0.00  0.00    -0.254 OA
ATOM    111  C3  SGN d  64      19.662  35.094  43.987  0.00  0.00     0.083 C 
ATOM    112  S2  SGN d  64      21.015  30.818  46.135  0.00  0.00     0.251 S 
ATOM    113  C5  SGN d  64      21.410  33.315  43.915  0.00  0.00     0.091 C 
ATOM    114  O1S SGN d  64      15.197  34.370  43.994  0.00  0.00    -0.296 OA
ATOM    115  C2  SGN d  64      18.619  34.078  43.637  0.00  0.00     0.081 C 
ATOM    116  O4S SGN d  64      21.546  31.293  47.387  0.00  0.00    -0.572 OA
ATOM    117  O3S SGN d  64      16.535  36.129  44.854  0.00  0.00    -0.296 OA
ATOM    118  S1  SGN d  64      16.162  35.402  43.654  0.00  0.00     0.156 S 
ATOM    119  O6S SGN d  64      19.728  31.433  45.883  0.00  0.00    -0.572 OA
ATOM    120  O5S SGN d  64      20.855  29.389  46.171  0.00  0.00    -0.572 OA
ATOM    121  O3  SGN d  64      19.022  36.064  44.735  0.00  0.00    -0.391 OA
ATOM    122  C1  SGN d  64      19.257  32.998  42.804  0.00  0.00     0.150 C 
ATOM    123  O2S SGN d  64      15.618  36.320  42.691  0.00  0.00    -0.296 OA
ATOM    124  C4  SGN d  64      20.777  34.397  44.809  0.00  0.00     0.095 C 
ATOM    125  O5  SGN d  64      20.336  32.399  43.553  0.00  0.00    -0.349 OA
ATOM    126  C6  SGN d  64      22.509  32.595  44.667  0.00  0.00     0.067 C 
ATOM    127  N   SGN d  64      17.582  34.706  42.855  0.00  0.00    -0.210 NA
ATOM    128  H   SGN d  64      20.116  35.533  43.124  0.00  0.00     0.089 H 
ATOM    129  H   SGN d  64      21.856  33.740  43.039  0.00  0.00     0.090 H 
ATOM    130  H   SGN d  64      15.586  33.764  44.643  0.00  0.00     0.231 HD
ATOM    131  H   SGN d  64      18.202  33.667  44.533  0.00  0.00     0.076 H 
ATOM    132  H   SGN d  64      16.902  35.511  45.506  0.00  0.00     0.231 HD
ATOM    133  H   SGN d  64      18.614  35.655  45.514  0.00  0.00     0.210 HD
ATOM    134  H   SGN d  64      18.562  32.225  42.552  0.00  0.00     0.131 H 
ATOM    135  H   SGN d  64      14.829  36.746  43.061  0.00  0.00     0.231 HD
ATOM    136  H   SGN d  64      20.363  33.981  45.704  0.00  0.00     0.091 H 
ATOM    137  H   SGN d  64      23.419  32.668  44.109  0.00  0.00     0.080 H 
ATOM    138  H   SGN d  64      22.618  33.053  45.628  0.00  0.00     0.080 H 
ATOM    139  H   SGN d  64      17.237  34.000  42.205  0.00  0.00     0.140 HD
ATOM    140  C1  IDS d  61      22.768  43.599  51.553  0.00  0.00     0.167 C 
ATOM    141  O5  IDS d  61      24.212  43.462  51.508  0.00  0.00    -0.311 OA
ATOM    142  C5  IDS d  61      24.863  42.651  52.428  0.00  0.00     0.147 C 
ATOM    143  C6  IDS d  61      26.417  42.454  52.234  0.00  0.00     0.233 C 
ATOM    144  C2  IDS d  61      22.343  43.714  53.013  0.00  0.00     0.135 C 
ATOM    145  O1S IDS d  61      24.664  45.836  51.926  0.00  0.00    -0.572 OA
ATOM    146  O3S IDS d  61      22.423  46.708  51.755  0.00  0.00    -0.572 OA
ATOM    147  O3  IDS d  61      21.924  41.548  53.737  0.00  0.00    -0.389 OA
ATOM    148  C4  IDS d  61      24.230  42.140  53.521  0.00  0.00    -0.034 C 
ATOM    149  C3  IDS d  61      22.849  42.566  53.887  0.00  0.00     0.086 C 
ATOM    150  O61 IDS d  61      27.057  41.789  53.050  0.00  0.00    -0.642 OA
ATOM    151  O62 IDS d  61      27.002  43.002  51.268  0.00  0.00    -0.642 OA
ATOM    152  O2S IDS d  61      23.938  47.322  53.503  0.00  0.00    -0.572 OA
ATOM    153  S   IDS d  61      23.496  46.279  52.641  0.00  0.00     0.252 S 
ATOM    154  O2  IDS d  61      22.880  44.911  53.603  0.00  0.00    -0.244 OA
ATOM    155  H   IDS d  61      22.466  44.459  50.994  0.00  0.00     0.134 H 
ATOM    156  H   IDS d  61      21.273  43.709  52.988  0.00  0.00     0.097 H 
ATOM    157  H   IDS d  61      21.043  41.871  53.986  0.00  0.00     0.210 HD
ATOM    158  H   IDS d  61      24.716  41.443  54.108  0.00  0.00     0.085 H 
ATOM    159  H   IDS d  61      22.929  42.865  54.910  0.00  0.00     0.093 H 
ENDROOT
TORSDOF 50
ENDMDL
MODEL 39
REMARK VINA RESULT:      -5.4      3.569     15.901
REMARK  0 active torsions:
REMARK  status: ('A' for Active; 'I' for Inactive)
REMARK       I    between atoms: O3S_3  and  S1_55 
REMARK       I    between atoms: O3_4  and  C3_87 
REMARK       I    between atoms: O4_5  and  C1_15 
REMARK       I    between atoms: O4_5  and  C4_57 
REMARK       I    between atoms: O4_7  and  C1_36 
REMARK       I    between atoms: O4_7  and  C4_89 
REMARK       I    between atoms: C4_8  and  O4_18 
REMARK       I    between atoms: C2_9  and  O2_84 
REMARK       I    between atoms: C6_10  and  C5_32 
REMARK       I    between atoms: C6_10  and  O6_102 
REMARK       I    between atoms: O6_11  and  C6_93 
REMARK       I    between atoms: O6_11  and  S2_25 
REMARK       I    between atoms: C1_13  and  O4_74 
REMARK       I    between atoms: C3_14  and  O3_71 
REMARK       I    between atoms: O4_18  and  C1_54 
REMARK       I    between atoms: S2_19  and  O6_39 
REMARK       I    between atoms: O2S_21  and  S1_45 
REMARK       I    between atoms: C5_22  and  C6_23 
REMARK       I    between atoms: C5_24  and  C6_77 
REMARK       I    between atoms: O1_27  and  C1_48 
REMARK       I    between atoms: C5_28  and  C6_30 
REMARK       I    between atoms: C5_29  and  C6_93 
REMARK       I    between atoms: O1S_31  and  S1_44 
REMARK       I    between atoms: C3_33  and  O3_69 
REMARK       I    between atoms: C2_37  and  N_99 
REMARK       I    between atoms: S2_38  and  O6_102 
REMARK       I    between atoms: O6_39  and  C6_77 
REMARK       I    between atoms: C2_40  and  O2_103 
REMARK       I    between atoms: O3S_42  and  S1_44 
REMARK       I    between atoms: S1_44  and  N_99 
REMARK       I    between atoms: S1_44  and  O2S_81 
REMARK       I    between atoms: S1_45  and  N_94 
REMARK       I    between atoms: S1_45  and  O1S_46 
REMARK       I    between atoms: S1_45  and  O3S_58 
REMARK       I    between atoms: O3_52  and  C3_105 
REMARK       I    between atoms: S1_55  and  N_100 
REMARK       I    between atoms: S1_55  and  O1S_79 
REMARK       I    between atoms: S1_55  and  O2S_83 
REMARK       I    between atoms: O3_56  and  C3_64 
REMARK       I    between atoms: C4_60  and  O4_61 
REMARK       I    between atoms: O4_61  and  C1_73 
REMARK       I    between atoms: C6_63  and  C5_80 
REMARK       I    between atoms: C3_65  and  O3_82 
REMARK       I    between atoms: S_67  and  O2_84 
REMARK       I    between atoms: C2_68  and  O2_98 
REMARK       I    between atoms: O4_74  and  C4_97 
REMARK       I    between atoms: C2_85  and  N_94 
REMARK       I    between atoms: C2_95  and  N_100 
REMARK       I    between atoms: O2_98  and  S_104 
REMARK       I    between atoms: S_101  and  O2_103 
ROOT
ATOM      1  O6S SGN d  66      15.688  28.447  35.986  0.00  0.00    -0.572 OA
ATOM      2  C4  SGN d  66      18.035  32.612  35.799  0.00  0.00     0.095 C 
ATOM      3  C6  SGN d  66      19.098  30.362  35.375  0.00  0.00     0.067 C 
ATOM      4  O4  SGN d  66      18.346  32.485  37.265  0.00  0.00    -0.348 OA
ATOM      5  O5S SGN d  66      17.735  28.041  37.126  0.00  0.00    -0.572 OA
ATOM      6  O2S SGN d  66      17.188  35.354  30.875  0.00  0.00    -0.296 OA
ATOM      7  O5  SGN d  66      18.781  32.001  33.540  0.00  0.00    -0.350 OA
ATOM      8  O1  SGN d  66      19.994  34.069  33.334  0.00  0.00    -0.369 OA
ATOM      9  C5  SGN d  66      19.079  31.848  34.970  0.00  0.00     0.091 C 
ATOM     10  S2  SGN d  66      16.896  29.059  36.500  0.00  0.00     0.251 S 
ATOM     11  S1  SGN d  66      18.000  36.098  31.817  0.00  0.00     0.156 S 
ATOM     12  O1S SGN d  66      17.723  37.525  31.749  0.00  0.00    -0.296 OA
ATOM     13  C1  SGN d  66      18.751  33.390  33.071  0.00  0.00     0.147 C 
ATOM     14  O3S SGN d  66      19.418  35.917  31.542  0.00  0.00    -0.296 OA
ATOM     15  C3  SGN d  66      17.941  34.081  35.353  0.00  0.00     0.083 C 
ATOM     16  O3  SGN d  66      16.853  34.710  36.028  0.00  0.00    -0.391 OA
ATOM     17  C2  SGN d  66      17.643  34.126  33.852  0.00  0.00     0.081 C 
ATOM     18  O4S SGN d  66      16.535  30.098  37.454  0.00  0.00    -0.572 OA
ATOM     19  N   SGN d  66      17.551  35.536  33.448  0.00  0.00    -0.210 NA
ATOM     20  O6  SGN d  66      17.809  29.750  35.137  0.00  0.00    -0.254 OA
ATOM     21  H   SGN d  66      17.072  32.178  35.629  0.00  0.00     0.091 H 
ATOM     22  H   SGN d  66      19.336  30.285  36.415  0.00  0.00     0.080 H 
ATOM     23  H   SGN d  66      19.834  29.854  34.787  0.00  0.00     0.080 H 
ATOM     24  H   SGN d  66      16.249  35.491  31.079  0.00  0.00     0.231 HD
ATOM     25  H   SGN d  66      20.712  33.628  32.854  0.00  0.00     0.212 HD
ATOM     26  H   SGN d  66      20.051  32.253  35.162  0.00  0.00     0.090 H 
ATOM     27  H   SGN d  66      16.782  37.680  31.928  0.00  0.00     0.231 HD
ATOM     28  H   SGN d  66      18.578  33.389  32.016  0.00  0.00     0.131 H 
ATOM     29  H   SGN d  66      19.636  34.972  31.579  0.00  0.00     0.231 HD
ATOM     30  H   SGN d  66      18.861  34.579  35.577  0.00  0.00     0.089 H 
ATOM     31  H   SGN d  66      16.028  34.246  35.814  0.00  0.00     0.210 HD
ATOM     32  H   SGN d  66      16.717  33.633  33.636  0.00  0.00     0.076 H 
ATOM     33  H   SGN d  66      16.576  35.805  33.581  0.00  0.00     0.140 HD
ATOM     34  O61 IDS d  65      19.333  37.182  38.320  0.00  0.00    -0.646 OA
ATOM     35  O3  IDS d  65      21.235  32.679  40.347  0.00  0.00    -0.390 OA
ATOM     36  C5  IDS d  65      18.896  34.834  38.405  0.00  0.00     0.152 C 
ATOM     37  C6  IDS d  65      18.428  36.313  38.382  0.00  0.00     0.206 C 
ATOM     38  O5  IDS d  65      17.714  33.991  38.569  0.00  0.00    -0.340 OA
ATOM     39  C1  IDS d  65      17.945  32.559  38.625  0.00  0.00     0.161 C 
ATOM     40  O1S IDS d  65      21.681  29.769  40.490  0.00  0.00    -0.572 OA
ATOM     41  C4  IDS d  65      19.991  34.520  39.484  0.00  0.00     0.103 C 
ATOM     42  O4  IDS d  65      20.119  35.779  40.150  0.00  0.00    -0.348 OA
ATOM     43  C2  IDS d  65      19.408  32.151  38.974  0.00  0.00     0.134 C 
ATOM     44  O62 IDS d  65      17.187  36.573  38.402  0.00  0.00    -0.646 OA
ATOM     45  C3  IDS d  65      19.939  33.073  40.025  0.00  0.00     0.094 C 
ATOM     46  O2S IDS d  65      21.720  30.709  38.299  0.00  0.00    -0.572 OA
ATOM     47  O3S IDS d  65      20.639  28.625  38.654  0.00  0.00    -0.572 OA
ATOM     48  O2  IDS d  65      19.440  30.847  39.532  0.00  0.00    -0.244 OA
ATOM     49  S   IDS d  65      20.941  29.928  39.240  0.00  0.00     0.252 S 
ATOM     50  H   IDS d  65      21.592  33.269  41.029  0.00  0.00     0.210 HD
ATOM     51  H   IDS d  65      19.383  34.625  37.476  0.00  0.00     0.104 H 
ATOM     52  H   IDS d  65      17.175  32.072  39.186  0.00  0.00     0.133 H 
ATOM     53  H   IDS d  65      21.016  34.289  39.279  0.00  0.00     0.092 H 
ATOM     54  H   IDS d  65      19.987  32.194  38.075  0.00  0.00     0.097 H 
ATOM     55  H   IDS d  65      19.302  33.035  40.884  0.00  0.00     0.091 H 
ATOM     56  O3S SGN d  62      15.314  40.451  46.386  0.00  0.00    -0.296 OA
ATOM     57  C1  SGN d  62      18.155  39.771  48.267  0.00  0.00     0.150 C 
ATOM     58  S2  SGN d  62      22.096  38.689  52.588  0.00  0.00     0.251 S 
ATOM     59  C5  SGN d  62      19.381  40.080  50.413  0.00  0.00     0.091 C 
ATOM     60  O5  SGN d  62      18.562  39.227  49.564  0.00  0.00    -0.349 OA
ATOM     61  O4S SGN d  62      21.694  37.914  53.714  0.00  0.00    -0.572 OA
ATOM     62  O6  SGN d  62      20.871  39.876  52.207  0.00  0.00    -0.254 OA
ATOM     63  O3  SGN d  62      17.833  43.303  49.433  0.00  0.00    -0.391 OA
ATOM     64  S1  SGN d  62      15.809  41.799  46.538  0.00  0.00     0.156 S 
ATOM     65  O6S SGN d  62      22.362  37.876  51.403  0.00  0.00    -0.572 OA
ATOM     66  O4  SGN d  62      19.478  42.199  51.533  0.00  0.00    -0.348 OA
ATOM     67  C6  SGN d  62      19.668  39.334  51.694  0.00  0.00     0.067 C 
ATOM     68  O5S SGN d  62      23.283  39.440  52.895  0.00  0.00    -0.572 OA
ATOM     69  O1S SGN d  62      15.868  42.499  45.272  0.00  0.00    -0.296 OA
ATOM     70  O2S SGN d  62      14.977  42.470  47.495  0.00  0.00    -0.296 OA
ATOM     71  C2  SGN d  62      17.557  41.154  48.484  0.00  0.00     0.081 C 
ATOM     72  C4  SGN d  62      18.647  41.403  50.691  0.00  0.00     0.095 C 
ATOM     73  N   SGN d  62      17.418  41.793  47.214  0.00  0.00    -0.210 NA
ATOM     74  C3  SGN d  62      18.471  42.061  49.313  0.00  0.00     0.083 C 
ATOM     75  H   SGN d  62      15.863  39.976  45.742  0.00  0.00     0.231 HD
ATOM     76  H   SGN d  62      17.454  39.075  47.856  0.00  0.00     0.131 H 
ATOM     77  H   SGN d  62      20.305  40.318  49.929  0.00  0.00     0.090 H 
ATOM     78  H   SGN d  62      17.732  43.701  48.555  0.00  0.00     0.210 HD
ATOM     79  H   SGN d  62      19.786  38.288  51.497  0.00  0.00     0.080 H 
ATOM     80  H   SGN d  62      18.864  39.437  52.393  0.00  0.00     0.080 H 
ATOM     81  H   SGN d  62      16.440  42.011  44.658  0.00  0.00     0.231 HD
ATOM     82  H   SGN d  62      14.968  41.966  48.325  0.00  0.00     0.231 HD
ATOM     83  H   SGN d  62      16.627  41.018  48.995  0.00  0.00     0.076 H 
ATOM     84  H   SGN d  62      17.702  41.276  51.178  0.00  0.00     0.091 H 
ATOM     85  H   SGN d  62      17.718  42.763  47.318  0.00  0.00     0.140 HD
ATOM     86  H   SGN d  62      19.432  42.198  48.862  0.00  0.00     0.089 H 
ATOM     87  O4  IDS d  63      19.227  39.900  47.325  0.00  0.00    -0.348 OA
ATOM     88  O62 IDS d  63      22.606  38.708  46.452  0.00  0.00    -0.646 OA
ATOM     89  C2  IDS d  63      18.743  40.819  44.396  0.00  0.00     0.134 C 
ATOM     90  O2S IDS d  63      18.967  43.819  43.628  0.00  0.00    -0.572 OA
ATOM     91  O61 IDS d  63      21.239  37.214  47.219  0.00  0.00    -0.646 OA
ATOM     92  C3  IDS d  63      18.059  39.640  45.100  0.00  0.00     0.094 C 
ATOM     93  C1  IDS d  63      20.082  40.354  43.761  0.00  0.00     0.161 C 
ATOM     94  O5  IDS d  63      20.950  39.907  44.834  0.00  0.00    -0.340 OA
ATOM     95  C4  IDS d  63      19.029  39.042  46.208  0.00  0.00     0.103 C 
ATOM     96  C6  IDS d  63      21.493  38.179  46.500  0.00  0.00     0.206 C 
ATOM     97  S   IDS d  63      19.737  43.318  44.759  0.00  0.00     0.252 S 
ATOM     98  O3  IDS d  63      17.833  38.690  44.081  0.00  0.00    -0.390 OA
ATOM     99  C5  IDS d  63      20.413  38.735  45.575  0.00  0.00     0.152 C 
ATOM    100  O2  IDS d  63      18.908  41.861  45.322  0.00  0.00    -0.244 OA
ATOM    101  O1S IDS d  63      19.727  44.233  45.886  0.00  0.00    -0.572 OA
ATOM    102  O3S IDS d  63      21.075  43.104  44.290  0.00  0.00    -0.572 OA
ATOM    103  H   IDS d  63      18.140  41.187  43.594  0.00  0.00     0.097 H 
ATOM    104  H   IDS d  63      17.151  39.924  45.590  0.00  0.00     0.091 H 
ATOM    105  H   IDS d  63      20.614  41.119  43.234  0.00  0.00     0.133 H 
ATOM    106  H   IDS d  63      18.551  38.155  46.570  0.00  0.00     0.092 H 
ATOM    107  H   IDS d  63      18.677  38.458  43.663  0.00  0.00     0.210 HD
ATOM    108  H   IDS d  63      20.183  37.930  44.910  0.00  0.00     0.104 H 
ATOM    109  O4  SGN d  64      19.722  39.294  42.823  0.00  0.00    -0.348 OA
ATOM    110  O6  SGN d  64      21.066  40.256  39.017  0.00  0.00    -0.254 OA
ATOM    111  C3  SGN d  64      20.789  37.115  42.507  0.00  0.00     0.083 C 
ATOM    112  S2  SGN d  64      22.774  40.510  39.462  0.00  0.00     0.251 S 
ATOM    113  C5  SGN d  64      20.239  38.599  40.578  0.00  0.00     0.091 C 
ATOM    114  O1S SGN d  64      24.379  34.374  42.754  0.00  0.00    -0.296 OA
ATOM    115  C2  SGN d  64      21.809  36.409  41.668  0.00  0.00     0.081 C 
ATOM    116  O4S SGN d  64      22.836  41.657  40.330  0.00  0.00    -0.572 OA
ATOM    117  O3S SGN d  64      23.089  35.477  44.411  0.00  0.00    -0.296 OA
ATOM    118  S1  SGN d  64      23.046  34.526  43.315  0.00  0.00     0.156 S 
ATOM    119  O6S SGN d  64      23.319  39.352  40.140  0.00  0.00    -0.572 OA
ATOM    120  O5S SGN d  64      23.528  40.750  38.262  0.00  0.00    -0.572 OA
ATOM    121  O3  SGN d  64      21.231  37.024  43.813  0.00  0.00    -0.391 OA
ATOM    122  C1  SGN d  64      21.371  36.462  40.228  0.00  0.00     0.150 C 
ATOM    123  O2S SGN d  64      22.543  33.268  43.795  0.00  0.00    -0.296 OA
ATOM    124  C4  SGN d  64      20.705  38.593  42.045  0.00  0.00     0.095 C 
ATOM    125  O5  SGN d  64      21.233  37.841  39.827  0.00  0.00    -0.349 OA
ATOM    126  C6  SGN d  64      20.139  40.021  40.067  0.00  0.00     0.067 C 
ATOM    127  N   SGN d  64      21.888  35.027  42.072  0.00  0.00    -0.210 NA
ATOM    128  H   SGN d  64      19.813  36.687  42.417  0.00  0.00     0.089 H 
ATOM    129  H   SGN d  64      19.269  38.159  40.470  0.00  0.00     0.090 H 
ATOM    130  H   SGN d  64      24.697  35.234  42.438  0.00  0.00     0.231 HD
ATOM    131  H   SGN d  64      22.763  36.879  41.790  0.00  0.00     0.076 H 
ATOM    132  H   SGN d  64      23.429  36.327  44.089  0.00  0.00     0.231 HD
ATOM    133  H   SGN d  64      22.116  37.415  43.883  0.00  0.00     0.210 HD
ATOM    134  H   SGN d  64      22.083  35.999  39.577  0.00  0.00     0.131 H 
ATOM    135  H   SGN d  64      23.132  32.927  44.486  0.00  0.00     0.231 HD
ATOM    136  H   SGN d  64      21.658  39.066  42.161  0.00  0.00     0.091 H 
ATOM    137  H   SGN d  64      19.148  40.192  39.704  0.00  0.00     0.080 H 
ATOM    138  H   SGN d  64      20.366  40.686  40.874  0.00  0.00     0.080 H 
ATOM    139  H   SGN d  64      22.105  34.488  41.233  0.00  0.00     0.140 HD
ATOM    140  C1  IDS d  61      18.805  42.725  52.696  0.00  0.00     0.167 C 
ATOM    141  O5  IDS d  61      17.782  43.663  52.272  0.00  0.00    -0.311 OA
ATOM    142  C5  IDS d  61      18.138  44.936  51.846  0.00  0.00     0.147 C 
ATOM    143  C6  IDS d  61      16.983  45.851  51.282  0.00  0.00     0.233 C 
ATOM    144  C2  IDS d  61      19.833  43.482  53.530  0.00  0.00     0.135 C 
ATOM    145  O1S IDS d  61      16.644  43.730  54.443  0.00  0.00    -0.572 OA
ATOM    146  O3S IDS d  61      17.819  41.952  55.569  0.00  0.00    -0.572 OA
ATOM    147  O3  IDS d  61      21.458  44.218  52.043  0.00  0.00    -0.389 OA
ATOM    148  C4  IDS d  61      19.397  45.431  52.011  0.00  0.00    -0.034 C 
ATOM    149  C3  IDS d  61      20.417  44.701  52.817  0.00  0.00     0.086 C 
ATOM    150  O61 IDS d  61      17.229  47.008  50.939  0.00  0.00    -0.642 OA
ATOM    151  O62 IDS d  61      15.810  45.409  51.216  0.00  0.00    -0.642 OA
ATOM    152  O2S IDS d  61      17.361  44.069  56.586  0.00  0.00    -0.572 OA
ATOM    153  S   IDS d  61      17.683  43.389  55.379  0.00  0.00     0.252 S 
ATOM    154  O2  IDS d  61      19.232  43.992  54.733  0.00  0.00    -0.244 OA
ATOM    155  H   IDS d  61      18.361  41.930  53.258  0.00  0.00     0.134 H 
ATOM    156  H   IDS d  61      20.606  42.768  53.724  0.00  0.00     0.097 H 
ATOM    157  H   IDS d  61      22.094  43.753  52.609  0.00  0.00     0.210 HD
ATOM    158  H   IDS d  61      19.650  46.328  51.568  0.00  0.00     0.085 H 
ATOM    159  H   IDS d  61      20.766  45.429  53.518  0.00  0.00     0.093 H 
ENDROOT
TORSDOF 50
ENDMDL
MODEL 40
REMARK VINA RESULT:      -5.4      3.240     15.834
REMARK  0 active torsions:
REMARK  status: ('A' for Active; 'I' for Inactive)
REMARK       I    between atoms: O3S_3  and  S1_55 
REMARK       I    between atoms: O3_4  and  C3_87 
REMARK       I    between atoms: O4_5  and  C1_15 
REMARK       I    between atoms: O4_5  and  C4_57 
REMARK       I    between atoms: O4_7  and  C1_36 
REMARK       I    between atoms: O4_7  and  C4_89 
REMARK       I    between atoms: C4_8  and  O4_18 
REMARK       I    between atoms: C2_9  and  O2_84 
REMARK       I    between atoms: C6_10  and  C5_32 
REMARK       I    between atoms: C6_10  and  O6_102 
REMARK       I    between atoms: O6_11  and  C6_93 
REMARK       I    between atoms: O6_11  and  S2_25 
REMARK       I    between atoms: C1_13  and  O4_74 
REMARK       I    between atoms: C3_14  and  O3_71 
REMARK       I    between atoms: O4_18  and  C1_54 
REMARK       I    between atoms: S2_19  and  O6_39 
REMARK       I    between atoms: O2S_21  and  S1_45 
REMARK       I    between atoms: C5_22  and  C6_23 
REMARK       I    between atoms: C5_24  and  C6_77 
REMARK       I    between atoms: O1_27  and  C1_48 
REMARK       I    between atoms: C5_28  and  C6_30 
REMARK       I    between atoms: C5_29  and  C6_93 
REMARK       I    between atoms: O1S_31  and  S1_44 
REMARK       I    between atoms: C3_33  and  O3_69 
REMARK       I    between atoms: C2_37  and  N_99 
REMARK       I    between atoms: S2_38  and  O6_102 
REMARK       I    between atoms: O6_39  and  C6_77 
REMARK       I    between atoms: C2_40  and  O2_103 
REMARK       I    between atoms: O3S_42  and  S1_44 
REMARK       I    between atoms: S1_44  and  N_99 
REMARK       I    between atoms: S1_44  and  O2S_81 
REMARK       I    between atoms: S1_45  and  N_94 
REMARK       I    between atoms: S1_45  and  O1S_46 
REMARK       I    between atoms: S1_45  and  O3S_58 
REMARK       I    between atoms: O3_52  and  C3_105 
REMARK       I    between atoms: S1_55  and  N_100 
REMARK       I    between atoms: S1_55  and  O1S_79 
REMARK       I    between atoms: S1_55  and  O2S_83 
REMARK       I    between atoms: O3_56  and  C3_64 
REMARK       I    between atoms: C4_60  and  O4_61 
REMARK       I    between atoms: O4_61  and  C1_73 
REMARK       I    between atoms: C6_63  and  C5_80 
REMARK       I    between atoms: C3_65  and  O3_82 
REMARK       I    between atoms: S_67  and  O2_84 
REMARK       I    between atoms: C2_68  and  O2_98 
REMARK       I    between atoms: O4_74  and  C4_97 
REMARK       I    between atoms: C2_85  and  N_94 
REMARK       I    between atoms: C2_95  and  N_100 
REMARK       I    between atoms: O2_98  and  S_104 
REMARK       I    between atoms: S_101  and  O2_103 
ROOT
ATOM      1  O6S SGN d  66      15.666  28.339  35.922  0.00  0.00    -0.572 OA
ATOM      2  C4  SGN d  66      17.860  32.591  35.999  0.00  0.00     0.095 C 
ATOM      3  C6  SGN d  66      19.030  30.396  35.567  0.00  0.00     0.067 C 
ATOM      4  O4  SGN d  66      18.092  32.426  37.476  0.00  0.00    -0.348 OA
ATOM      5  O5S SGN d  66      17.660  27.970  37.164  0.00  0.00    -0.572 OA
ATOM      6  O2S SGN d  66      17.185  35.462  31.123  0.00  0.00    -0.296 OA
ATOM      7  O5  SGN d  66      18.754  32.082  33.768  0.00  0.00    -0.350 OA
ATOM      8  O1  SGN d  66      19.897  34.199  33.697  0.00  0.00    -0.369 OA
ATOM      9  C5  SGN d  66      18.977  31.893  35.208  0.00  0.00     0.091 C 
ATOM     10  S2  SGN d  66      16.820  28.978  36.523  0.00  0.00     0.251 S 
ATOM     11  S1  SGN d  66      17.915  36.203  32.132  0.00  0.00     0.156 S 
ATOM     12  O1S SGN d  66      17.588  37.621  32.093  0.00  0.00    -0.296 OA
ATOM     13  C1  SGN d  66      18.697  33.484  33.342  0.00  0.00     0.147 C 
ATOM     14  O3S SGN d  66      19.351  36.083  31.933  0.00  0.00    -0.296 OA
ATOM     15  C3  SGN d  66      17.735  34.070  35.595  0.00  0.00     0.083 C 
ATOM     16  O3  SGN d  66      16.587  34.636  36.226  0.00  0.00    -0.391 OA
ATOM     17  C2  SGN d  66      17.520  34.153  34.082  0.00  0.00     0.081 C 
ATOM     18  O4S SGN d  66      16.367  29.971  37.488  0.00  0.00    -0.572 OA
ATOM     19  N   SGN d  66      17.396  35.571  33.716  0.00  0.00    -0.210 NA
ATOM     20  O6  SGN d  66      17.780  29.746  35.237  0.00  0.00    -0.254 OA
ATOM     21  H   SGN d  66      16.925  32.128  35.761  0.00  0.00     0.091 H 
ATOM     22  H   SGN d  66      19.212  30.293  36.616  0.00  0.00     0.080 H 
ATOM     23  H   SGN d  66      19.816  29.935  35.006  0.00  0.00     0.080 H 
ATOM     24  H   SGN d  66      16.232  35.557  31.277  0.00  0.00     0.231 HD
ATOM     25  H   SGN d  66      20.656  33.800  33.245  0.00  0.00     0.212 HD
ATOM     26  H   SGN d  66      19.920  32.326  35.467  0.00  0.00     0.090 H 
ATOM     27  H   SGN d  66      16.633  37.736  32.223  0.00  0.00     0.231 HD
ATOM     28  H   SGN d  66      18.583  33.512  32.279  0.00  0.00     0.131 H 
ATOM     29  H   SGN d  66      19.603  35.146  31.953  0.00  0.00     0.231 HD
ATOM     30  H   SGN d  66      18.622  34.593  35.886  0.00  0.00     0.089 H 
ATOM     31  H   SGN d  66      15.795  34.150  35.950  0.00  0.00     0.210 HD
ATOM     32  H   SGN d  66      16.627  33.634  33.798  0.00  0.00     0.076 H 
ATOM     33  H   SGN d  66      16.406  35.800  33.802  0.00  0.00     0.140 HD
ATOM     34  O61 IDS d  65      18.840  37.118  38.731  0.00  0.00    -0.646 OA
ATOM     35  O3  IDS d  65      20.796  32.623  40.723  0.00  0.00    -0.390 OA
ATOM     36  C5  IDS d  65      18.488  34.754  38.718  0.00  0.00     0.152 C 
ATOM     37  C6  IDS d  65      17.967  36.216  38.714  0.00  0.00     0.206 C 
ATOM     38  O5  IDS d  65      17.332  33.864  38.788  0.00  0.00    -0.340 OA
ATOM     39  C1  IDS d  65      17.614  32.441  38.813  0.00  0.00     0.161 C 
ATOM     40  O1S IDS d  65      21.344  29.727  40.800  0.00  0.00    -0.572 OA
ATOM     41  C4  IDS d  65      19.533  34.445  39.847  0.00  0.00     0.103 C 
ATOM     42  O4  IDS d  65      19.576  35.685  40.558  0.00  0.00    -0.348 OA
ATOM     43  C2  IDS d  65      19.070  32.075  39.231  0.00  0.00     0.134 C 
ATOM     44  O62 IDS d  65      16.718  36.430  38.672  0.00  0.00    -0.646 OA
ATOM     45  C3  IDS d  65      19.505  32.980  40.340  0.00  0.00     0.094 C 
ATOM     46  O2S IDS d  65      21.469  30.740  38.645  0.00  0.00    -0.572 OA
ATOM     47  O3S IDS d  65      20.450  28.608  38.873  0.00  0.00    -0.572 OA
ATOM     48  O2  IDS d  65      19.120  30.755  39.750  0.00  0.00    -0.244 OA
ATOM     49  S   IDS d  65      20.669  29.901  39.515  0.00  0.00     0.252 S 
ATOM     50  H   IDS d  65      21.092  33.203  41.442  0.00  0.00     0.210 HD
ATOM     51  H   IDS d  65      19.034  34.594  37.813  0.00  0.00     0.104 H 
ATOM     52  H   IDS d  65      16.833  31.907  39.313  0.00  0.00     0.133 H 
ATOM     53  H   IDS d  65      20.575  34.258  39.694  0.00  0.00     0.092 H 
ATOM     54  H   IDS d  65      19.696  32.168  38.369  0.00  0.00     0.097 H 
ATOM     55  H   IDS d  65      18.823  32.890  41.159  0.00  0.00     0.091 H 
ATOM     56  O3S SGN d  62      14.255  39.970  46.652  0.00  0.00    -0.296 OA
ATOM     57  C1  SGN d  62      17.010  39.331  48.671  0.00  0.00     0.150 C 
ATOM     58  S2  SGN d  62      20.742  38.250  53.173  0.00  0.00     0.251 S 
ATOM     59  C5  SGN d  62      18.102  39.613  50.891  0.00  0.00     0.091 C 
ATOM     60  O5  SGN d  62      17.364  38.760  49.971  0.00  0.00    -0.349 OA
ATOM     61  O4S SGN d  62      20.308  37.425  54.250  0.00  0.00    -0.572 OA
ATOM     62  O6  SGN d  62      19.496  39.404  52.761  0.00  0.00    -0.254 OA
ATOM     63  O3  SGN d  62      16.489  42.809  49.925  0.00  0.00    -0.391 OA
ATOM     64  S1  SGN d  62      14.689  41.330  46.874  0.00  0.00     0.156 S 
ATOM     65  O6S SGN d  62      21.104  37.488  51.981  0.00  0.00    -0.572 OA
ATOM     66  O4  SGN d  62      18.055  41.696  52.080  0.00  0.00    -0.348 OA
ATOM     67  C6  SGN d  62      18.345  38.836  52.163  0.00  0.00     0.067 C 
ATOM     68  O5S SGN d  62      21.880  39.033  53.571  0.00  0.00    -0.572 OA
ATOM     69  O1S SGN d  62      14.792  42.073  45.636  0.00  0.00    -0.296 OA
ATOM     70  O2S SGN d  62      13.780  41.937  47.803  0.00  0.00    -0.296 OA
ATOM     71  C2  SGN d  62      16.349  40.684  48.896  0.00  0.00     0.081 C 
ATOM     72  C4  SGN d  62      17.304  40.899  51.168  0.00  0.00     0.095 C 
ATOM     73  N   SGN d  62      16.257  41.359  47.641  0.00  0.00    -0.210 NA
ATOM     74  C3  SGN d  62      17.180  41.595  49.804  0.00  0.00     0.083 C 
ATOM     75  H   SGN d  62      14.857  39.537  46.026  0.00  0.00     0.231 HD
ATOM     76  H   SGN d  62      16.360  38.625  48.199  0.00  0.00     0.131 H 
ATOM     77  H   SGN d  62      19.042  39.901  50.468  0.00  0.00     0.090 H 
ATOM     78  H   SGN d  62      16.422  43.232  49.055  0.00  0.00     0.210 HD
ATOM     79  H   SGN d  62      18.513  37.803  51.940  0.00  0.00     0.080 H 
ATOM     80  H   SGN d  62      17.500  38.887  52.818  0.00  0.00     0.080 H 
ATOM     81  H   SGN d  62      15.415  41.626  45.041  0.00  0.00     0.231 HD
ATOM     82  H   SGN d  62      13.744  41.407  48.614  0.00  0.00     0.231 HD
ATOM     83  H   SGN d  62      15.398  40.497  49.348  0.00  0.00     0.076 H 
ATOM     84  H   SGN d  62      16.339  40.722  51.596  0.00  0.00     0.091 H 
ATOM     85  H   SGN d  62      16.514  42.335  47.791  0.00  0.00     0.140 HD
ATOM     86  H   SGN d  62      18.159  41.782  49.412  0.00  0.00     0.089 H 
ATOM     87  O4  IDS d  63      18.128  39.530  47.795  0.00  0.00    -0.348 OA
ATOM     88  O62 IDS d  63      21.592  38.491  47.080  0.00  0.00    -0.646 OA
ATOM     89  C2  IDS d  63      17.774  40.528  44.874  0.00  0.00     0.134 C 
ATOM     90  O2S IDS d  63      17.926  43.558  44.213  0.00  0.00    -0.572 OA
ATOM     91  O61 IDS d  63      20.243  36.925  47.721  0.00  0.00    -0.646 OA
ATOM     92  C3  IDS d  63      17.096  39.302  45.500  0.00  0.00     0.094 C 
ATOM     93  C1  IDS d  63      19.163  40.134  44.302  0.00  0.00     0.161 C 
ATOM     94  O5  IDS d  63      19.986  39.683  45.408  0.00  0.00    -0.340 OA
ATOM     95  C4  IDS d  63      18.025  38.703  46.643  0.00  0.00     0.103 C 
ATOM     96  C6  IDS d  63      20.500  37.922  47.048  0.00  0.00     0.206 C 
ATOM     97  S   IDS d  63      18.650  43.049  45.370  0.00  0.00     0.252 S 
ATOM     98  O3  IDS d  63      16.964  38.379  44.442  0.00  0.00    -0.390 OA
ATOM     99  C5  IDS d  63      19.453  38.468  46.081  0.00  0.00     0.152 C 
ATOM    100  O2  IDS d  63      17.846  41.544  45.839  0.00  0.00    -0.244 OA
ATOM    101  O1S IDS d  63      18.542  43.924  46.523  0.00  0.00    -0.572 OA
ATOM    102  O3S IDS d  63      20.019  42.898  44.972  0.00  0.00    -0.572 OA
ATOM    103  H   IDS d  63      17.202  40.901  44.050  0.00  0.00     0.097 H 
ATOM    104  H   IDS d  63      16.152  39.537  45.946  0.00  0.00     0.091 H 
ATOM    105  H   IDS d  63      19.694  40.934  43.830  0.00  0.00     0.133 H 
ATOM    106  H   IDS d  63      17.562  37.788  46.950  0.00  0.00     0.092 H 
ATOM    107  H   IDS d  63      17.839  38.192  44.065  0.00  0.00     0.210 HD
ATOM    108  H   IDS d  63      19.291  37.678  45.378  0.00  0.00     0.104 H 
ATOM    109  O4  SGN d  64      18.896  39.093  43.312  0.00  0.00    -0.348 OA
ATOM    110  O6  SGN d  64      20.413  40.229  39.621  0.00  0.00    -0.254 OA
ATOM    111  C3  SGN d  64      20.061  36.966  42.990  0.00  0.00     0.083 C 
ATOM    112  S2  SGN d  64      22.082  40.529  40.171  0.00  0.00     0.251 S 
ATOM    113  C5  SGN d  64      19.564  38.491  41.080  0.00  0.00     0.091 C 
ATOM    114  O1S SGN d  64      23.734  34.350  43.356  0.00  0.00    -0.296 OA
ATOM    115  C2  SGN d  64      21.153  36.325  42.190  0.00  0.00     0.081 C 
ATOM    116  O4S SGN d  64      22.053  41.648  41.076  0.00  0.00    -0.572 OA
ATOM    117  O3S SGN d  64      22.312  35.349  44.971  0.00  0.00    -0.296 OA
ATOM    118  S1  SGN d  64      22.367  34.434  43.845  0.00  0.00     0.156 S 
ATOM    119  O6S SGN d  64      22.633  39.370  40.842  0.00  0.00    -0.572 OA
ATOM    120  O5S SGN d  64      22.893  40.836  39.023  0.00  0.00    -0.572 OA
ATOM    121  O3  SGN d  64      20.433  36.847  44.316  0.00  0.00    -0.391 OA
ATOM    122  C1  SGN d  64      20.794  36.410  40.729  0.00  0.00     0.150 C 
ATOM    123  O2S SGN d  64      21.886  33.144  44.256  0.00  0.00    -0.296 OA
ATOM    124  C4  SGN d  64      19.946  38.454  42.570  0.00  0.00     0.095 C 
ATOM    125  O5  SGN d  64      20.626  37.796  40.363  0.00  0.00    -0.349 OA
ATOM    126  C6  SGN d  64      19.439  39.925  40.609  0.00  0.00     0.067 C 
ATOM    127  N   SGN d  64      21.261  34.934  42.554  0.00  0.00    -0.210 NA
ATOM    128  H   SGN d  64      19.109  36.505  42.831  0.00  0.00     0.089 H 
ATOM    129  H   SGN d  64      18.619  38.020  40.904  0.00  0.00     0.090 H 
ATOM    130  H   SGN d  64      24.036  35.231  43.086  0.00  0.00     0.231 HD
ATOM    131  H   SGN d  64      22.079  36.825  42.380  0.00  0.00     0.076 H 
ATOM    132  H   SGN d  64      22.637  36.221  44.695  0.00  0.00     0.231 HD
ATOM    133  H   SGN d  64      21.297  37.268  44.448  0.00  0.00     0.210 HD
ATOM    134  H   SGN d  64      21.559  35.995  40.106  0.00  0.00     0.131 H 
ATOM    135  H   SGN d  64      22.447  32.802  44.969  0.00  0.00     0.231 HD
ATOM    136  H   SGN d  64      20.873  38.957  42.755  0.00  0.00     0.091 H 
ATOM    137  H   SGN d  64      18.464  40.072  40.195  0.00  0.00     0.080 H 
ATOM    138  H   SGN d  64      19.594  40.571  41.448  0.00  0.00     0.080 H 
ATOM    139  H   SGN d  64      21.546  34.432  41.713  0.00  0.00     0.140 HD
ATOM    140  C1  IDS d  61      17.299  42.159  53.219  0.00  0.00     0.167 C 
ATOM    141  O5  IDS d  61      16.266  43.073  52.767  0.00  0.00    -0.311 OA
ATOM    142  C5  IDS d  61      16.597  44.371  52.402  0.00  0.00     0.147 C 
ATOM    143  C6  IDS d  61      15.441  45.261  51.801  0.00  0.00     0.233 C 
ATOM    144  C2  IDS d  61      18.249  42.924  54.133  0.00  0.00     0.135 C 
ATOM    145  O1S IDS d  61      15.007  43.026  54.870  0.00  0.00    -0.572 OA
ATOM    146  O3S IDS d  61      16.184  41.256  56.006  0.00  0.00    -0.572 OA
ATOM    147  O3  IDS d  61      19.925  43.768  52.765  0.00  0.00    -0.389 OA
ATOM    148  C4  IDS d  61      17.825  44.905  52.653  0.00  0.00    -0.034 C 
ATOM    149  C3  IDS d  61      18.826  44.187  53.493  0.00  0.00     0.086 C 
ATOM    150  O61 IDS d  61      15.662  46.437  51.509  0.00  0.00    -0.642 OA
ATOM    151  O62 IDS d  61      14.291  44.780  51.654  0.00  0.00    -0.642 OA
ATOM    152  O2S IDS d  61      15.589  43.320  57.060  0.00  0.00    -0.572 OA
ATOM    153  S   IDS d  61      16.004  42.692  55.852  0.00  0.00     0.252 S 
ATOM    154  O2  IDS d  61      17.563  43.372  55.315  0.00  0.00    -0.244 OA
ATOM    155  H   IDS d  61      16.855  41.330  53.729  0.00  0.00     0.134 H 
ATOM    156  H   IDS d  61      19.037  42.232  54.349  0.00  0.00     0.097 H 
ATOM    157  H   IDS d  61      20.546  43.307  53.351  0.00  0.00     0.210 HD
ATOM    158  H   IDS d  61      18.068  45.826  52.254  0.00  0.00     0.085 H 
ATOM    159  H   IDS d  61      19.107  44.903  54.235  0.00  0.00     0.093 H 
ENDROOT
TORSDOF 50
ENDMDL
MODEL 41
REMARK VINA RESULT:      -5.4      4.165      6.777
REMARK  0 active torsions:
REMARK  status: ('A' for Active; 'I' for Inactive)
REMARK       I    between atoms: O3S_3  and  S1_55 
REMARK       I    between atoms: O3_4  and  C3_87 
REMARK       I    between atoms: O4_5  and  C1_15 
REMARK       I    between atoms: O4_5  and  C4_57 
REMARK       I    between atoms: O4_7  and  C1_36 
REMARK       I    between atoms: O4_7  and  C4_89 
REMARK       I    between atoms: C4_8  and  O4_18 
REMARK       I    between atoms: C2_9  and  O2_84 
REMARK       I    between atoms: C6_10  and  C5_32 
REMARK       I    between atoms: C6_10  and  O6_102 
REMARK       I    between atoms: O6_11  and  C6_93 
REMARK       I    between atoms: O6_11  and  S2_25 
REMARK       I    between atoms: C1_13  and  O4_74 
REMARK       I    between atoms: C3_14  and  O3_71 
REMARK       I    between atoms: O4_18  and  C1_54 
REMARK       I    between atoms: S2_19  and  O6_39 
REMARK       I    between atoms: O2S_21  and  S1_45 
REMARK       I    between atoms: C5_22  and  C6_23 
REMARK       I    between atoms: C5_24  and  C6_77 
REMARK       I    between atoms: O1_27  and  C1_48 
REMARK       I    between atoms: C5_28  and  C6_30 
REMARK       I    between atoms: C5_29  and  C6_93 
REMARK       I    between atoms: O1S_31  and  S1_44 
REMARK       I    between atoms: C3_33  and  O3_69 
REMARK       I    between atoms: C2_37  and  N_99 
REMARK       I    between atoms: S2_38  and  O6_102 
REMARK       I    between atoms: O6_39  and  C6_77 
REMARK       I    between atoms: C2_40  and  O2_103 
REMARK       I    between atoms: O3S_42  and  S1_44 
REMARK       I    between atoms: S1_44  and  N_99 
REMARK       I    between atoms: S1_44  and  O2S_81 
REMARK       I    between atoms: S1_45  and  N_94 
REMARK       I    between atoms: S1_45  and  O1S_46 
REMARK       I    between atoms: S1_45  and  O3S_58 
REMARK       I    between atoms: O3_52  and  C3_105 
REMARK       I    between atoms: S1_55  and  N_100 
REMARK       I    between atoms: S1_55  and  O1S_79 
REMARK       I    between atoms: S1_55  and  O2S_83 
REMARK       I    between atoms: O3_56  and  C3_64 
REMARK       I    between atoms: C4_60  and  O4_61 
REMARK       I    between atoms: O4_61  and  C1_73 
REMARK       I    between atoms: C6_63  and  C5_80 
REMARK       I    between atoms: C3_65  and  O3_82 
REMARK       I    between atoms: S_67  and  O2_84 
REMARK       I    between atoms: C2_68  and  O2_98 
REMARK       I    between atoms: O4_74  and  C4_97 
REMARK       I    between atoms: C2_85  and  N_94 
REMARK       I    between atoms: C2_95  and  N_100 
REMARK       I    between atoms: O2_98  and  S_104 
REMARK       I    between atoms: S_101  and  O2_103 
ROOT
ATOM      1  O6S SGN d  66      14.177  38.608  57.436  0.00  0.00    -0.572 OA
ATOM      2  C4  SGN d  66      15.281  34.193  55.957  0.00  0.00     0.095 C 
ATOM      3  C6  SGN d  66      16.542  35.448  57.749  0.00  0.00     0.067 C 
ATOM      4  O4  SGN d  66      16.180  34.788  54.906  0.00  0.00    -0.348 OA
ATOM      5  O5S SGN d  66      16.545  38.616  57.220  0.00  0.00    -0.572 OA
ATOM      6  O2S SGN d  66      11.938  30.223  58.309  0.00  0.00    -0.296 OA
ATOM      7  O5  SGN d  66      15.161  33.462  58.299  0.00  0.00    -0.350 OA
ATOM      8  O1  SGN d  66      15.706  31.205  57.667  0.00  0.00    -0.369 OA
ATOM      9  C5  SGN d  66      16.038  34.068  57.288  0.00  0.00     0.091 C 
ATOM     10  S2  SGN d  66      15.326  37.847  56.988  0.00  0.00     0.251 S 
ATOM     11  S1  SGN d  66      12.880  29.687  57.346  0.00  0.00     0.156 S 
ATOM     12  O1S SGN d  66      12.297  28.596  56.580  0.00  0.00    -0.296 OA
ATOM     13  C1  SGN d  66      14.642  32.139  57.938  0.00  0.00     0.147 C 
ATOM     14  O3S SGN d  66      14.066  29.168  58.010  0.00  0.00    -0.296 OA
ATOM     15  C3  SGN d  66      14.699  32.839  55.520  0.00  0.00     0.083 C 
ATOM     16  O3  SGN d  66      13.870  33.029  54.375  0.00  0.00    -0.391 OA
ATOM     17  C2  SGN d  66      13.816  32.293  56.646  0.00  0.00     0.081 C 
ATOM     18  O4S SGN d  66      15.167  37.533  55.575  0.00  0.00    -0.572 OA
ATOM     19  N   SGN d  66      13.264  31.004  56.207  0.00  0.00    -0.210 NA
ATOM     20  O6  SGN d  66      15.434  36.355  57.953  0.00  0.00    -0.254 OA
ATOM     21  H   SGN d  66      14.452  34.856  56.091  0.00  0.00     0.091 H 
ATOM     22  H   SGN d  66      17.192  35.852  57.000  0.00  0.00     0.080 H 
ATOM     23  H   SGN d  66      17.067  35.332  58.674  0.00  0.00     0.080 H 
ATOM     24  H   SGN d  66      11.158  30.563  57.843  0.00  0.00     0.231 HD
ATOM     25  H   SGN d  66      16.244  31.087  58.465  0.00  0.00     0.212 HD
ATOM     26  H   SGN d  66      16.891  33.435  57.154  0.00  0.00     0.090 H 
ATOM     27  H   SGN d  66      11.500  28.911  56.124  0.00  0.00     0.231 HD
ATOM     28  H   SGN d  66      14.061  31.768  58.756  0.00  0.00     0.131 H 
ATOM     29  H   SGN d  66      14.480  29.873  58.531  0.00  0.00     0.231 HD
ATOM     30  H   SGN d  66      15.499  32.164  55.298  0.00  0.00     0.089 H 
ATOM     31  H   SGN d  66      13.152  33.643  54.595  0.00  0.00     0.210 HD
ATOM     32  H   SGN d  66      13.013  32.970  56.858  0.00  0.00     0.076 H 
ATOM     33  H   SGN d  66      12.394  31.219  55.721  0.00  0.00     0.140 HD
ATOM     34  O61 IDS d  65      16.466  30.986  51.806  0.00  0.00    -0.646 OA
ATOM     35  O3  IDS d  65      19.953  34.783  52.997  0.00  0.00    -0.390 OA
ATOM     36  C5  IDS d  65      16.621  33.120  52.871  0.00  0.00     0.152 C 
ATOM     37  C6  IDS d  65      15.876  32.078  51.995  0.00  0.00     0.206 C 
ATOM     38  O5  IDS d  65      15.821  34.342  52.896  0.00  0.00    -0.340 OA
ATOM     39  C1  IDS d  65      16.360  35.450  53.663  0.00  0.00     0.161 C 
ATOM     40  O1S IDS d  65      21.039  37.057  54.527  0.00  0.00    -0.572 OA
ATOM     41  C4  IDS d  65      18.099  33.398  52.425  0.00  0.00     0.103 C 
ATOM     42  O4  IDS d  65      18.210  32.592  51.249  0.00  0.00    -0.348 OA
ATOM     43  C2  IDS d  65      17.889  35.358  53.950  0.00  0.00     0.134 C 
ATOM     44  O62 IDS d  65      14.726  32.358  51.540  0.00  0.00    -0.646 OA
ATOM     45  C3  IDS d  65      18.586  34.832  52.736  0.00  0.00     0.094 C 
ATOM     46  O2S IDS d  65      19.981  35.358  55.822  0.00  0.00    -0.572 OA
ATOM     47  O3S IDS d  65      19.617  37.638  56.372  0.00  0.00    -0.572 OA
ATOM     48  O2  IDS d  65      18.426  36.649  54.193  0.00  0.00    -0.244 OA
ATOM     49  S   IDS d  65      19.840  36.695  55.280  0.00  0.00     0.252 S 
ATOM     50  H   IDS d  65      20.419  34.443  52.217  0.00  0.00     0.210 HD
ATOM     51  H   IDS d  65      16.723  32.714  53.855  0.00  0.00     0.104 H 
ATOM     52  H   IDS d  65      16.009  36.384  53.278  0.00  0.00     0.133 H 
ATOM     53  H   IDS d  65      18.976  33.102  52.962  0.00  0.00     0.092 H 
ATOM     54  H   IDS d  65      18.029  34.722  54.800  0.00  0.00     0.097 H 
ATOM     55  H   IDS d  65      18.377  35.470  51.903  0.00  0.00     0.091 H 
ATOM     56  O3S SGN d  62      15.459  33.233  42.541  0.00  0.00    -0.296 OA
ATOM     57  C1  SGN d  62      18.892  33.465  42.059  0.00  0.00     0.150 C 
ATOM     58  S2  SGN d  62      24.378  34.613  40.071  0.00  0.00     0.251 S 
ATOM     59  C5  SGN d  62      20.784  33.626  40.447  0.00  0.00     0.091 C 
ATOM     60  O5  SGN d  62      19.897  34.293  41.390  0.00  0.00    -0.349 OA
ATOM     61  O4S SGN d  62      24.647  35.875  39.466  0.00  0.00    -0.572 OA
ATOM     62  O6  SGN d  62      22.879  33.959  39.456  0.00  0.00    -0.254 OA
ATOM     63  O3  SGN d  62      18.312  31.177  39.166  0.00  0.00    -0.391 OA
ATOM     64  S1  SGN d  62      15.667  31.996  41.825  0.00  0.00     0.156 S 
ATOM     65  O6S SGN d  62      24.310  34.683  41.529  0.00  0.00    -0.572 OA
ATOM     66  O4  SGN d  62      20.864  32.316  38.439  0.00  0.00    -0.348 OA
ATOM     67  C6  SGN d  62      21.720  34.661  39.868  0.00  0.00     0.067 C 
ATOM     68  O5S SGN d  62      25.394  33.661  39.712  0.00  0.00    -0.572 OA
ATOM     69  O1S SGN d  62      15.054  30.872  42.500  0.00  0.00    -0.296 OA
ATOM     70  O2S SGN d  62      15.171  32.170  40.490  0.00  0.00    -0.296 OA
ATOM     71  C2  SGN d  62      18.149  32.654  41.007  0.00  0.00     0.081 C 
ATOM     72  C4  SGN d  62      19.958  32.943  39.344  0.00  0.00     0.095 C 
ATOM     73  N   SGN d  62      17.372  31.655  41.668  0.00  0.00    -0.210 NA
ATOM     74  C3  SGN d  62      19.100  31.898  40.075  0.00  0.00     0.083 C 
ATOM     75  H   SGN d  62      15.788  33.140  43.449  0.00  0.00     0.231 HD
ATOM     76  H   SGN d  62      18.253  34.139  42.591  0.00  0.00     0.131 H 
ATOM     77  H   SGN d  62      21.356  32.868  40.940  0.00  0.00     0.090 H 
ATOM     78  H   SGN d  62      17.780  30.524  39.646  0.00  0.00     0.210 HD
ATOM     79  H   SGN d  62      21.971  35.390  40.610  0.00  0.00     0.080 H 
ATOM     80  H   SGN d  62      21.267  35.181  39.050  0.00  0.00     0.080 H 
ATOM     81  H   SGN d  62      15.419  30.794  43.396  0.00  0.00     0.231 HD
ATOM     82  H   SGN d  62      15.609  32.932  40.079  0.00  0.00     0.231 HD
ATOM     83  H   SGN d  62      17.560  33.342  40.437  0.00  0.00     0.076 H 
ATOM     84  H   SGN d  62      19.344  33.619  38.786  0.00  0.00     0.091 H 
ATOM     85  H   SGN d  62      17.470  30.785  41.145  0.00  0.00     0.140 HD
ATOM     86  H   SGN d  62      19.740  31.222  40.602  0.00  0.00     0.089 H 
ATOM     87  O4  IDS d  63      19.434  32.548  43.018  0.00  0.00    -0.348 OA
ATOM     88  O62 IDS d  63      22.338  31.843  45.177  0.00  0.00    -0.646 OA
ATOM     89  C2  IDS d  63      17.617  30.762  44.797  0.00  0.00     0.134 C 
ATOM     90  O2S IDS d  63      16.854  27.892  43.891  0.00  0.00    -0.572 OA
ATOM     91  O61 IDS d  63      21.760  33.922  45.011  0.00  0.00    -0.646 OA
ATOM     92  C3  IDS d  63      17.550  32.291  44.682  0.00  0.00     0.094 C 
ATOM     93  C1  IDS d  63      18.649  30.356  45.884  0.00  0.00     0.161 C 
ATOM     94  O5  IDS d  63      19.952  30.831  45.458  0.00  0.00    -0.340 OA
ATOM     95  C4  IDS d  63      18.991  32.865  44.331  0.00  0.00     0.103 C 
ATOM     96  C6  IDS d  63      21.484  32.731  45.147  0.00  0.00     0.206 C 
ATOM     97  S   IDS d  63      18.104  28.474  43.422  0.00  0.00     0.252 S 
ATOM     98  O3  IDS d  63      17.143  32.734  45.958  0.00  0.00    -0.390 OA
ATOM     99  C5  IDS d  63      20.030  32.312  45.344  0.00  0.00     0.152 C 
ATOM    100  O2  IDS d  63      17.912  30.228  43.534  0.00  0.00    -0.244 OA
ATOM    101  O1S IDS d  63      18.354  28.196  42.020  0.00  0.00    -0.572 OA
ATOM    102  O3S IDS d  63      19.149  27.931  44.242  0.00  0.00    -0.572 OA
ATOM    103  H   IDS d  63      16.676  30.362  45.109  0.00  0.00     0.097 H 
ATOM    104  H   IDS d  63      16.881  32.617  43.913  0.00  0.00     0.091 H 
ATOM    105  H   IDS d  63      18.742  29.301  46.038  0.00  0.00     0.133 H 
ATOM    106  H   IDS d  63      18.906  33.930  44.390  0.00  0.00     0.092 H 
ATOM    107  H   IDS d  63      17.773  32.420  46.625  0.00  0.00     0.210 HD
ATOM    108  H   IDS d  63      19.730  32.785  46.255  0.00  0.00     0.104 H 
ATOM    109  O4  SGN d  64      18.179  30.976  47.121  0.00  0.00    -0.348 OA
ATOM    110  O6  SGN d  64      17.620  28.076  50.035  0.00  0.00    -0.254 OA
ATOM    111  C3  SGN d  64      19.471  32.216  48.788  0.00  0.00     0.083 C 
ATOM    112  S2  SGN d  64      19.262  27.386  49.952  0.00  0.00     0.251 S 
ATOM    113  C5  SGN d  64      17.878  30.409  49.440  0.00  0.00     0.091 C 
ATOM    114  O1S SGN d  64      23.354  33.165  50.906  0.00  0.00    -0.296 OA
ATOM    115  C2  SGN d  64      20.190  32.047  50.090  0.00  0.00     0.081 C 
ATOM    116  O4S SGN d  64      19.421  26.781  48.655  0.00  0.00    -0.572 OA
ATOM    117  O3S SGN d  64      22.641  33.455  48.662  0.00  0.00    -0.296 OA
ATOM    118  S1  SGN d  64      22.365  33.796  50.046  0.00  0.00     0.156 S 
ATOM    119  O6S SGN d  64      20.273  28.405  50.145  0.00  0.00    -0.572 OA
ATOM    120  O5S SGN d  64      19.393  26.393  50.985  0.00  0.00    -0.572 OA
ATOM    121  O3  SGN d  64      20.413  32.662  47.880  0.00  0.00    -0.391 OA
ATOM    122  C1  SGN d  64      19.205  31.575  51.128  0.00  0.00     0.150 C 
ATOM    123  O2S SGN d  64      22.385  35.225  50.198  0.00  0.00    -0.296 OA
ATOM    124  C4  SGN d  64      18.888  30.843  48.362  0.00  0.00     0.095 C 
ATOM    125  O5  SGN d  64      18.620  30.330  50.692  0.00  0.00    -0.349 OA
ATOM    126  C6  SGN d  64      17.274  29.069  49.080  0.00  0.00     0.067 C 
ATOM    127  N   SGN d  64      20.723  33.319  50.512  0.00  0.00    -0.210 NA
ATOM    128  H   SGN d  64      18.661  32.911  48.851  0.00  0.00     0.089 H 
ATOM    129  H   SGN d  64      17.069  31.105  49.524  0.00  0.00     0.090 H 
ATOM    130  H   SGN d  64      23.321  32.204  50.786  0.00  0.00     0.231 HD
ATOM    131  H   SGN d  64      20.984  31.339  49.974  0.00  0.00     0.076 H 
ATOM    132  H   SGN d  64      22.628  32.490  48.557  0.00  0.00     0.231 HD
ATOM    133  H   SGN d  64      21.142  32.024  47.831  0.00  0.00     0.210 HD
ATOM    134  H   SGN d  64      19.674  31.405  52.075  0.00  0.00     0.131 H 
ATOM    135  H   SGN d  64      23.262  35.562  49.958  0.00  0.00     0.231 HD
ATOM    136  H   SGN d  64      19.679  30.131  48.249  0.00  0.00     0.091 H 
ATOM    137  H   SGN d  64      16.209  29.164  49.044  0.00  0.00     0.080 H 
ATOM    138  H   SGN d  64      17.658  28.770  48.127  0.00  0.00     0.080 H 
ATOM    139  H   SGN d  64      20.693  33.327  51.531  0.00  0.00     0.140 HD
ATOM    140  C1  IDS d  61      20.625  32.631  37.052  0.00  0.00     0.167 C 
ATOM    141  O5  IDS d  61      19.341  32.085  36.653  0.00  0.00    -0.311 OA
ATOM    142  C5  IDS d  61      19.208  30.723  36.414  0.00  0.00     0.147 C 
ATOM    143  C6  IDS d  61      17.755  30.189  36.109  0.00  0.00     0.233 C 
ATOM    144  C2  IDS d  61      21.711  31.956  36.223  0.00  0.00     0.135 C 
ATOM    145  O1S IDS d  61      19.196  33.379  34.575  0.00  0.00    -0.572 OA
ATOM    146  O3S IDS d  61      21.082  34.848  34.884  0.00  0.00    -0.572 OA
ATOM    147  O3  IDS d  61      22.391  30.097  37.438  0.00  0.00    -0.389 OA
ATOM    148  C4  IDS d  61      20.285  29.894  36.324  0.00  0.00    -0.034 C 
ATOM    149  C3  IDS d  61      21.677  30.430  36.301  0.00  0.00     0.086 C 
ATOM    150  O61 IDS d  61      17.584  29.000  35.837  0.00  0.00    -0.642 OA
ATOM    151  O62 IDS d  61      16.782  30.983  36.112  0.00  0.00    -0.642 OA
ATOM    152  O2S IDS d  61      20.628  33.713  32.826  0.00  0.00    -0.572 OA
ATOM    153  S   IDS d  61      20.572  33.643  34.247  0.00  0.00     0.252 S 
ATOM    154  O2  IDS d  61      21.555  32.273  34.829  0.00  0.00    -0.244 OA
ATOM    155  H   IDS d  61      20.630  33.691  36.908  0.00  0.00     0.134 H 
ATOM    156  H   IDS d  61      22.632  32.321  36.630  0.00  0.00     0.097 H 
ATOM    157  H   IDS d  61      23.286  30.466  37.378  0.00  0.00     0.210 HD
ATOM    158  H   IDS d  61      20.136  28.874  36.271  0.00  0.00     0.085 H 
ATOM    159  H   IDS d  61      22.113  29.988  35.430  0.00  0.00     0.093 H 
ENDROOT
TORSDOF 50
ENDMDL
MODEL 42
REMARK VINA RESULT:      -5.4      4.322      6.293
REMARK  0 active torsions:
REMARK  status: ('A' for Active; 'I' for Inactive)
REMARK       I    between atoms: O3S_3  and  S1_55 
REMARK       I    between atoms: O3_4  and  C3_87 
REMARK       I    between atoms: O4_5  and  C1_15 
REMARK       I    between atoms: O4_5  and  C4_57 
REMARK       I    between atoms: O4_7  and  C1_36 
REMARK       I    between atoms: O4_7  and  C4_89 
REMARK       I    between atoms: C4_8  and  O4_18 
REMARK       I    between atoms: C2_9  and  O2_84 
REMARK       I    between atoms: C6_10  and  C5_32 
REMARK       I    between atoms: C6_10  and  O6_102 
REMARK       I    between atoms: O6_11  and  C6_93 
REMARK       I    between atoms: O6_11  and  S2_25 
REMARK       I    between atoms: C1_13  and  O4_74 
REMARK       I    between atoms: C3_14  and  O3_71 
REMARK       I    between atoms: O4_18  and  C1_54 
REMARK       I    between atoms: S2_19  and  O6_39 
REMARK       I    between atoms: O2S_21  and  S1_45 
REMARK       I    between atoms: C5_22  and  C6_23 
REMARK       I    between atoms: C5_24  and  C6_77 
REMARK       I    between atoms: O1_27  and  C1_48 
REMARK       I    between atoms: C5_28  and  C6_30 
REMARK       I    between atoms: C5_29  and  C6_93 
REMARK       I    between atoms: O1S_31  and  S1_44 
REMARK       I    between atoms: C3_33  and  O3_69 
REMARK       I    between atoms: C2_37  and  N_99 
REMARK       I    between atoms: S2_38  and  O6_102 
REMARK       I    between atoms: O6_39  and  C6_77 
REMARK       I    between atoms: C2_40  and  O2_103 
REMARK       I    between atoms: O3S_42  and  S1_44 
REMARK       I    between atoms: S1_44  and  N_99 
REMARK       I    between atoms: S1_44  and  O2S_81 
REMARK       I    between atoms: S1_45  and  N_94 
REMARK       I    between atoms: S1_45  and  O1S_46 
REMARK       I    between atoms: S1_45  and  O3S_58 
REMARK       I    between atoms: O3_52  and  C3_105 
REMARK       I    between atoms: S1_55  and  N_100 
REMARK       I    between atoms: S1_55  and  O1S_79 
REMARK       I    between atoms: S1_55  and  O2S_83 
REMARK       I    between atoms: O3_56  and  C3_64 
REMARK       I    between atoms: C4_60  and  O4_61 
REMARK       I    between atoms: O4_61  and  C1_73 
REMARK       I    between atoms: C6_63  and  C5_80 
REMARK       I    between atoms: C3_65  and  O3_82 
REMARK       I    between atoms: S_67  and  O2_84 
REMARK       I    between atoms: C2_68  and  O2_98 
REMARK       I    between atoms: O4_74  and  C4_97 
REMARK       I    between atoms: C2_85  and  N_94 
REMARK       I    between atoms: C2_95  and  N_100 
REMARK       I    between atoms: O2_98  and  S_104 
REMARK       I    between atoms: S_101  and  O2_103 
ROOT
ATOM      1  O6S SGN d  66      16.905  40.840  53.623  0.00  0.00    -0.572 OA
ATOM      2  C4  SGN d  66      15.684  42.472  49.294  0.00  0.00     0.095 C 
ATOM      3  C6  SGN d  66      14.029  41.756  51.061  0.00  0.00     0.067 C 
ATOM      4  O4  SGN d  66      15.733  41.063  48.767  0.00  0.00    -0.348 OA
ATOM      5  O5S SGN d  66      15.177  39.379  52.889  0.00  0.00    -0.572 OA
ATOM      6  O2S SGN d  66      15.906  48.158  48.983  0.00  0.00    -0.296 OA
ATOM      7  O5  SGN d  66      14.264  44.138  50.408  0.00  0.00    -0.350 OA
ATOM      8  O1  SGN d  66      13.586  45.043  48.284  0.00  0.00    -0.369 OA
ATOM      9  C5  SGN d  66      14.310  42.753  49.921  0.00  0.00     0.091 C 
ATOM     10  S2  SGN d  66      16.054  40.482  52.505  0.00  0.00     0.251 S 
ATOM     11  S1  SGN d  66      15.566  47.524  47.724  0.00  0.00     0.156 S 
ATOM     12  O1S SGN d  66      16.160  48.228  46.596  0.00  0.00    -0.296 OA
ATOM     13  C1  SGN d  66      14.516  45.152  49.379  0.00  0.00     0.147 C 
ATOM     14  O3S SGN d  66      14.126  47.509  47.518  0.00  0.00    -0.296 OA
ATOM     15  C3  SGN d  66      16.020  43.507  48.207  0.00  0.00     0.083 C 
ATOM     16  O3  SGN d  66      17.364  43.312  47.769  0.00  0.00    -0.391 OA
ATOM     17  C2  SGN d  66      15.931  44.909  48.815  0.00  0.00     0.081 C 
ATOM     18  O4S SGN d  66      16.889  40.116  51.369  0.00  0.00    -0.572 OA
ATOM     19  N   SGN d  66      16.261  45.883  47.765  0.00  0.00    -0.210 NA
ATOM     20  O6  SGN d  66      15.025  41.878  52.103  0.00  0.00    -0.254 OA
ATOM     21  H   SGN d  66      16.436  42.565  50.050  0.00  0.00     0.091 H 
ATOM     22  H   SGN d  66      14.050  40.761  50.669  0.00  0.00     0.080 H 
ATOM     23  H   SGN d  66      13.067  41.972  51.477  0.00  0.00     0.080 H 
ATOM     24  H   SGN d  66      16.869  48.155  49.096  0.00  0.00     0.231 HD
ATOM     25  H   SGN d  66      12.684  45.192  48.609  0.00  0.00     0.212 HD
ATOM     26  H   SGN d  66      13.549  42.627  49.179  0.00  0.00     0.090 H 
ATOM     27  H   SGN d  66      17.123  48.256  46.704  0.00  0.00     0.231 HD
ATOM     28  H   SGN d  66      14.411  46.119  49.822  0.00  0.00     0.131 H 
ATOM     29  H   SGN d  66      13.699  47.045  48.256  0.00  0.00     0.231 HD
ATOM     30  H   SGN d  66      15.338  43.398  47.390  0.00  0.00     0.089 H 
ATOM     31  H   SGN d  66      17.967  43.414  48.521  0.00  0.00     0.210 HD
ATOM     32  H   SGN d  66      16.621  45.014  49.627  0.00  0.00     0.076 H 
ATOM     33  H   SGN d  66      17.273  46.005  47.801  0.00  0.00     0.140 HD
ATOM     34  O61 IDS d  65      16.229  41.986  43.965  0.00  0.00    -0.646 OA
ATOM     35  O3  IDS d  65      13.856  38.008  46.524  0.00  0.00    -0.390 OA
ATOM     36  C5  IDS d  65      16.083  40.969  46.123  0.00  0.00     0.152 C 
ATOM     37  C6  IDS d  65      16.878  41.679  44.996  0.00  0.00     0.206 C 
ATOM     38  O5  IDS d  65      17.024  40.618  47.184  0.00  0.00    -0.340 OA
ATOM     39  C1  IDS d  65      16.469  39.929  48.335  0.00  0.00     0.161 C 
ATOM     40  O1S IDS d  65      12.759  36.585  48.861  0.00  0.00    -0.572 OA
ATOM     41  C4  IDS d  65      15.253  39.726  45.643  0.00  0.00     0.103 C 
ATOM     42  O4  IDS d  65      15.611  39.648  44.261  0.00  0.00    -0.348 OA
ATOM     43  C2  IDS d  65      15.088  39.253  48.084  0.00  0.00     0.134 C 
ATOM     44  O62 IDS d  65      18.108  41.933  45.168  0.00  0.00    -0.646 OA
ATOM     45  C3  IDS d  65      15.084  38.633  46.723  0.00  0.00     0.094 C 
ATOM     46  O2S IDS d  65      12.400  38.942  48.831  0.00  0.00    -0.572 OA
ATOM     47  O3S IDS d  65      12.990  37.880  50.870  0.00  0.00    -0.572 OA
ATOM     48  O2  IDS d  65      14.880  38.194  49.006  0.00  0.00    -0.244 OA
ATOM     49  S   IDS d  65      13.175  37.870  49.422  0.00  0.00     0.252 S 
ATOM     50  H   IDS d  65      13.839  37.602  45.644  0.00  0.00     0.210 HD
ATOM     51  H   IDS d  65      15.341  41.648  46.485  0.00  0.00     0.104 H 
ATOM     52  H   IDS d  65      17.212  39.320  48.807  0.00  0.00     0.133 H 
ATOM     53  H   IDS d  65      14.186  39.678  45.584  0.00  0.00     0.092 H 
ATOM     54  H   IDS d  65      14.330  40.001  48.187  0.00  0.00     0.097 H 
ATOM     55  H   IDS d  65      15.888  37.931  46.651  0.00  0.00     0.091 H 
ATOM     56  O3S SGN d  62      22.832  36.674  39.484  0.00  0.00    -0.296 OA
ATOM     57  C1  SGN d  62      20.482  34.329  38.458  0.00  0.00     0.150 C 
ATOM     58  S2  SGN d  62      17.620  29.486  36.530  0.00  0.00     0.251 S 
ATOM     59  C5  SGN d  62      19.952  32.379  37.003  0.00  0.00     0.091 C 
ATOM     60  O5  SGN d  62      20.295  32.884  38.325  0.00  0.00    -0.349 OA
ATOM     61  O4S SGN d  62      18.090  28.199  36.925  0.00  0.00    -0.572 OA
ATOM     62  O6  SGN d  62      18.961  30.490  36.036  0.00  0.00    -0.254 OA
ATOM     63  O3  SGN d  62      21.946  34.828  35.060  0.00  0.00    -0.391 OA
ATOM     64  S1  SGN d  62      22.738  37.046  38.091  0.00  0.00     0.156 S 
ATOM     65  O6S SGN d  62      16.872  30.167  37.584  0.00  0.00    -0.572 OA
ATOM     66  O4  SGN d  62      20.666  32.263  34.715  0.00  0.00    -0.348 OA
ATOM     67  C6  SGN d  62      19.825  30.876  37.090  0.00  0.00     0.067 C 
ATOM     68  O5S SGN d  62      16.771  29.375  35.375  0.00  0.00    -0.572 OA
ATOM     69  O1S SGN d  62      22.535  38.470  37.926  0.00  0.00    -0.296 OA
ATOM     70  O2S SGN d  62      23.924  36.582  37.430  0.00  0.00    -0.296 OA
ATOM     71  C2  SGN d  62      21.436  34.801  37.369  0.00  0.00     0.081 C 
ATOM     72  C4  SGN d  62      21.034  32.787  35.989  0.00  0.00     0.095 C 
ATOM     73  N   SGN d  62      21.402  36.228  37.323  0.00  0.00    -0.210 NA
ATOM     74  C3  SGN d  62      21.012  34.324  35.977  0.00  0.00     0.083 C 
ATOM     75  H   SGN d  62      22.039  36.978  39.953  0.00  0.00     0.231 HD
ATOM     76  H   SGN d  62      20.863  34.493  39.444  0.00  0.00     0.131 H 
ATOM     77  H   SGN d  62      19.024  32.793  36.670  0.00  0.00     0.090 H 
ATOM     78  H   SGN d  62      21.916  35.797  35.067  0.00  0.00     0.210 HD
ATOM     79  H   SGN d  62      19.408  30.594  38.034  0.00  0.00     0.080 H 
ATOM     80  H   SGN d  62      20.779  30.399  37.007  0.00  0.00     0.080 H 
ATOM     81  H   SGN d  62      21.725  38.738  38.388  0.00  0.00     0.231 HD
ATOM     82  H   SGN d  62      24.018  35.627  37.568  0.00  0.00     0.231 HD
ATOM     83  H   SGN d  62      22.402  34.406  37.606  0.00  0.00     0.076 H 
ATOM     84  H   SGN d  62      22.011  32.421  36.231  0.00  0.00     0.091 H 
ATOM     85  H   SGN d  62      21.386  36.508  36.342  0.00  0.00     0.140 HD
ATOM     86  H   SGN d  62      20.033  34.662  35.708  0.00  0.00     0.089 H 
ATOM     87  O4  IDS d  63      19.272  35.089  38.339  0.00  0.00    -0.348 OA
ATOM     88  O62 IDS d  63      15.597  34.923  38.591  0.00  0.00    -0.646 OA
ATOM     89  C2  IDS d  63      19.210  38.165  38.768  0.00  0.00     0.134 C 
ATOM     90  O2S IDS d  63      19.543  40.100  36.361  0.00  0.00    -0.572 OA
ATOM     91  O61 IDS d  63      16.703  33.780  40.059  0.00  0.00    -0.646 OA
ATOM     92  C3  IDS d  63      19.739  37.123  39.762  0.00  0.00     0.094 C 
ATOM     93  C1  IDS d  63      17.682  38.363  38.966  0.00  0.00     0.161 C 
ATOM     94  O5  IDS d  63      17.032  37.098  38.679  0.00  0.00    -0.340 OA
ATOM     95  C4  IDS d  63      18.965  35.750  39.560  0.00  0.00     0.103 C 
ATOM     96  C6  IDS d  63      16.520  34.801  39.398  0.00  0.00     0.206 C 
ATOM     97  S   IDS d  63      18.986  38.773  36.132  0.00  0.00     0.252 S 
ATOM     98  O3  IDS d  63      19.459  37.662  41.035  0.00  0.00    -0.390 OA
ATOM     99  C5  IDS d  63      17.434  36.006  39.606  0.00  0.00     0.152 C 
ATOM    100  O2  IDS d  63      19.546  37.758  37.468  0.00  0.00    -0.244 OA
ATOM    101  O1S IDS d  63      19.505  38.154  34.926  0.00  0.00    -0.572 OA
ATOM    102  O3S IDS d  63      17.562  38.928  36.053  0.00  0.00    -0.572 OA
ATOM    103  H   IDS d  63      19.663  39.120  38.938  0.00  0.00     0.097 H 
ATOM    104  H   IDS d  63      20.782  36.924  39.633  0.00  0.00     0.091 H 
ATOM    105  H   IDS d  63      17.239  39.090  38.318  0.00  0.00     0.133 H 
ATOM    106  H   IDS d  63      19.285  35.111  40.357  0.00  0.00     0.092 H 
ATOM    107  H   IDS d  63      18.507  37.828  41.114  0.00  0.00     0.210 HD
ATOM    108  H   IDS d  63      17.283  36.290  40.626  0.00  0.00     0.104 H 
ATOM    109  O4  SGN d  64      17.522  38.799  40.351  0.00  0.00    -0.348 OA
ATOM    110  O6  SGN d  64      15.539  42.442  40.465  0.00  0.00    -0.254 OA
ATOM    111  C3  SGN d  64      15.908  38.017  42.015  0.00  0.00     0.083 C 
ATOM    112  S2  SGN d  64      14.115  41.928  39.522  0.00  0.00     0.251 S 
ATOM    113  C5  SGN d  64      16.300  40.448  41.609  0.00  0.00     0.091 C 
ATOM    114  O1S SGN d  64      11.938  36.163  43.138  0.00  0.00    -0.296 OA
ATOM    115  C2  SGN d  64      14.568  38.335  42.603  0.00  0.00     0.081 C 
ATOM    116  O4S SGN d  64      14.558  41.630  38.184  0.00  0.00    -0.572 OA
ATOM    117  O3S SGN d  64      13.835  35.315  41.993  0.00  0.00    -0.296 OA
ATOM    118  S1  SGN d  64      13.364  35.899  43.237  0.00  0.00     0.156 S 
ATOM    119  O6S SGN d  64      13.492  40.758  40.104  0.00  0.00    -0.572 OA
ATOM    120  O5S SGN d  64      13.165  43.008  39.504  0.00  0.00    -0.572 OA
ATOM    121  O3  SGN d  64      15.803  36.751  41.472  0.00  0.00    -0.391 OA
ATOM    122  C1  SGN d  64      14.627  39.705  43.228  0.00  0.00     0.150 C 
ATOM    123  O2S SGN d  64      13.648  35.000  44.322  0.00  0.00    -0.296 OA
ATOM    124  C4  SGN d  64      16.234  39.070  40.924  0.00  0.00     0.095 C 
ATOM    125  O5  SGN d  64      14.994  40.669  42.218  0.00  0.00    -0.349 OA
ATOM    126  C6  SGN d  64      16.614  41.522  40.589  0.00  0.00     0.067 C 
ATOM    127  N   SGN d  64      14.257  37.376  43.634  0.00  0.00    -0.210 NA
ATOM    128  H   SGN d  64      16.694  38.043  42.742  0.00  0.00     0.089 H 
ATOM    129  H   SGN d  64      17.073  40.483  42.349  0.00  0.00     0.090 H 
ATOM    130  H   SGN d  64      11.772  36.770  42.400  0.00  0.00     0.231 HD
ATOM    131  H   SGN d  64      13.822  38.302  41.837  0.00  0.00     0.076 H 
ATOM    132  H   SGN d  64      13.644  35.921  41.259  0.00  0.00     0.231 HD
ATOM    133  H   SGN d  64      15.088  36.739  40.816  0.00  0.00     0.210 HD
ATOM    134  H   SGN d  64      13.683  39.999  43.635  0.00  0.00     0.131 H 
ATOM    135  H   SGN d  64      13.188  34.159  44.173  0.00  0.00     0.231 HD
ATOM    136  H   SGN d  64      15.487  39.043  40.158  0.00  0.00     0.091 H 
ATOM    137  H   SGN d  64      17.491  42.050  40.897  0.00  0.00     0.080 H 
ATOM    138  H   SGN d  64      16.769  41.052  39.640  0.00  0.00     0.080 H 
ATOM    139  H   SGN d  64      13.709  37.870  44.339  0.00  0.00     0.140 HD
ATOM    140  C1  IDS d  61      21.718  31.533  34.052  0.00  0.00     0.167 C 
ATOM    141  O5  IDS d  61      22.799  32.444  33.724  0.00  0.00    -0.311 OA
ATOM    142  C5  IDS d  61      22.671  33.320  32.655  0.00  0.00     0.147 C 
ATOM    143  C6  IDS d  61      23.834  34.365  32.442  0.00  0.00     0.233 C 
ATOM    144  C2  IDS d  61      21.153  30.973  32.751  0.00  0.00     0.135 C 
ATOM    145  O1S IDS d  61      24.430  30.677  33.245  0.00  0.00    -0.572 OA
ATOM    146  O3S IDS d  61      23.177  28.759  33.997  0.00  0.00    -0.572 OA
ATOM    147  O3  IDS d  61      19.437  32.407  32.122  0.00  0.00    -0.389 OA
ATOM    148  C4  IDS d  61      21.656  33.219  31.751  0.00  0.00    -0.034 C 
ATOM    149  C3  IDS d  61      20.725  32.054  31.758  0.00  0.00     0.086 C 
ATOM    150  O61 IDS d  61      23.801  35.132  31.479  0.00  0.00    -0.642 OA
ATOM    151  O62 IDS d  61      24.807  34.389  33.236  0.00  0.00    -0.642 OA
ATOM    152  O2S IDS d  61      24.384  28.808  31.931  0.00  0.00    -0.572 OA
ATOM    153  S   IDS d  61      23.610  29.558  32.860  0.00  0.00     0.252 S 
ATOM    154  O2  IDS d  61      22.145  30.191  32.063  0.00  0.00    -0.244 OA
ATOM    155  H   IDS d  61      22.081  30.750  34.685  0.00  0.00     0.134 H 
ATOM    156  H   IDS d  61      20.303  30.395  33.049  0.00  0.00     0.097 H 
ATOM    157  H   IDS d  61      18.871  31.619  32.112  0.00  0.00     0.210 HD
ATOM    158  H   IDS d  61      21.528  33.964  31.048  0.00  0.00     0.085 H 
ATOM    159  H   IDS d  61      20.755  31.690  30.753  0.00  0.00     0.093 H 
ENDROOT
TORSDOF 50
ENDMDL
MODEL 43
REMARK VINA RESULT:      -5.4      3.188      6.656
REMARK  0 active torsions:
REMARK  status: ('A' for Active; 'I' for Inactive)
REMARK       I    between atoms: O3S_3  and  S1_55 
REMARK       I    between atoms: O3_4  and  C3_87 
REMARK       I    between atoms: O4_5  and  C1_15 
REMARK       I    between atoms: O4_5  and  C4_57 
REMARK       I    between atoms: O4_7  and  C1_36 
REMARK       I    between atoms: O4_7  and  C4_89 
REMARK       I    between atoms: C4_8  and  O4_18 
REMARK       I    between atoms: C2_9  and  O2_84 
REMARK       I    between atoms: C6_10  and  C5_32 
REMARK       I    between atoms: C6_10  and  O6_102 
REMARK       I    between atoms: O6_11  and  C6_93 
REMARK       I    between atoms: O6_11  and  S2_25 
REMARK       I    between atoms: C1_13  and  O4_74 
REMARK       I    between atoms: C3_14  and  O3_71 
REMARK       I    between atoms: O4_18  and  C1_54 
REMARK       I    between atoms: S2_19  and  O6_39 
REMARK       I    between atoms: O2S_21  and  S1_45 
REMARK       I    between atoms: C5_22  and  C6_23 
REMARK       I    between atoms: C5_24  and  C6_77 
REMARK       I    between atoms: O1_27  and  C1_48 
REMARK       I    between atoms: C5_28  and  C6_30 
REMARK       I    between atoms: C5_29  and  C6_93 
REMARK       I    between atoms: O1S_31  and  S1_44 
REMARK       I    between atoms: C3_33  and  O3_69 
REMARK       I    between atoms: C2_37  and  N_99 
REMARK       I    between atoms: S2_38  and  O6_102 
REMARK       I    between atoms: O6_39  and  C6_77 
REMARK       I    between atoms: C2_40  and  O2_103 
REMARK       I    between atoms: O3S_42  and  S1_44 
REMARK       I    between atoms: S1_44  and  N_99 
REMARK       I    between atoms: S1_44  and  O2S_81 
REMARK       I    between atoms: S1_45  and  N_94 
REMARK       I    between atoms: S1_45  and  O1S_46 
REMARK       I    between atoms: S1_45  and  O3S_58 
REMARK       I    between atoms: O3_52  and  C3_105 
REMARK       I    between atoms: S1_55  and  N_100 
REMARK       I    between atoms: S1_55  and  O1S_79 
REMARK       I    between atoms: S1_55  and  O2S_83 
REMARK       I    between atoms: O3_56  and  C3_64 
REMARK       I    between atoms: C4_60  and  O4_61 
REMARK       I    between atoms: O4_61  and  C1_73 
REMARK       I    between atoms: C6_63  and  C5_80 
REMARK       I    between atoms: C3_65  and  O3_82 
REMARK       I    between atoms: S_67  and  O2_84 
REMARK       I    between atoms: C2_68  and  O2_98 
REMARK       I    between atoms: O4_74  and  C4_97 
REMARK       I    between atoms: C2_85  and  N_94 
REMARK       I    between atoms: C2_95  and  N_100 
REMARK       I    between atoms: O2_98  and  S_104 
REMARK       I    between atoms: S_101  and  O2_103 
ROOT
ATOM      1  O6S SGN d  66      14.904  29.910  53.766  0.00  0.00    -0.572 OA
ATOM      2  C4  SGN d  66      17.216  33.648  51.874  0.00  0.00     0.095 C 
ATOM      3  C6  SGN d  66      14.896  33.764  52.862  0.00  0.00     0.067 C 
ATOM      4  O4  SGN d  66      16.629  33.310  50.531  0.00  0.00    -0.348 OA
ATOM      5  O5S SGN d  66      13.273  31.025  52.442  0.00  0.00    -0.572 OA
ATOM      6  O2S SGN d  66      21.012  35.895  55.482  0.00  0.00    -0.296 OA
ATOM      7  O5  SGN d  66      16.824  34.855  53.977  0.00  0.00    -0.350 OA
ATOM      8  O1  SGN d  66      17.973  36.792  53.129  0.00  0.00    -0.369 OA
ATOM      9  C5  SGN d  66      16.231  34.510  52.679  0.00  0.00     0.091 C 
ATOM     10  S2  SGN d  66      14.685  30.978  52.811  0.00  0.00     0.251 S 
ATOM     11  S1  SGN d  66      21.010  36.529  54.179  0.00  0.00     0.156 S 
ATOM     12  O1S SGN d  66      22.354  36.911  53.769  0.00  0.00    -0.296 OA
ATOM     13  C1  SGN d  66      18.099  35.575  53.890  0.00  0.00     0.147 C 
ATOM     14  O3S SGN d  66      20.198  37.736  54.185  0.00  0.00    -0.296 OA
ATOM     15  C3  SGN d  66      18.584  34.339  51.750  0.00  0.00     0.083 C 
ATOM     16  O3  SGN d  66      19.514  33.442  51.145  0.00  0.00    -0.391 OA
ATOM     17  C2  SGN d  66      19.104  34.665  53.153  0.00  0.00     0.081 C 
ATOM     18  O4S SGN d  66      15.524  30.751  51.642  0.00  0.00    -0.572 OA
ATOM     19  N   SGN d  66      20.413  35.319  53.014  0.00  0.00    -0.210 NA
ATOM     20  O6  SGN d  66      15.095  32.527  53.585  0.00  0.00    -0.254 OA
ATOM     21  H   SGN d  66      17.382  32.730  52.399  0.00  0.00     0.091 H 
ATOM     22  H   SGN d  66      14.482  33.545  51.900  0.00  0.00     0.080 H 
ATOM     23  H   SGN d  66      14.228  34.386  53.421  0.00  0.00     0.080 H 
ATOM     24  H   SGN d  66      21.559  35.095  55.451  0.00  0.00     0.231 HD
ATOM     25  H   SGN d  66      17.346  37.386  53.571  0.00  0.00     0.212 HD
ATOM     26  H   SGN d  66      16.031  35.415  52.144  0.00  0.00     0.090 H 
ATOM     27  H   SGN d  66      22.923  36.125  53.755  0.00  0.00     0.231 HD
ATOM     28  H   SGN d  66      18.418  35.821  54.881  0.00  0.00     0.131 H 
ATOM     29  H   SGN d  66      19.293  37.516  54.455  0.00  0.00     0.231 HD
ATOM     30  H   SGN d  66      18.481  35.227  51.163  0.00  0.00     0.089 H 
ATOM     31  H   SGN d  66      19.594  32.644  51.690  0.00  0.00     0.210 HD
ATOM     32  H   SGN d  66      19.212  33.772  53.733  0.00  0.00     0.076 H 
ATOM     33  H   SGN d  66      21.104  34.569  53.006  0.00  0.00     0.140 HD
ATOM     34  O61 IDS d  65      19.802  35.675  47.617  0.00  0.00    -0.646 OA
ATOM     35  O3  IDS d  65      14.642  34.654  47.048  0.00  0.00    -0.390 OA
ATOM     36  C5  IDS d  65      18.053  34.313  48.509  0.00  0.00     0.152 C 
ATOM     37  C6  IDS d  65      19.527  34.541  48.081  0.00  0.00     0.206 C 
ATOM     38  O5  IDS d  65      17.917  32.921  48.931  0.00  0.00    -0.340 OA
ATOM     39  C1  IDS d  65      16.596  32.504  49.363  0.00  0.00     0.161 C 
ATOM     40  O1S IDS d  65      11.961  33.775  47.904  0.00  0.00    -0.572 OA
ATOM     41  C4  IDS d  65      16.997  34.696  47.414  0.00  0.00     0.103 C 
ATOM     42  O4  IDS d  65      17.832  35.074  46.317  0.00  0.00    -0.348 OA
ATOM     43  C2  IDS d  65      15.435  33.425  48.882  0.00  0.00     0.134 C 
ATOM     44  O62 IDS d  65      20.370  33.607  48.236  0.00  0.00    -0.646 OA
ATOM     45  C3  IDS d  65      15.700  33.856  47.474  0.00  0.00     0.094 C 
ATOM     46  O2S IDS d  65      13.206  35.006  49.523  0.00  0.00    -0.572 OA
ATOM     47  O3S IDS d  65      11.945  33.117  50.213  0.00  0.00    -0.572 OA
ATOM     48  O2  IDS d  65      14.211  32.707  48.856  0.00  0.00    -0.244 OA
ATOM     49  S   IDS d  65      12.746  33.687  49.134  0.00  0.00     0.252 S 
ATOM     50  H   IDS d  65      14.801  34.942  46.135  0.00  0.00     0.210 HD
ATOM     51  H   IDS d  65      17.835  34.977  49.318  0.00  0.00     0.104 H 
ATOM     52  H   IDS d  65      16.459  31.454  49.206  0.00  0.00     0.133 H 
ATOM     53  H   IDS d  65      16.328  35.530  47.461  0.00  0.00     0.092 H 
ATOM     54  H   IDS d  65      15.373  34.257  49.551  0.00  0.00     0.097 H 
ATOM     55  H   IDS d  65      15.804  32.992  46.852  0.00  0.00     0.091 H 
ATOM     56  O3S SGN d  62      22.794  30.684  39.998  0.00  0.00    -0.296 OA
ATOM     57  C1  SGN d  62      20.368  32.073  37.935  0.00  0.00     0.150 C 
ATOM     58  S2  SGN d  62      16.511  33.308  33.580  0.00  0.00     0.251 S 
ATOM     59  C5  SGN d  62      19.529  32.426  35.617  0.00  0.00     0.091 C 
ATOM     60  O5  SGN d  62      19.423  31.707  36.879  0.00  0.00    -0.349 OA
ATOM     61  O4S SGN d  62      15.823  32.237  32.939  0.00  0.00    -0.572 OA
ATOM     62  O6  SGN d  62      18.205  32.917  33.749  0.00  0.00    -0.254 OA
ATOM     63  O3  SGN d  62      23.215  32.826  35.639  0.00  0.00    -0.391 OA
ATOM     64  S1  SGN d  62      23.631  31.595  39.252  0.00  0.00     0.156 S 
ATOM     65  O6S SGN d  62      15.960  33.634  34.894  0.00  0.00    -0.572 OA
ATOM     66  O4  SGN d  62      20.997  32.963  33.797  0.00  0.00    -0.348 OA
ATOM     67  C6  SGN d  62      18.480  31.882  34.676  0.00  0.00     0.067 C 
ATOM     68  O5S SGN d  62      16.464  34.491  32.765  0.00  0.00    -0.572 OA
ATOM     69  O1S SGN d  62      24.462  32.401  40.122  0.00  0.00    -0.296 OA
ATOM     70  O2S SGN d  62      24.402  30.823  38.320  0.00  0.00    -0.296 OA
ATOM     71  C2  SGN d  62      21.776  32.064  37.355  0.00  0.00     0.081 C 
ATOM     72  C4  SGN d  62      20.942  32.256  35.034  0.00  0.00     0.095 C 
ATOM     73  N   SGN d  62      22.658  32.681  38.294  0.00  0.00    -0.210 NA
ATOM     74  C3  SGN d  62      21.882  32.891  36.070  0.00  0.00     0.083 C 
ATOM     75  H   SGN d  62      22.262  31.184  40.637  0.00  0.00     0.231 HD
ATOM     76  H   SGN d  62      20.237  31.355  38.717  0.00  0.00     0.131 H 
ATOM     77  H   SGN d  62      19.363  33.473  35.764  0.00  0.00     0.090 H 
ATOM     78  H   SGN d  62      23.791  33.231  36.306  0.00  0.00     0.210 HD
ATOM     79  H   SGN d  62      17.594  31.624  35.217  0.00  0.00     0.080 H 
ATOM     80  H   SGN d  62      18.822  30.997  34.181  0.00  0.00     0.080 H 
ATOM     81  H   SGN d  62      23.899  32.904  40.732  0.00  0.00     0.231 HD
ATOM     82  H   SGN d  62      23.805  30.301  37.761  0.00  0.00     0.231 HD
ATOM     83  H   SGN d  62      22.023  31.044  37.147  0.00  0.00     0.076 H 
ATOM     84  H   SGN d  62      21.211  31.236  34.848  0.00  0.00     0.091 H 
ATOM     85  H   SGN d  62      23.289  33.292  37.774  0.00  0.00     0.140 HD
ATOM     86  H   SGN d  62      21.607  33.914  36.217  0.00  0.00     0.089 H 
ATOM     87  O4  IDS d  63      20.137  33.368  38.504  0.00  0.00    -0.348 OA
ATOM     88  O62 IDS d  63      17.617  36.014  38.999  0.00  0.00    -0.646 OA
ATOM     89  C2  IDS d  63      21.792  34.428  40.910  0.00  0.00     0.134 C 
ATOM     90  O2S IDS d  63      24.344  36.135  40.439  0.00  0.00    -0.572 OA
ATOM     91  O61 IDS d  63      16.901  33.977  39.160  0.00  0.00    -0.646 OA
ATOM     92  C3  IDS d  63      21.005  33.112  40.863  0.00  0.00     0.094 C 
ATOM     93  C1  IDS d  63      20.864  35.588  41.364  0.00  0.00     0.161 C 
ATOM     94  O5  IDS d  63      19.814  35.729  40.373  0.00  0.00    -0.340 OA
ATOM     95  C4  IDS d  63      19.769  33.263  39.874  0.00  0.00     0.103 C 
ATOM     96  C6  IDS d  63      17.733  34.852  39.394  0.00  0.00     0.206 C 
ATOM     97  S   IDS d  63      23.286  36.150  39.436  0.00  0.00     0.252 S 
ATOM     98  O3  IDS d  63      20.554  32.912  42.184  0.00  0.00    -0.390 OA
ATOM     99  C5  IDS d  63      18.949  34.524  40.257  0.00  0.00     0.152 C 
ATOM    100  O2  IDS d  63      22.372  34.651  39.652  0.00  0.00    -0.244 OA
ATOM    101  O1S IDS d  63      23.804  36.100  38.082  0.00  0.00    -0.572 OA
ATOM    102  O3S IDS d  63      22.530  37.350  39.648  0.00  0.00    -0.572 OA
ATOM    103  H   IDS d  63      22.583  34.375  41.629  0.00  0.00     0.097 H 
ATOM    104  H   IDS d  63      21.596  32.292  40.513  0.00  0.00     0.091 H 
ATOM    105  H   IDS d  63      21.345  36.541  41.439  0.00  0.00     0.133 H 
ATOM    106  H   IDS d  63      19.195  32.367  39.981  0.00  0.00     0.092 H 
ATOM    107  H   IDS d  63      20.023  33.674  42.464  0.00  0.00     0.210 HD
ATOM    108  H   IDS d  63      18.543  34.248  41.208  0.00  0.00     0.104 H 
ATOM    109  O4  SGN d  64      20.371  35.199  42.684  0.00  0.00    -0.348 OA
ATOM    110  O6  SGN d  64      21.325  38.124  45.468  0.00  0.00    -0.254 OA
ATOM    111  C3  SGN d  64      18.085  35.308  43.546  0.00  0.00     0.083 C 
ATOM    112  S2  SGN d  64      20.568  39.486  44.599  0.00  0.00     0.251 S 
ATOM    113  C5  SGN d  64      20.024  36.175  44.856  0.00  0.00     0.091 C 
ATOM    114  O1S SGN d  64      13.922  37.078  43.561  0.00  0.00    -0.296 OA
ATOM    115  C2  SGN d  64      17.162  36.178  44.343  0.00  0.00     0.081 C 
ATOM    116  O4S SGN d  64      21.300  39.688  43.376  0.00  0.00    -0.572 OA
ATOM    117  O3S SGN d  64      15.132  35.843  41.937  0.00  0.00    -0.296 OA
ATOM    118  S1  SGN d  64      14.603  35.822  43.289  0.00  0.00     0.156 S 
ATOM    119  O6S SGN d  64      19.178  39.212  44.299  0.00  0.00    -0.572 OA
ATOM    120  O5S SGN d  64      20.649  40.658  45.429  0.00  0.00    -0.572 OA
ATOM    121  O3  SGN d  64      17.497  35.155  42.306  0.00  0.00    -0.391 OA
ATOM    122  C1  SGN d  64      17.746  36.368  45.719  0.00  0.00     0.150 C 
ATOM    123  O2S SGN d  64      13.707  34.708  43.433  0.00  0.00    -0.296 OA
ATOM    124  C4  SGN d  64      19.459  36.017  43.432  0.00  0.00     0.095 C 
ATOM    125  O5  SGN d  64      19.053  36.969  45.598  0.00  0.00    -0.349 OA
ATOM    126  C6  SGN d  64      21.370  36.867  44.809  0.00  0.00     0.067 C 
ATOM    127  N   SGN d  64      15.883  35.525  44.477  0.00  0.00    -0.210 NA
ATOM    128  H   SGN d  64      18.245  34.352  44.000  0.00  0.00     0.089 H 
ATOM    129  H   SGN d  64      20.175  35.226  45.327  0.00  0.00     0.090 H 
ATOM    130  H   SGN d  64      14.545  37.813  43.457  0.00  0.00     0.231 HD
ATOM    131  H   SGN d  64      17.041  37.120  43.852  0.00  0.00     0.076 H 
ATOM    132  H   SGN d  64      15.736  36.595  41.837  0.00  0.00     0.231 HD
ATOM    133  H   SGN d  64      17.356  36.026  41.904  0.00  0.00     0.210 HD
ATOM    134  H   SGN d  64      17.142  37.012  46.323  0.00  0.00     0.131 H 
ATOM    135  H   SGN d  64      12.972  34.802  42.808  0.00  0.00     0.231 HD
ATOM    136  H   SGN d  64      19.341  36.962  42.944  0.00  0.00     0.091 H 
ATOM    137  H   SGN d  64      22.097  36.247  45.289  0.00  0.00     0.080 H 
ATOM    138  H   SGN d  64      21.630  37.030  43.784  0.00  0.00     0.080 H 
ATOM    139  H   SGN d  64      15.509  35.795  45.386  0.00  0.00     0.140 HD
ATOM    140  C1  IDS d  61      21.521  32.189  32.699  0.00  0.00     0.167 C 
ATOM    141  O5  IDS d  61      22.916  31.880  32.954  0.00  0.00    -0.311 OA
ATOM    142  C5  IDS d  61      23.887  32.858  32.788  0.00  0.00     0.147 C 
ATOM    143  C6  IDS d  61      25.360  32.482  33.209  0.00  0.00     0.233 C 
ATOM    144  C2  IDS d  61      21.444  33.046  31.440  0.00  0.00     0.135 C 
ATOM    145  O1S IDS d  61      23.073  30.155  31.218  0.00  0.00    -0.572 OA
ATOM    146  O3S IDS d  61      20.748  29.985  30.608  0.00  0.00    -0.572 OA
ATOM    147  O3  IDS d  61      21.556  35.254  32.155  0.00  0.00    -0.389 OA
ATOM    148  C4  IDS d  61      23.622  34.049  32.182  0.00  0.00    -0.034 C 
ATOM    149  C3  IDS d  61      22.317  34.299  31.503  0.00  0.00     0.086 C 
ATOM    150  O61 IDS d  61      26.273  33.290  33.034  0.00  0.00    -0.642 OA
ATOM    151  O62 IDS d  61      25.605  31.347  33.688  0.00  0.00    -0.642 OA
ATOM    152  O2S IDS d  61      22.519  30.097  29.003  0.00  0.00    -0.572 OA
ATOM    153  S   IDS d  61      22.054  30.533  30.275  0.00  0.00     0.252 S 
ATOM    154  O2  IDS d  61      21.910  32.310  30.296  0.00  0.00    -0.244 OA
ATOM    155  H   IDS d  61      20.962  31.283  32.584  0.00  0.00     0.134 H 
ATOM    156  H   IDS d  61      20.413  33.325  31.362  0.00  0.00     0.097 H 
ATOM    157  H   IDS d  61      20.721  35.382  31.678  0.00  0.00     0.210 HD
ATOM    158  H   IDS d  61      24.337  34.793  32.192  0.00  0.00     0.085 H 
ATOM    159  H   IDS d  61      22.591  34.629  30.524  0.00  0.00     0.093 H 
ENDROOT
TORSDOF 50
ENDMDL
MODEL 44
REMARK VINA RESULT:      -5.4      3.528      5.941
REMARK  0 active torsions:
REMARK  status: ('A' for Active; 'I' for Inactive)
REMARK       I    between atoms: O3S_3  and  S1_55 
REMARK       I    between atoms: O3_4  and  C3_87 
REMARK       I    between atoms: O4_5  and  C1_15 
REMARK       I    between atoms: O4_5  and  C4_57 
REMARK       I    between atoms: O4_7  and  C1_36 
REMARK       I    between atoms: O4_7  and  C4_89 
REMARK       I    between atoms: C4_8  and  O4_18 
REMARK       I    between atoms: C2_9  and  O2_84 
REMARK       I    between atoms: C6_10  and  C5_32 
REMARK       I    between atoms: C6_10  and  O6_102 
REMARK       I    between atoms: O6_11  and  C6_93 
REMARK       I    between atoms: O6_11  and  S2_25 
REMARK       I    between atoms: C1_13  and  O4_74 
REMARK       I    between atoms: C3_14  and  O3_71 
REMARK       I    between atoms: O4_18  and  C1_54 
REMARK       I    between atoms: S2_19  and  O6_39 
REMARK       I    between atoms: O2S_21  and  S1_45 
REMARK       I    between atoms: C5_22  and  C6_23 
REMARK       I    between atoms: C5_24  and  C6_77 
REMARK       I    between atoms: O1_27  and  C1_48 
REMARK       I    between atoms: C5_28  and  C6_30 
REMARK       I    between atoms: C5_29  and  C6_93 
REMARK       I    between atoms: O1S_31  and  S1_44 
REMARK       I    between atoms: C3_33  and  O3_69 
REMARK       I    between atoms: C2_37  and  N_99 
REMARK       I    between atoms: S2_38  and  O6_102 
REMARK       I    between atoms: O6_39  and  C6_77 
REMARK       I    between atoms: C2_40  and  O2_103 
REMARK       I    between atoms: O3S_42  and  S1_44 
REMARK       I    between atoms: S1_44  and  N_99 
REMARK       I    between atoms: S1_44  and  O2S_81 
REMARK       I    between atoms: S1_45  and  N_94 
REMARK       I    between atoms: S1_45  and  O1S_46 
REMARK       I    between atoms: S1_45  and  O3S_58 
REMARK       I    between atoms: O3_52  and  C3_105 
REMARK       I    between atoms: S1_55  and  N_100 
REMARK       I    between atoms: S1_55  and  O1S_79 
REMARK       I    between atoms: S1_55  and  O2S_83 
REMARK       I    between atoms: O3_56  and  C3_64 
REMARK       I    between atoms: C4_60  and  O4_61 
REMARK       I    between atoms: O4_61  and  C1_73 
REMARK       I    between atoms: C6_63  and  C5_80 
REMARK       I    between atoms: C3_65  and  O3_82 
REMARK       I    between atoms: S_67  and  O2_84 
REMARK       I    between atoms: C2_68  and  O2_98 
REMARK       I    between atoms: O4_74  and  C4_97 
REMARK       I    between atoms: C2_85  and  N_94 
REMARK       I    between atoms: C2_95  and  N_100 
REMARK       I    between atoms: O2_98  and  S_104 
REMARK       I    between atoms: S_101  and  O2_103 
ROOT
ATOM      1  O6S SGN d  66      18.089  35.484  53.061  0.00  0.00    -0.572 OA
ATOM      2  C4  SGN d  66      16.152  37.718  49.299  0.00  0.00     0.095 C 
ATOM      3  C6  SGN d  66      14.892  36.147  50.821  0.00  0.00     0.067 C 
ATOM      4  O4  SGN d  66      16.548  36.558  48.427  0.00  0.00    -0.348 OA
ATOM      5  O5S SGN d  66      16.781  33.820  51.974  0.00  0.00    -0.572 OA
ATOM      6  O2S SGN d  66      14.776  43.124  50.467  0.00  0.00    -0.296 OA
ATOM      7  O5  SGN d  66      14.414  38.581  50.805  0.00  0.00    -0.350 OA
ATOM      8  O1  SGN d  66      13.358  39.751  48.986  0.00  0.00    -0.369 OA
ATOM      9  C5  SGN d  66      14.803  37.432  49.977  0.00  0.00     0.091 C 
ATOM     10  S2  SGN d  66      17.290  35.186  51.889  0.00  0.00     0.251 S 
ATOM     11  S1  SGN d  66      14.532  42.752  49.087  0.00  0.00     0.156 S 
ATOM     12  O1S SGN d  66      14.825  43.851  48.179  0.00  0.00    -0.296 OA
ATOM     13  C1  SGN d  66      14.300  39.846  50.073  0.00  0.00     0.147 C 
ATOM     14  O3S SGN d  66      13.141  42.378  48.884  0.00  0.00    -0.296 OA
ATOM     15  C3  SGN d  66      16.109  39.042  48.517  0.00  0.00     0.083 C 
ATOM     16  O3  SGN d  66      17.419  39.353  48.044  0.00  0.00    -0.391 OA
ATOM     17  C2  SGN d  66      15.682  40.164  49.466  0.00  0.00     0.081 C 
ATOM     18  O4S SGN d  66      18.107  35.366  50.697  0.00  0.00    -0.572 OA
ATOM     19  N   SGN d  66      15.654  41.420  48.703  0.00  0.00    -0.210 NA
ATOM     20  O6  SGN d  66      15.889  36.285  51.860  0.00  0.00    -0.254 OA
ATOM     21  H   SGN d  66      16.902  37.832  50.054  0.00  0.00     0.091 H 
ATOM     22  H   SGN d  66      15.158  35.328  50.186  0.00  0.00     0.080 H 
ATOM     23  H   SGN d  66      13.941  35.969  51.279  0.00  0.00     0.080 H 
ATOM     24  H   SGN d  66      15.708  43.368  50.576  0.00  0.00     0.231 HD
ATOM     25  H   SGN d  66      12.477  39.552  49.339  0.00  0.00     0.212 HD
ATOM     26  H   SGN d  66      14.054  37.282  49.228  0.00  0.00     0.090 H 
ATOM     27  H   SGN d  66      15.749  44.126  48.291  0.00  0.00     0.231 HD
ATOM     28  H   SGN d  66      13.965  40.602  50.751  0.00  0.00     0.131 H 
ATOM     29  H   SGN d  66      12.913  41.645  49.476  0.00  0.00     0.231 HD
ATOM     30  H   SGN d  66      15.426  38.949  47.700  0.00  0.00     0.089 H 
ATOM     31  H   SGN d  66      18.024  39.433  48.797  0.00  0.00     0.210 HD
ATOM     32  H   SGN d  66      16.374  40.257  50.278  0.00  0.00     0.076 H 
ATOM     33  H   SGN d  66      16.593  41.813  48.770  0.00  0.00     0.140 HD
ATOM     34  O61 IDS d  65      16.418  38.743  44.026  0.00  0.00    -0.646 OA
ATOM     35  O3  IDS d  65      15.426  33.749  45.471  0.00  0.00    -0.390 OA
ATOM     36  C5  IDS d  65      16.717  37.225  45.848  0.00  0.00     0.152 C 
ATOM     37  C6  IDS d  65      17.200  38.389  44.943  0.00  0.00     0.206 C 
ATOM     38  O5  IDS d  65      17.793  36.905  46.783  0.00  0.00    -0.340 OA
ATOM     39  C1  IDS d  65      17.535  35.824  47.717  0.00  0.00     0.161 C 
ATOM     40  O1S IDS d  65      14.938  31.541  47.361  0.00  0.00    -0.572 OA
ATOM     41  C4  IDS d  65      16.228  35.957  45.064  0.00  0.00     0.103 C 
ATOM     42  O4  IDS d  65      16.492  36.329  43.708  0.00  0.00    -0.348 OA
ATOM     43  C2  IDS d  65      16.379  34.867  47.300  0.00  0.00     0.134 C 
ATOM     44  O62 IDS d  65      18.322  38.932  45.176  0.00  0.00    -0.646 OA
ATOM     45  C3  IDS d  65      16.446  34.629  45.825  0.00  0.00     0.094 C 
ATOM     46  O2S IDS d  65      13.943  33.629  47.940  0.00  0.00    -0.572 OA
ATOM     47  O3S IDS d  65      14.949  32.308  49.636  0.00  0.00    -0.572 OA
ATOM     48  O2  IDS d  65      16.538  33.599  47.917  0.00  0.00    -0.244 OA
ATOM     49  S   IDS d  65      15.025  32.710  48.234  0.00  0.00     0.252 S 
ATOM     50  H   IDS d  65      15.457  33.586  44.515  0.00  0.00     0.210 HD
ATOM     51  H   IDS d  65      15.844  37.553  46.373  0.00  0.00     0.104 H 
ATOM     52  H   IDS d  65      18.449  35.355  48.016  0.00  0.00     0.133 H 
ATOM     53  H   IDS d  65      15.215  35.623  44.993  0.00  0.00     0.092 H 
ATOM     54  H   IDS d  65      15.454  35.318  47.591  0.00  0.00     0.097 H 
ATOM     55  H   IDS d  65      17.405  34.226  45.574  0.00  0.00     0.091 H 
ATOM     56  O3S SGN d  62      23.883  36.815  38.328  0.00  0.00    -0.296 OA
ATOM     57  C1  SGN d  62      22.201  34.228  36.731  0.00  0.00     0.150 C 
ATOM     58  S2  SGN d  62      20.651  29.404  33.617  0.00  0.00     0.251 S 
ATOM     59  C5  SGN d  62      22.124  32.631  34.821  0.00  0.00     0.091 C 
ATOM     60  O5  SGN d  62      22.411  32.869  36.229  0.00  0.00    -0.349 OA
ATOM     61  O4S SGN d  62      21.485  28.250  33.666  0.00  0.00    -0.572 OA
ATOM     62  O6  SGN d  62      21.624  30.839  33.400  0.00  0.00    -0.254 OA
ATOM     63  O3  SGN d  62      23.218  35.948  33.577  0.00  0.00    -0.391 OA
ATOM     64  S1  SGN d  62      23.588  37.478  37.079  0.00  0.00     0.156 S 
ATOM     65  O6S SGN d  62      19.824  29.561  34.811  0.00  0.00    -0.572 OA
ATOM     66  O4  SGN d  62      22.672  33.294  32.582  0.00  0.00    -0.348 OA
ATOM     67  C6  SGN d  62      22.422  31.182  34.518  0.00  0.00     0.067 C 
ATOM     68  O5S SGN d  62      19.783  29.346  32.472  0.00  0.00    -0.572 OA
ATOM     69  O1S SGN d  62      22.989  38.779  37.286  0.00  0.00    -0.296 OA
ATOM     70  O2S SGN d  62      24.804  37.550  36.321  0.00  0.00    -0.296 OA
ATOM     71  C2  SGN d  62      22.906  35.206  35.802  0.00  0.00     0.081 C 
ATOM     72  C4  SGN d  62      22.974  33.569  33.948  0.00  0.00     0.095 C 
ATOM     73  N   SGN d  62      22.477  36.529  36.125  0.00  0.00    -0.210 NA
ATOM     74  C3  SGN d  62      22.529  34.988  34.333  0.00  0.00     0.083 C 
ATOM     75  H   SGN d  62      23.073  36.754  38.860  0.00  0.00     0.231 HD
ATOM     76  H   SGN d  62      22.593  34.245  37.726  0.00  0.00     0.131 H 
ATOM     77  H   SGN d  62      21.095  32.833  34.606  0.00  0.00     0.090 H 
ATOM     78  H   SGN d  62      22.923  36.835  33.835  0.00  0.00     0.210 HD
ATOM     79  H   SGN d  62      22.169  30.567  35.357  0.00  0.00     0.080 H 
ATOM     80  H   SGN d  62      23.462  31.032  34.315  0.00  0.00     0.080 H 
ATOM     81  H   SGN d  62      22.173  38.682  37.802  0.00  0.00     0.231 HD
ATOM     82  H   SGN d  62      25.168  36.657  36.207  0.00  0.00     0.231 HD
ATOM     83  H   SGN d  62      23.957  35.057  35.928  0.00  0.00     0.076 H 
ATOM     84  H   SGN d  62      24.029  33.448  34.088  0.00  0.00     0.091 H 
ATOM     85  H   SGN d  62      22.312  37.027  35.249  0.00  0.00     0.140 HD
ATOM     86  H   SGN d  62      21.478  35.089  34.160  0.00  0.00     0.089 H 
ATOM     87  O4  IDS d  63      20.823  34.616  36.812  0.00  0.00    -0.348 OA
ATOM     88  O62 IDS d  63      17.365  33.353  37.010  0.00  0.00    -0.646 OA
ATOM     89  C2  IDS d  63      19.948  37.341  38.020  0.00  0.00     0.134 C 
ATOM     90  O2S IDS d  63      19.558  39.823  36.195  0.00  0.00    -0.572 OA
ATOM     91  O61 IDS d  63      18.847  32.246  38.134  0.00  0.00    -0.646 OA
ATOM     92  C3  IDS d  63      20.815  36.281  38.712  0.00  0.00     0.094 C 
ATOM     93  C1  IDS d  63      18.444  37.039  38.262  0.00  0.00     0.161 C 
ATOM     94  O5  IDS d  63      18.147  35.754  37.658  0.00  0.00    -0.340 OA
ATOM     95  C4  IDS d  63      20.436  34.838  38.162  0.00  0.00     0.103 C 
ATOM     96  C6  IDS d  63      18.342  33.303  37.759  0.00  0.00     0.206 C 
ATOM     97  S   IDS d  63      19.373  38.492  35.630  0.00  0.00     0.252 S 
ATOM     98  O3  IDS d  63      20.491  36.384  40.081  0.00  0.00    -0.390 OA
ATOM     99  C5  IDS d  63      18.901  34.628  38.271  0.00  0.00     0.152 C 
ATOM    100  O2  IDS d  63      20.287  37.381  36.659  0.00  0.00    -0.244 OA
ATOM    101  O1S IDS d  63      19.952  38.365  34.306  0.00  0.00    -0.572 OA
ATOM    102  O3S IDS d  63      17.960  38.250  35.593  0.00  0.00    -0.572 OA
ATOM    103  H   IDS d  63      20.131  38.312  38.431  0.00  0.00     0.097 H 
ATOM    104  H   IDS d  63      21.860  36.425  38.536  0.00  0.00     0.091 H 
ATOM    105  H   IDS d  63      17.771  37.747  37.824  0.00  0.00     0.133 H 
ATOM    106  H   IDS d  63      20.977  34.140  38.767  0.00  0.00     0.092 H 
ATOM    107  H   IDS d  63      19.538  36.247  40.199  0.00  0.00     0.210 HD
ATOM    108  H   IDS d  63      18.753  34.595  39.330  0.00  0.00     0.104 H 
ATOM    109  O4  SGN d  64      18.271  37.055  39.713  0.00  0.00    -0.348 OA
ATOM    110  O6  SGN d  64      15.375  39.835  40.762  0.00  0.00    -0.254 OA
ATOM    111  C3  SGN d  64      17.061  35.459  41.118  0.00  0.00     0.083 C 
ATOM    112  S2  SGN d  64      14.083  39.187  39.717  0.00  0.00     0.251 S 
ATOM    113  C5  SGN d  64      16.738  37.922  41.353  0.00  0.00     0.091 C 
ATOM    114  O1S SGN d  64      13.848  32.332  41.722  0.00  0.00    -0.296 OA
ATOM    115  C2  SGN d  64      15.732  35.226  41.767  0.00  0.00     0.081 C 
ATOM    116  O4S SGN d  64      14.491  39.368  38.349  0.00  0.00    -0.572 OA
ATOM    117  O3S SGN d  64      15.817  32.371  40.398  0.00  0.00    -0.296 OA
ATOM    118  S1  SGN d  64      15.296  32.469  41.750  0.00  0.00     0.156 S 
ATOM    119  O6S SGN d  64      13.850  37.781  39.978  0.00  0.00    -0.572 OA
ATOM    120  O5S SGN d  64      12.873  39.920  39.979  0.00  0.00    -0.572 OA
ATOM    121  O3  SGN d  64      17.269  34.391  40.267  0.00  0.00    -0.391 OA
ATOM    122  C1  SGN d  64      15.457  36.357  42.724  0.00  0.00     0.150 C 
ATOM    123  O2S SGN d  64      15.894  31.450  42.566  0.00  0.00    -0.296 OA
ATOM    124  C4  SGN d  64      17.003  36.797  40.336  0.00  0.00     0.095 C 
ATOM    125  O5  SGN d  64      15.470  37.604  41.997  0.00  0.00    -0.349 OA
ATOM    126  C6  SGN d  64      16.668  39.258  40.645  0.00  0.00     0.067 C 
ATOM    127  N   SGN d  64      15.774  33.994  42.516  0.00  0.00    -0.210 NA
ATOM    128  H   SGN d  64      17.860  35.527  41.827  0.00  0.00     0.089 H 
ATOM    129  H   SGN d  64      17.523  37.992  42.077  0.00  0.00     0.090 H 
ATOM    130  H   SGN d  64      13.468  33.030  41.166  0.00  0.00     0.231 HD
ATOM    131  H   SGN d  64      14.970  35.172  41.018  0.00  0.00     0.076 H 
ATOM    132  H   SGN d  64      15.413  33.059  39.846  0.00  0.00     0.231 HD
ATOM    133  H   SGN d  64      16.539  34.338  39.629  0.00  0.00     0.210 HD
ATOM    134  H   SGN d  64      14.501  36.258  43.193  0.00  0.00     0.131 H 
ATOM    135  H   SGN d  64      15.674  30.577  42.206  0.00  0.00     0.231 HD
ATOM    136  H   SGN d  64      16.239  36.748  39.588  0.00  0.00     0.091 H 
ATOM    137  H   SGN d  64      17.386  39.921  41.079  0.00  0.00     0.080 H 
ATOM    138  H   SGN d  64      16.876  39.103  39.607  0.00  0.00     0.080 H 
ATOM    139  H   SGN d  64      15.164  34.121  43.324  0.00  0.00     0.140 HD
ATOM    140  C1  IDS d  61      23.834  33.082  31.753  0.00  0.00     0.167 C 
ATOM    141  O5  IDS d  61      24.595  34.315  31.672  0.00  0.00    -0.311 OA
ATOM    142  C5  IDS d  61      24.152  35.354  30.865  0.00  0.00     0.147 C 
ATOM    143  C6  IDS d  61      24.964  36.706  30.930  0.00  0.00     0.233 C 
ATOM    144  C2  IDS d  61      23.351  32.724  30.351  0.00  0.00     0.135 C 
ATOM    145  O1S IDS d  61      26.610  33.261  30.753  0.00  0.00    -0.572 OA
ATOM    146  O3S IDS d  61      25.992  30.943  30.985  0.00  0.00    -0.572 OA
ATOM    147  O3  IDS d  61      21.266  33.718  30.113  0.00  0.00    -0.389 OA
ATOM    148  C4  IDS d  61      23.141  35.195  29.966  0.00  0.00    -0.034 C 
ATOM    149  C3  IDS d  61      22.571  33.849  29.671  0.00  0.00     0.086 C 
ATOM    150  O61 IDS d  61      24.650  37.645  30.197  0.00  0.00    -0.642 OA
ATOM    151  O62 IDS d  61      25.948  36.809  31.703  0.00  0.00    -0.642 OA
ATOM    152  O2S IDS d  61      26.984  31.843  29.002  0.00  0.00    -0.572 OA
ATOM    153  S   IDS d  61      26.104  32.087  30.093  0.00  0.00     0.252 S 
ATOM    154  O2  IDS d  61      24.467  32.453  29.486  0.00  0.00    -0.244 OA
ATOM    155  H   IDS d  61      24.443  32.303  32.162  0.00  0.00     0.134 H 
ATOM    156  H   IDS d  61      22.717  31.873  30.490  0.00  0.00     0.097 H 
ATOM    157  H   IDS d  61      20.939  32.830  29.899  0.00  0.00     0.210 HD
ATOM    158  H   IDS d  61      22.762  36.022  29.479  0.00  0.00     0.085 H 
ATOM    159  H   IDS d  61      22.626  33.769  28.606  0.00  0.00     0.093 H 
ENDROOT
TORSDOF 50
ENDMDL
MODEL 45
REMARK VINA RESULT:      -5.3      3.977     15.565
REMARK  0 active torsions:
REMARK  status: ('A' for Active; 'I' for Inactive)
REMARK       I    between atoms: O3S_3  and  S1_55 
REMARK       I    between atoms: O3_4  and  C3_87 
REMARK       I    between atoms: O4_5  and  C1_15 
REMARK       I    between atoms: O4_5  and  C4_57 
REMARK       I    between atoms: O4_7  and  C1_36 
REMARK       I    between atoms: O4_7  and  C4_89 
REMARK       I    between atoms: C4_8  and  O4_18 
REMARK       I    between atoms: C2_9  and  O2_84 
REMARK       I    between atoms: C6_10  and  C5_32 
REMARK       I    between atoms: C6_10  and  O6_102 
REMARK       I    between atoms: O6_11  and  C6_93 
REMARK       I    between atoms: O6_11  and  S2_25 
REMARK       I    between atoms: C1_13  and  O4_74 
REMARK       I    between atoms: C3_14  and  O3_71 
REMARK       I    between atoms: O4_18  and  C1_54 
REMARK       I    between atoms: S2_19  and  O6_39 
REMARK       I    between atoms: O2S_21  and  S1_45 
REMARK       I    between atoms: C5_22  and  C6_23 
REMARK       I    between atoms: C5_24  and  C6_77 
REMARK       I    between atoms: O1_27  and  C1_48 
REMARK       I    between atoms: C5_28  and  C6_30 
REMARK       I    between atoms: C5_29  and  C6_93 
REMARK       I    between atoms: O1S_31  and  S1_44 
REMARK       I    between atoms: C3_33  and  O3_69 
REMARK       I    between atoms: C2_37  and  N_99 
REMARK       I    between atoms: S2_38  and  O6_102 
REMARK       I    between atoms: O6_39  and  C6_77 
REMARK       I    between atoms: C2_40  and  O2_103 
REMARK       I    between atoms: O3S_42  and  S1_44 
REMARK       I    between atoms: S1_44  and  N_99 
REMARK       I    between atoms: S1_44  and  O2S_81 
REMARK       I    between atoms: S1_45  and  N_94 
REMARK       I    between atoms: S1_45  and  O1S_46 
REMARK       I    between atoms: S1_45  and  O3S_58 
REMARK       I    between atoms: O3_52  and  C3_105 
REMARK       I    between atoms: S1_55  and  N_100 
REMARK       I    between atoms: S1_55  and  O1S_79 
REMARK       I    between atoms: S1_55  and  O2S_83 
REMARK       I    between atoms: O3_56  and  C3_64 
REMARK       I    between atoms: C4_60  and  O4_61 
REMARK       I    between atoms: O4_61  and  C1_73 
REMARK       I    between atoms: C6_63  and  C5_80 
REMARK       I    between atoms: C3_65  and  O3_82 
REMARK       I    between atoms: S_67  and  O2_84 
REMARK       I    between atoms: C2_68  and  O2_98 
REMARK       I    between atoms: O4_74  and  C4_97 
REMARK       I    between atoms: C2_85  and  N_94 
REMARK       I    between atoms: C2_95  and  N_100 
REMARK       I    between atoms: O2_98  and  S_104 
REMARK       I    between atoms: S_101  and  O2_103 
ROOT
ATOM      1  O6S SGN d  66      19.191  28.668  31.037  0.00  0.00    -0.572 OA
ATOM      2  C4  SGN d  66      19.729  32.727  33.513  0.00  0.00     0.095 C 
ATOM      3  C6  SGN d  66      21.494  31.740  32.001  0.00  0.00     0.067 C 
ATOM      4  O4  SGN d  66      20.272  31.931  34.669  0.00  0.00    -0.348 OA
ATOM      5  O5S SGN d  66      21.380  28.531  31.957  0.00  0.00    -0.572 OA
ATOM      6  O2S SGN d  66      17.208  37.161  30.972  0.00  0.00    -0.296 OA
ATOM      7  O5  SGN d  66      20.320  33.843  31.406  0.00  0.00    -0.350 OA
ATOM      8  O1  SGN d  66      20.614  35.940  32.548  0.00  0.00    -0.369 OA
ATOM      9  C5  SGN d  66      20.855  33.043  32.516  0.00  0.00     0.091 C 
ATOM     10  S2  SGN d  66      20.138  29.298  31.936  0.00  0.00     0.251 S 
ATOM     11  S1  SGN d  66      17.804  37.492  32.252  0.00  0.00     0.156 S 
ATOM     12  O1S SGN d  66      16.999  38.462  32.980  0.00  0.00    -0.296 OA
ATOM     13  C1  SGN d  66      19.697  35.107  31.812  0.00  0.00     0.147 C 
ATOM     14  O3S SGN d  66      19.129  38.068  32.078  0.00  0.00    -0.296 OA
ATOM     15  C3  SGN d  66      19.022  34.012  33.977  0.00  0.00     0.083 C 
ATOM     16  O3  SGN d  66      17.886  33.665  34.767  0.00  0.00    -0.391 OA
ATOM     17  C2  SGN d  66      18.517  34.771  32.747  0.00  0.00     0.081 C 
ATOM     18  O4S SGN d  66      19.550  29.378  33.266  0.00  0.00    -0.572 OA
ATOM     19  N   SGN d  66      17.840  35.990  33.211  0.00  0.00    -0.210 NA
ATOM     20  O6  SGN d  66      20.514  30.924  31.318  0.00  0.00    -0.254 OA
ATOM     21  H   SGN d  66      18.990  32.129  33.022  0.00  0.00     0.091 H 
ATOM     22  H   SGN d  66      21.890  31.193  32.831  0.00  0.00     0.080 H 
ATOM     23  H   SGN d  66      22.275  31.989  31.312  0.00  0.00     0.080 H 
ATOM     24  H   SGN d  66      16.328  36.779  31.114  0.00  0.00     0.231 HD
ATOM     25  H   SGN d  66      21.368  36.168  31.983  0.00  0.00     0.212 HD
ATOM     26  H   SGN d  66      21.617  33.611  33.008  0.00  0.00     0.090 H 
ATOM     27  H   SGN d  66      16.106  38.107  33.111  0.00  0.00     0.231 HD
ATOM     28  H   SGN d  66      19.388  35.631  30.933  0.00  0.00     0.131 H 
ATOM     29  H   SGN d  66      19.692  37.445  31.594  0.00  0.00     0.231 HD
ATOM     30  H   SGN d  66      19.707  34.608  34.543  0.00  0.00     0.089 H 
ATOM     31  H   SGN d  66      17.278  33.125  34.238  0.00  0.00     0.210 HD
ATOM     32  H   SGN d  66      17.828  34.171  32.190  0.00  0.00     0.076 H 
ATOM     33  H   SGN d  66      16.866  35.730  33.367  0.00  0.00     0.140 HD
ATOM     34  O61 IDS d  65      19.545  35.149  38.311  0.00  0.00    -0.646 OA
ATOM     35  O3  IDS d  65      23.282  31.470  37.604  0.00  0.00    -0.390 OA
ATOM     36  C5  IDS d  65      20.048  33.218  36.995  0.00  0.00     0.152 C 
ATOM     37  C6  IDS d  65      19.056  34.127  37.769  0.00  0.00     0.206 C 
ATOM     38  O5  IDS d  65      19.310  32.049  36.521  0.00  0.00    -0.340 OA
ATOM     39  C1  IDS d  65      20.073  31.065  35.776  0.00  0.00     0.161 C 
ATOM     40  O1S IDS d  65      24.815  29.443  36.110  0.00  0.00    -0.572 OA
ATOM     41  C4  IDS d  65      21.323  32.811  37.814  0.00  0.00     0.103 C 
ATOM     42  O4  IDS d  65      21.058  33.405  39.088  0.00  0.00    -0.348 OA
ATOM     43  C2  IDS d  65      21.616  31.144  35.986  0.00  0.00     0.134 C 
ATOM     44  O62 IDS d  65      17.826  33.820  37.799  0.00  0.00    -0.646 OA
ATOM     45  C3  IDS d  65      21.901  31.432  37.425  0.00  0.00     0.094 C 
ATOM     46  O2S IDS d  65      24.179  31.374  34.865  0.00  0.00    -0.572 OA
ATOM     47  O3S IDS d  65      24.032  29.234  33.850  0.00  0.00    -0.572 OA
ATOM     48  O2  IDS d  65      22.219  29.891  35.701  0.00  0.00    -0.244 OA
ATOM     49  S   IDS d  65      23.898  29.972  35.102  0.00  0.00     0.252 S 
ATOM     50  H   IDS d  65      23.483  31.657  38.534  0.00  0.00     0.210 HD
ATOM     51  H   IDS d  65      20.439  33.778  36.173  0.00  0.00     0.104 H 
ATOM     52  H   IDS d  65      19.635  30.093  35.871  0.00  0.00     0.133 H 
ATOM     53  H   IDS d  65      22.317  33.158  37.627  0.00  0.00     0.092 H 
ATOM     54  H   IDS d  65      21.999  31.906  35.340  0.00  0.00     0.097 H 
ATOM     55  H   IDS d  65      21.457  30.672  38.034  0.00  0.00     0.091 H 
ATOM     56  O3S SGN d  62      15.788  31.428  46.308  0.00  0.00    -0.296 OA
ATOM     57  C1  SGN d  62      18.913  30.985  47.762  0.00  0.00     0.150 C 
ATOM     58  S2  SGN d  62      23.546  29.309  51.092  0.00  0.00     0.251 S 
ATOM     59  C5  SGN d  62      20.225  30.484  49.819  0.00  0.00     0.091 C 
ATOM     60  O5  SGN d  62      19.677  30.019  48.552  0.00  0.00    -0.349 OA
ATOM     61  O4S SGN d  62      23.634  27.954  51.525  0.00  0.00    -0.572 OA
ATOM     62  O6  SGN d  62      21.922  29.909  51.326  0.00  0.00    -0.254 OA
ATOM     63  O3  SGN d  62      17.446  32.779  50.689  0.00  0.00    -0.391 OA
ATOM     64  S1  SGN d  62      15.751  32.519  47.254  0.00  0.00     0.156 S 
ATOM     65  O6S SGN d  62      23.927  29.486  49.693  0.00  0.00    -0.572 OA
ATOM     66  O4  SGN d  62      19.669  31.437  51.949  0.00  0.00    -0.348 OA
ATOM     67  C6  SGN d  62      20.954  29.332  50.468  0.00  0.00     0.067 C 
ATOM     68  O5S SGN d  62      24.390  30.148  51.899  0.00  0.00    -0.572 OA
ATOM     69  O1S SGN d  62      15.358  33.763  46.627  0.00  0.00    -0.296 OA
ATOM     70  O2S SGN d  62      14.873  32.144  48.325  0.00  0.00    -0.296 OA
ATOM     71  C2  SGN d  62      17.873  31.638  48.661  0.00  0.00     0.081 C 
ATOM     72  C4  SGN d  62      19.092  31.005  50.719  0.00  0.00     0.095 C 
ATOM     73  N   SGN d  62      17.321  32.763  47.976  0.00  0.00    -0.210 NA
ATOM     74  C3  SGN d  62      18.484  32.190  49.953  0.00  0.00     0.083 C 
ATOM     75  H   SGN d  62      16.377  31.658  45.572  0.00  0.00     0.231 HD
ATOM     76  H   SGN d  62      18.477  30.435  46.954  0.00  0.00     0.131 H 
ATOM     77  H   SGN d  62      20.909  31.291  49.660  0.00  0.00     0.090 H 
ATOM     78  H   SGN d  62      17.076  33.523  50.189  0.00  0.00     0.210 HD
ATOM     79  H   SGN d  62      21.430  28.727  49.725  0.00  0.00     0.080 H 
ATOM     80  H   SGN d  62      20.280  28.701  51.010  0.00  0.00     0.080 H 
ATOM     81  H   SGN d  62      15.977  33.976  45.912  0.00  0.00     0.231 HD
ATOM     82  H   SGN d  62      15.175  31.308  48.713  0.00  0.00     0.231 HD
ATOM     83  H   SGN d  62      17.148  30.888  48.899  0.00  0.00     0.076 H 
ATOM     84  H   SGN d  62      18.346  30.270  50.941  0.00  0.00     0.091 H 
ATOM     85  H   SGN d  62      17.242  33.529  48.645  0.00  0.00     0.140 HD
ATOM     86  H   SGN d  62      19.245  32.920  49.767  0.00  0.00     0.089 H 
ATOM     87  O4  IDS d  63      19.709  32.028  47.184  0.00  0.00    -0.348 OA
ATOM     88  O62 IDS d  63      23.124  32.970  46.160  0.00  0.00    -0.646 OA
ATOM     89  C2  IDS d  63      18.497  34.155  45.269  0.00  0.00     0.134 C 
ATOM     90  O2S IDS d  63      17.454  36.861  46.377  0.00  0.00    -0.572 OA
ATOM     91  O61 IDS d  63      22.551  30.916  45.786  0.00  0.00    -0.646 OA
ATOM     92  C3  IDS d  63      18.420  32.632  45.096  0.00  0.00     0.094 C 
ATOM     93  C1  IDS d  63      19.807  34.696  44.632  0.00  0.00     0.161 C 
ATOM     94  O5  IDS d  63      20.923  34.107  45.346  0.00  0.00    -0.340 OA
ATOM     95  C4  IDS d  63      19.693  31.952  45.764  0.00  0.00     0.103 C 
ATOM     96  C6  IDS d  63      22.314  32.123  45.777  0.00  0.00     0.206 C 
ATOM     97  S   IDS d  63      18.509  36.161  47.097  0.00  0.00     0.252 S 
ATOM     98  O3  IDS d  63      18.428  32.424  43.701  0.00  0.00    -0.390 OA
ATOM     99  C5  IDS d  63      20.984  32.625  45.224  0.00  0.00     0.152 C 
ATOM    100  O2  IDS d  63      18.385  34.458  46.634  0.00  0.00    -0.244 OA
ATOM    101  O1S IDS d  63      18.315  36.191  48.535  0.00  0.00    -0.572 OA
ATOM    102  O3S IDS d  63      19.747  36.792  46.737  0.00  0.00    -0.572 OA
ATOM    103  H   IDS d  63      17.691  34.638  44.760  0.00  0.00     0.097 H 
ATOM    104  H   IDS d  63      17.553  32.209  45.559  0.00  0.00     0.091 H 
ATOM    105  H   IDS d  63      19.927  35.758  44.697  0.00  0.00     0.133 H 
ATOM    106  H   IDS d  63      19.645  30.916  45.501  0.00  0.00     0.092 H 
ATOM    107  H   IDS d  63      19.227  32.820  43.320  0.00  0.00     0.210 HD
ATOM    108  H   IDS d  63      20.983  32.323  44.198  0.00  0.00     0.104 H 
ATOM    109  O4  SGN d  64      19.745  34.310  43.225  0.00  0.00    -0.348 OA
ATOM    110  O6  SGN d  64      20.061  37.675  40.818  0.00  0.00    -0.254 OA
ATOM    111  C3  SGN d  64      21.501  33.316  41.842  0.00  0.00     0.083 C 
ATOM    112  S2  SGN d  64      21.590  38.277  41.511  0.00  0.00     0.251 S 
ATOM    113  C5  SGN d  64      20.159  35.267  41.056  0.00  0.00     0.091 C 
ATOM    114  O1S SGN d  64      25.858  32.583  40.871  0.00  0.00    -0.296 OA
ATOM    115  C2  SGN d  64      22.581  33.671  40.868  0.00  0.00     0.081 C 
ATOM    116  O4S SGN d  64      21.337  38.650  42.879  0.00  0.00    -0.572 OA
ATOM    117  O3S SGN d  64      24.498  31.951  42.709  0.00  0.00    -0.296 OA
ATOM    118  S1  SGN d  64      24.663  31.857  41.270  0.00  0.00     0.156 S 
ATOM    119  O6S SGN d  64      22.626  37.266  41.463  0.00  0.00    -0.572 OA
ATOM    120  O5S SGN d  64      22.016  39.422  40.752  0.00  0.00    -0.572 OA
ATOM    121  O3  SGN d  64      22.127  32.689  42.902  0.00  0.00    -0.391 OA
ATOM    122  C1  SGN d  64      21.954  34.348  39.676  0.00  0.00     0.150 C 
ATOM    123  O2S SGN d  64      24.749  30.474  40.890  0.00  0.00    -0.296 OA
ATOM    124  C4  SGN d  64      20.797  34.620  42.299  0.00  0.00     0.095 C 
ATOM    125  O5  SGN d  64      21.247  35.525  40.121  0.00  0.00    -0.349 OA
ATOM    126  C6  SGN d  64      19.455  36.551  41.440  0.00  0.00     0.067 C 
ATOM    127  N   SGN d  64      23.236  32.468  40.417  0.00  0.00    -0.210 NA
ATOM    128  H   SGN d  64      20.759  32.673  41.418  0.00  0.00     0.089 H 
ATOM    129  H   SGN d  64      19.424  34.627  40.613  0.00  0.00     0.090 H 
ATOM    130  H   SGN d  64      25.777  33.511  41.138  0.00  0.00     0.231 HD
ATOM    131  H   SGN d  64      23.292  34.319  41.338  0.00  0.00     0.076 H 
ATOM    132  H   SGN d  64      24.441  32.884  42.968  0.00  0.00     0.231 HD
ATOM    133  H   SGN d  64      22.798  33.280  43.278  0.00  0.00     0.210 HD
ATOM    134  H   SGN d  64      22.687  34.655  38.960  0.00  0.00     0.131 H 
ATOM    135  H   SGN d  64      25.516  30.067  41.322  0.00  0.00     0.231 HD
ATOM    136  H   SGN d  64      21.506  35.272  42.766  0.00  0.00     0.091 H 
ATOM    137  H   SGN d  64      18.432  36.493  41.134  0.00  0.00     0.080 H 
ATOM    138  H   SGN d  64      19.525  36.671  42.501  0.00  0.00     0.080 H 
ATOM    139  H   SGN d  64      23.518  32.631  39.451  0.00  0.00     0.140 HD
ATOM    140  C1  IDS d  61      19.022  30.904  53.123  0.00  0.00     0.167 C 
ATOM    141  O5  IDS d  61      17.670  31.426  53.201  0.00  0.00    -0.311 OA
ATOM    142  C5  IDS d  61      17.452  32.733  53.618  0.00  0.00     0.147 C 
ATOM    143  C6  IDS d  61      15.968  33.265  53.554  0.00  0.00     0.233 C 
ATOM    144  C2  IDS d  61      19.794  31.389  54.345  0.00  0.00     0.135 C 
ATOM    145  O1S IDS d  61      16.916  29.810  54.885  0.00  0.00    -0.572 OA
ATOM    146  O3S IDS d  61      18.827  28.341  54.916  0.00  0.00    -0.572 OA
ATOM    147  O3  IDS d  61      20.787  33.396  53.729  0.00  0.00    -0.389 OA
ATOM    148  C4  IDS d  61      18.438  33.493  54.170  0.00  0.00    -0.034 C 
ATOM    149  C3  IDS d  61      19.764  32.907  54.522  0.00  0.00     0.086 C 
ATOM    150  O61 IDS d  61      15.705  34.397  53.961  0.00  0.00    -0.642 OA
ATOM    151  O62 IDS d  61      15.054  32.521  53.121  0.00  0.00    -0.642 OA
ATOM    152  O2S IDS d  61      17.750  29.133  56.901  0.00  0.00    -0.572 OA
ATOM    153  S   IDS d  61      18.130  29.442  55.565  0.00  0.00     0.252 S 
ATOM    154  O2  IDS d  61      19.224  30.850  55.550  0.00  0.00    -0.244 OA
ATOM    155  H   IDS d  61      18.998  29.835  53.079  0.00  0.00     0.134 H 
ATOM    156  H   IDS d  61      20.800  31.061  54.181  0.00  0.00     0.097 H 
ATOM    157  H   IDS d  61      21.626  32.988  53.994  0.00  0.00     0.210 HD
ATOM    158  H   IDS d  61      18.265  34.495  54.349  0.00  0.00     0.085 H 
ATOM    159  H   IDS d  61      19.907  33.180  55.546  0.00  0.00     0.093 H 
ENDROOT
TORSDOF 50
ENDMDL
MODEL 46
REMARK VINA RESULT:      -5.3      4.997     15.441
REMARK  0 active torsions:
REMARK  status: ('A' for Active; 'I' for Inactive)
REMARK       I    between atoms: O3S_3  and  S1_55 
REMARK       I    between atoms: O3_4  and  C3_87 
REMARK       I    between atoms: O4_5  and  C1_15 
REMARK       I    between atoms: O4_5  and  C4_57 
REMARK       I    between atoms: O4_7  and  C1_36 
REMARK       I    between atoms: O4_7  and  C4_89 
REMARK       I    between atoms: C4_8  and  O4_18 
REMARK       I    between atoms: C2_9  and  O2_84 
REMARK       I    between atoms: C6_10  and  C5_32 
REMARK       I    between atoms: C6_10  and  O6_102 
REMARK       I    between atoms: O6_11  and  C6_93 
REMARK       I    between atoms: O6_11  and  S2_25 
REMARK       I    between atoms: C1_13  and  O4_74 
REMARK       I    between atoms: C3_14  and  O3_71 
REMARK       I    between atoms: O4_18  and  C1_54 
REMARK       I    between atoms: S2_19  and  O6_39 
REMARK       I    between atoms: O2S_21  and  S1_45 
REMARK       I    between atoms: C5_22  and  C6_23 
REMARK       I    between atoms: C5_24  and  C6_77 
REMARK       I    between atoms: O1_27  and  C1_48 
REMARK       I    between atoms: C5_28  and  C6_30 
REMARK       I    between atoms: C5_29  and  C6_93 
REMARK       I    between atoms: O1S_31  and  S1_44 
REMARK       I    between atoms: C3_33  and  O3_69 
REMARK       I    between atoms: C2_37  and  N_99 
REMARK       I    between atoms: S2_38  and  O6_102 
REMARK       I    between atoms: O6_39  and  C6_77 
REMARK       I    between atoms: C2_40  and  O2_103 
REMARK       I    between atoms: O3S_42  and  S1_44 
REMARK       I    between atoms: S1_44  and  N_99 
REMARK       I    between atoms: S1_44  and  O2S_81 
REMARK       I    between atoms: S1_45  and  N_94 
REMARK       I    between atoms: S1_45  and  O1S_46 
REMARK       I    between atoms: S1_45  and  O3S_58 
REMARK       I    between atoms: O3_52  and  C3_105 
REMARK       I    between atoms: S1_55  and  N_100 
REMARK       I    between atoms: S1_55  and  O1S_79 
REMARK       I    between atoms: S1_55  and  O2S_83 
REMARK       I    between atoms: O3_56  and  C3_64 
REMARK       I    between atoms: C4_60  and  O4_61 
REMARK       I    between atoms: O4_61  and  C1_73 
REMARK       I    between atoms: C6_63  and  C5_80 
REMARK       I    between atoms: C3_65  and  O3_82 
REMARK       I    between atoms: S_67  and  O2_84 
REMARK       I    between atoms: C2_68  and  O2_98 
REMARK       I    between atoms: O4_74  and  C4_97 
REMARK       I    between atoms: C2_85  and  N_94 
REMARK       I    between atoms: C2_95  and  N_100 
REMARK       I    between atoms: O2_98  and  S_104 
REMARK       I    between atoms: S_101  and  O2_103 
ROOT
ATOM      1  O6S SGN d  66      23.316  42.826  33.623  0.00  0.00    -0.572 OA
ATOM      2  C4  SGN d  66      22.501  38.111  33.562  0.00  0.00     0.095 C 
ATOM      3  C6  SGN d  66      21.102  39.810  32.325  0.00  0.00     0.067 C 
ATOM      4  O4  SGN d  66      21.620  38.264  34.772  0.00  0.00    -0.348 OA
ATOM      5  O5S SGN d  66      20.961  42.614  33.885  0.00  0.00    -0.572 OA
ATOM      6  O2S SGN d  66      25.938  35.368  29.937  0.00  0.00    -0.296 OA
ATOM      7  O5  SGN d  66      22.557  38.212  31.108  0.00  0.00    -0.350 OA
ATOM      8  O1  SGN d  66      22.156  35.844  30.959  0.00  0.00    -0.369 OA
ATOM      9  C5  SGN d  66      21.695  38.390  32.284  0.00  0.00     0.091 C 
ATOM     10  S2  SGN d  66      22.227  41.889  33.817  0.00  0.00     0.251 S 
ATOM     11  S1  SGN d  66      25.066  34.484  30.686  0.00  0.00     0.156 S 
ATOM     12  O1S SGN d  66      25.737  33.239  31.028  0.00  0.00    -0.296 OA
ATOM     13  C1  SGN d  66      23.158  36.879  30.992  0.00  0.00     0.147 C 
ATOM     14  O3S SGN d  66      23.880  34.143  29.915  0.00  0.00    -0.296 OA
ATOM     15  C3  SGN d  66      23.170  36.728  33.505  0.00  0.00     0.083 C 
ATOM     16  O3  SGN d  66      24.037  36.576  34.628  0.00  0.00    -0.391 OA
ATOM     17  C2  SGN d  66      24.030  36.645  32.242  0.00  0.00     0.081 C 
ATOM     18  O4S SGN d  66      22.462  41.132  35.039  0.00  0.00    -0.572 OA
ATOM     19  N   SGN d  66      24.665  35.320  32.209  0.00  0.00    -0.210 NA
ATOM     20  O6  SGN d  66      22.153  40.801  32.410  0.00  0.00    -0.254 OA
ATOM     21  H   SGN d  66      23.289  38.831  33.638  0.00  0.00     0.091 H 
ATOM     22  H   SGN d  66      20.465  39.900  33.181  0.00  0.00     0.080 H 
ATOM     23  H   SGN d  66      20.544  39.977  31.427  0.00  0.00     0.080 H 
ATOM     24  H   SGN d  66      26.719  35.581  30.471  0.00  0.00     0.231 HD
ATOM     25  H   SGN d  66      21.590  35.965  30.181  0.00  0.00     0.212 HD
ATOM     26  H   SGN d  66      20.882  37.696  32.219  0.00  0.00     0.090 H 
ATOM     27  H   SGN d  66      26.535  33.433  31.544  0.00  0.00     0.231 HD
ATOM     28  H   SGN d  66      23.721  36.838  30.084  0.00  0.00     0.131 H 
ATOM     29  H   SGN d  66      23.409  34.954  29.670  0.00  0.00     0.231 HD
ATOM     30  H   SGN d  66      22.416  35.969  33.507  0.00  0.00     0.089 H 
ATOM     31  H   SGN d  66      24.713  37.272  34.610  0.00  0.00     0.210 HD
ATOM     32  H   SGN d  66      24.788  37.402  32.250  0.00  0.00     0.076 H 
ATOM     33  H   SGN d  66      25.544  35.414  32.719  0.00  0.00     0.140 HD
ATOM     34  O61 IDS d  65      21.661  33.636  36.424  0.00  0.00    -0.646 OA
ATOM     35  O3  IDS d  65      17.937  37.388  36.658  0.00  0.00    -0.390 OA
ATOM     36  C5  IDS d  65      21.352  35.989  36.140  0.00  0.00     0.152 C 
ATOM     37  C6  IDS d  65      22.187  34.764  36.598  0.00  0.00     0.206 C 
ATOM     38  O5  IDS d  65      22.087  37.197  36.507  0.00  0.00    -0.340 OA
ATOM     39  C1  IDS d  65      21.460  38.461  36.169  0.00  0.00     0.161 C 
ATOM     40  O1S IDS d  65      16.673  39.970  36.006  0.00  0.00    -0.572 OA
ATOM     41  C4  IDS d  65      19.882  36.010  36.688  0.00  0.00     0.103 C 
ATOM     42  O4  IDS d  65      19.864  34.853  37.528  0.00  0.00    -0.348 OA
ATOM     43  C2  IDS d  65      19.927  38.375  35.904  0.00  0.00     0.134 C 
ATOM     44  O62 IDS d  65      23.339  34.947  37.094  0.00  0.00    -0.646 OA
ATOM     45  C3  IDS d  65      19.310  37.433  36.888  0.00  0.00     0.094 C 
ATOM     46  O2S IDS d  65      17.759  38.869  34.191  0.00  0.00    -0.572 OA
ATOM     47  O3S IDS d  65      17.983  41.220  34.429  0.00  0.00    -0.572 OA
ATOM     48  O2  IDS d  65      19.315  39.637  36.121  0.00  0.00    -0.244 OA
ATOM     49  S   IDS d  65      17.855  39.955  35.146  0.00  0.00     0.252 S 
ATOM     50  H   IDS d  65      17.524  36.779  37.290  0.00  0.00     0.210 HD
ATOM     51  H   IDS d  65      21.229  35.929  35.079  0.00  0.00     0.104 H 
ATOM     52  H   IDS d  65      21.779  39.234  36.837  0.00  0.00     0.133 H 
ATOM     53  H   IDS d  65      18.999  35.856  36.104  0.00  0.00     0.092 H 
ATOM     54  H   IDS d  65      19.783  38.052  34.894  0.00  0.00     0.097 H 
ATOM     55  H   IDS d  65      19.523  37.768  37.881  0.00  0.00     0.091 H 
ATOM     56  O3S SGN d  62      22.952  32.725  45.880  0.00  0.00    -0.296 OA
ATOM     57  C1  SGN d  62      19.535  32.568  46.493  0.00  0.00     0.150 C 
ATOM     58  S2  SGN d  62      14.089  32.644  48.880  0.00  0.00     0.251 S 
ATOM     59  C5  SGN d  62      17.709  32.065  48.110  0.00  0.00     0.091 C 
ATOM     60  O5  SGN d  62      18.519  33.062  47.424  0.00  0.00    -0.349 OA
ATOM     61  O4S SGN d  62      13.783  33.613  49.879  0.00  0.00    -0.572 OA
ATOM     62  O6  SGN d  62      15.644  31.917  49.204  0.00  0.00    -0.254 OA
ATOM     63  O3  SGN d  62      20.355  29.488  48.437  0.00  0.00    -0.391 OA
ATOM     64  S1  SGN d  62      22.837  31.310  46.144  0.00  0.00     0.156 S 
ATOM     65  O6S SGN d  62      14.090  33.199  47.529  0.00  0.00    -0.572 OA
ATOM     66  O4  SGN d  62      17.782  30.158  49.563  0.00  0.00    -0.348 OA
ATOM     67  C6  SGN d  62      16.748  32.787  49.024  0.00  0.00     0.067 C 
ATOM     68  O5S SGN d  62      13.139  31.565  48.922  0.00  0.00    -0.572 OA
ATOM     69  O1S SGN d  62      23.477  30.515  45.117  0.00  0.00    -0.296 OA
ATOM     70  O2S SGN d  62      23.381  31.059  47.448  0.00  0.00    -0.296 OA
ATOM     71  C2  SGN d  62      20.363  31.501  47.194  0.00  0.00     0.081 C 
ATOM     72  C4  SGN d  62      18.615  31.106  48.900  0.00  0.00     0.095 C 
ATOM     73  N   SGN d  62      21.161  30.830  46.218  0.00  0.00    -0.210 NA
ATOM     74  C3  SGN d  62      19.492  30.419  47.841  0.00  0.00     0.083 C 
ATOM     75  H   SGN d  62      22.589  32.920  45.001  0.00  0.00     0.231 HD
ATOM     76  H   SGN d  62      20.115  33.419  46.203  0.00  0.00     0.131 H 
ATOM     77  H   SGN d  62      17.155  31.480  47.405  0.00  0.00     0.090 H 
ATOM     78  H   SGN d  62      20.898  29.067  47.753  0.00  0.00     0.210 HD
ATOM     79  H   SGN d  62      16.428  33.704  48.576  0.00  0.00     0.080 H 
ATOM     80  H   SGN d  62      17.208  33.031  49.958  0.00  0.00     0.080 H 
ATOM     81  H   SGN d  62      23.078  30.717  44.256  0.00  0.00     0.231 HD
ATOM     82  H   SGN d  62      22.924  31.612  48.101  0.00  0.00     0.231 HD
ATOM     83  H   SGN d  62      20.940  31.995  47.947  0.00  0.00     0.076 H 
ATOM     84  H   SGN d  62      19.218  31.594  49.638  0.00  0.00     0.091 H 
ATOM     85  H   SGN d  62      21.130  29.830  46.421  0.00  0.00     0.140 HD
ATOM     86  H   SGN d  62      18.866  29.919  47.133  0.00  0.00     0.089 H 
ATOM     87  O4  IDS d  63      19.000  31.991  45.295  0.00  0.00    -0.348 OA
ATOM     88  O62 IDS d  63      16.044  31.866  43.094  0.00  0.00    -0.646 OA
ATOM     89  C2  IDS d  63      20.826  31.018  42.977  0.00  0.00     0.134 C 
ATOM     90  O2S IDS d  63      21.773  28.063  42.850  0.00  0.00    -0.572 OA
ATOM     91  O61 IDS d  63      16.523  33.803  43.934  0.00  0.00    -0.646 OA
ATOM     92  C3  IDS d  63      20.821  32.422  43.597  0.00  0.00     0.094 C 
ATOM     93  C1  IDS d  63      19.770  30.933  41.842  0.00  0.00     0.161 C 
ATOM     94  O5  IDS d  63      18.465  31.157  42.433  0.00  0.00    -0.340 OA
ATOM     95  C4  IDS d  63      19.369  32.755  44.154  0.00  0.00     0.103 C 
ATOM     96  C6  IDS d  63      16.853  32.745  43.399  0.00  0.00     0.206 C 
ATOM     97  S   IDS d  63      20.516  28.376  43.517  0.00  0.00     0.252 S 
ATOM     98  O3  IDS d  63      21.149  33.289  42.535  0.00  0.00    -0.390 OA
ATOM     99  C5  IDS d  63      18.317  32.508  43.039  0.00  0.00     0.152 C 
ATOM    100  O2  IDS d  63      20.613  30.076  43.995  0.00  0.00    -0.244 OA
ATOM    101  O1S IDS d  63      20.341  27.632  44.751  0.00  0.00    -0.572 OA
ATOM    102  O3S IDS d  63      19.466  28.074  42.587  0.00  0.00    -0.572 OA
ATOM    103  H   IDS d  63      21.773  30.803  42.527  0.00  0.00     0.097 H 
ATOM    104  H   IDS d  63      21.505  32.513  44.415  0.00  0.00     0.091 H 
ATOM    105  H   IDS d  63      19.725  29.986  41.346  0.00  0.00     0.133 H 
ATOM    106  H   IDS d  63      19.397  33.782  44.454  0.00  0.00     0.092 H 
ATOM    107  H   IDS d  63      20.508  33.177  41.816  0.00  0.00     0.210 HD
ATOM    108  H   IDS d  63      18.552  33.275  42.332  0.00  0.00     0.104 H 
ATOM    109  O4  SGN d  64      20.155  31.958  40.874  0.00  0.00    -0.348 OA
ATOM    110  O6  SGN d  64      20.734  30.236  37.144  0.00  0.00    -0.254 OA
ATOM    111  C3  SGN d  64      18.731  33.600  39.750  0.00  0.00     0.083 C 
ATOM    112  S2  SGN d  64      19.134  29.457  37.029  0.00  0.00     0.251 S 
ATOM    113  C5  SGN d  64      20.384  32.217  38.493  0.00  0.00     0.091 C 
ATOM    114  O1S SGN d  64      14.717  34.958  38.166  0.00  0.00    -0.296 OA
ATOM    115  C2  SGN d  64      17.966  33.831  38.484  0.00  0.00     0.081 C 
ATOM    116  O4S SGN d  64      19.063  28.446  38.052  0.00  0.00    -0.572 OA
ATOM    117  O3S SGN d  64      15.510  34.526  40.359  0.00  0.00    -0.296 OA
ATOM    118  S1  SGN d  64      15.709  35.326  39.163  0.00  0.00     0.156 S 
ATOM    119  O6S SGN d  64      18.066  30.418  37.213  0.00  0.00    -0.572 OA
ATOM    120  O5S SGN d  64      19.010  28.860  35.727  0.00  0.00    -0.572 OA
ATOM    121  O3  SGN d  64      17.808  33.658  40.777  0.00  0.00    -0.391 OA
ATOM    122  C1  SGN d  64      18.927  33.794  37.325  0.00  0.00     0.150 C 
ATOM    123  O2S SGN d  64      15.609  36.719  39.500  0.00  0.00    -0.296 OA
ATOM    124  C4  SGN d  64      19.401  32.203  39.677  0.00  0.00     0.095 C 
ATOM    125  O5  SGN d  64      19.593  32.514  37.304  0.00  0.00    -0.349 OA
ATOM    126  C6  SGN d  64      21.070  30.874  38.368  0.00  0.00     0.067 C 
ATOM    127  N   SGN d  64      17.351  35.135  38.526  0.00  0.00    -0.210 NA
ATOM    128  H   SGN d  64      19.501  34.326  39.905  0.00  0.00     0.089 H 
ATOM    129  H   SGN d  64      21.152  32.950  38.627  0.00  0.00     0.090 H 
ATOM    130  H   SGN d  64      14.804  34.015  37.956  0.00  0.00     0.231 HD
ATOM    131  H   SGN d  64      17.215  33.077  38.375  0.00  0.00     0.076 H 
ATOM    132  H   SGN d  64      15.577  33.585  40.134  0.00  0.00     0.231 HD
ATOM    133  H   SGN d  64      17.114  32.997  40.626  0.00  0.00     0.210 HD
ATOM    134  H   SGN d  64      18.427  33.921  36.388  0.00  0.00     0.131 H 
ATOM    135  H   SGN d  64      14.728  36.902  39.860  0.00  0.00     0.231 HD
ATOM    136  H   SGN d  64      18.652  31.446  39.564  0.00  0.00     0.091 H 
ATOM    137  H   SGN d  64      22.129  31.018  38.408  0.00  0.00     0.080 H 
ATOM    138  H   SGN d  64      20.743  30.251  39.175  0.00  0.00     0.080 H 
ATOM    139  H   SGN d  64      17.337  35.484  37.568  0.00  0.00     0.140 HD
ATOM    140  C1  IDS d  61      18.065  30.007  50.969  0.00  0.00     0.167 C 
ATOM    141  O5  IDS d  61      19.391  29.440  51.132  0.00  0.00    -0.311 OA
ATOM    142  C5  IDS d  61      19.602  28.087  50.898  0.00  0.00     0.147 C 
ATOM    143  C6  IDS d  61      21.093  27.574  50.971  0.00  0.00     0.233 C 
ATOM    144  C2  IDS d  61      17.051  29.028  51.550  0.00  0.00     0.135 C 
ATOM    145  O1S IDS d  61      19.559  29.973  53.519  0.00  0.00    -0.572 OA
ATOM    146  O3S IDS d  61      17.590  31.341  53.766  0.00  0.00    -0.572 OA
ATOM    147  O3  IDS d  61      16.414  27.642  49.798  0.00  0.00    -0.389 OA
ATOM    148  C4  IDS d  61      18.574  27.210  50.730  0.00  0.00    -0.034 C 
ATOM    149  C3  IDS d  61      17.159  27.620  50.964  0.00  0.00     0.086 C 
ATOM    150  O61 IDS d  61      21.336  26.375  50.825  0.00  0.00    -0.642 OA
ATOM    151  O62 IDS d  61      22.023  28.382  51.212  0.00  0.00    -0.642 OA
ATOM    152  O2S IDS d  61      18.189  29.616  55.312  0.00  0.00    -0.572 OA
ATOM    153  S   IDS d  61      18.187  30.026  53.950  0.00  0.00     0.252 S 
ATOM    154  O2  IDS d  61      17.251  28.871  52.965  0.00  0.00    -0.244 OA
ATOM    155  H   IDS d  61      18.012  30.956  51.461  0.00  0.00     0.134 H 
ATOM    156  H   IDS d  61      16.096  29.449  51.311  0.00  0.00     0.097 H 
ATOM    157  H   IDS d  61      15.505  27.913  50.000  0.00  0.00     0.210 HD
ATOM    158  H   IDS d  61      18.777  26.242  50.434  0.00  0.00     0.085 H 
ATOM    159  H   IDS d  61      16.784  26.887  51.646  0.00  0.00     0.093 H 
ENDROOT
TORSDOF 50
ENDMDL
MODEL 47
REMARK VINA RESULT:      -5.3      4.987      6.799
REMARK  0 active torsions:
REMARK  status: ('A' for Active; 'I' for Inactive)
REMARK       I    between atoms: O3S_3  and  S1_55 
REMARK       I    between atoms: O3_4  and  C3_87 
REMARK       I    between atoms: O4_5  and  C1_15 
REMARK       I    between atoms: O4_5  and  C4_57 
REMARK       I    between atoms: O4_7  and  C1_36 
REMARK       I    between atoms: O4_7  and  C4_89 
REMARK       I    between atoms: C4_8  and  O4_18 
REMARK       I    between atoms: C2_9  and  O2_84 
REMARK       I    between atoms: C6_10  and  C5_32 
REMARK       I    between atoms: C6_10  and  O6_102 
REMARK       I    between atoms: O6_11  and  C6_93 
REMARK       I    between atoms: O6_11  and  S2_25 
REMARK       I    between atoms: C1_13  and  O4_74 
REMARK       I    between atoms: C3_14  and  O3_71 
REMARK       I    between atoms: O4_18  and  C1_54 
REMARK       I    between atoms: S2_19  and  O6_39 
REMARK       I    between atoms: O2S_21  and  S1_45 
REMARK       I    between atoms: C5_22  and  C6_23 
REMARK       I    between atoms: C5_24  and  C6_77 
REMARK       I    between atoms: O1_27  and  C1_48 
REMARK       I    between atoms: C5_28  and  C6_30 
REMARK       I    between atoms: C5_29  and  C6_93 
REMARK       I    between atoms: O1S_31  and  S1_44 
REMARK       I    between atoms: C3_33  and  O3_69 
REMARK       I    between atoms: C2_37  and  N_99 
REMARK       I    between atoms: S2_38  and  O6_102 
REMARK       I    between atoms: O6_39  and  C6_77 
REMARK       I    between atoms: C2_40  and  O2_103 
REMARK       I    between atoms: O3S_42  and  S1_44 
REMARK       I    between atoms: S1_44  and  N_99 
REMARK       I    between atoms: S1_44  and  O2S_81 
REMARK       I    between atoms: S1_45  and  N_94 
REMARK       I    between atoms: S1_45  and  O1S_46 
REMARK       I    between atoms: S1_45  and  O3S_58 
REMARK       I    between atoms: O3_52  and  C3_105 
REMARK       I    between atoms: S1_55  and  N_100 
REMARK       I    between atoms: S1_55  and  O1S_79 
REMARK       I    between atoms: S1_55  and  O2S_83 
REMARK       I    between atoms: O3_56  and  C3_64 
REMARK       I    between atoms: C4_60  and  O4_61 
REMARK       I    between atoms: O4_61  and  C1_73 
REMARK       I    between atoms: C6_63  and  C5_80 
REMARK       I    between atoms: C3_65  and  O3_82 
REMARK       I    between atoms: S_67  and  O2_84 
REMARK       I    between atoms: C2_68  and  O2_98 
REMARK       I    between atoms: O4_74  and  C4_97 
REMARK       I    between atoms: C2_85  and  N_94 
REMARK       I    between atoms: C2_95  and  N_100 
REMARK       I    between atoms: O2_98  and  S_104 
REMARK       I    between atoms: S_101  and  O2_103 
ROOT
ATOM      1  O6S SGN d  66      20.916  47.897  45.226  0.00  0.00    -0.572 OA
ATOM      2  C4  SGN d  66      18.305  43.893  45.450  0.00  0.00     0.095 C 
ATOM      3  C6  SGN d  66      19.701  44.787  47.354  0.00  0.00     0.067 C 
ATOM      4  O4  SGN d  66      19.488  43.112  44.946  0.00  0.00    -0.348 OA
ATOM      5  O5S SGN d  66      22.325  46.313  46.305  0.00  0.00    -0.572 OA
ATOM      6  O2S SGN d  66      12.785  44.960  46.380  0.00  0.00    -0.296 OA
ATOM      7  O5  SGN d  66      17.223  44.804  47.458  0.00  0.00    -0.350 OA
ATOM      8  O1  SGN d  66      15.853  42.836  47.665  0.00  0.00    -0.369 OA
ATOM      9  C5  SGN d  66      18.396  44.064  46.974  0.00  0.00     0.091 C 
ATOM     10  S2  SGN d  66      21.053  46.507  45.615  0.00  0.00     0.251 S 
ATOM     11  S1  SGN d  66      13.076  43.552  46.192  0.00  0.00     0.156 S 
ATOM     12  O1S SGN d  66      12.012  42.880  45.461  0.00  0.00    -0.296 OA
ATOM     13  C1  SGN d  66      15.936  44.176  47.142  0.00  0.00     0.147 C 
ATOM     14  O3S SGN d  66      13.223  42.873  47.470  0.00  0.00    -0.296 OA
ATOM     15  C3  SGN d  66      16.970  43.247  45.043  0.00  0.00     0.083 C 
ATOM     16  O3  SGN d  66      16.855  43.257  43.621  0.00  0.00    -0.391 OA
ATOM     17  C2  SGN d  66      15.821  44.086  45.606  0.00  0.00     0.081 C 
ATOM     18  O4S SGN d  66      20.971  45.670  44.426  0.00  0.00    -0.572 OA
ATOM     19  N   SGN d  66      14.556  43.457  45.202  0.00  0.00    -0.210 NA
ATOM     20  O6  SGN d  66      19.749  46.104  46.757  0.00  0.00    -0.254 OA
ATOM     21  H   SGN d  66      18.331  44.860  44.991  0.00  0.00     0.091 H 
ATOM     22  H   SGN d  66      20.534  44.213  47.005  0.00  0.00     0.080 H 
ATOM     23  H   SGN d  66      19.741  44.890  48.418  0.00  0.00     0.080 H 
ATOM     24  H   SGN d  66      12.692  45.389  45.516  0.00  0.00     0.231 HD
ATOM     25  H   SGN d  66      15.922  42.862  48.632  0.00  0.00     0.212 HD
ATOM     26  H   SGN d  66      18.407  43.100  47.440  0.00  0.00     0.090 H 
ATOM     27  H   SGN d  66      11.888  43.311  44.601  0.00  0.00     0.231 HD
ATOM     28  H   SGN d  66      15.155  44.763  47.579  0.00  0.00     0.131 H 
ATOM     29  H   SGN d  66      13.927  43.298  47.984  0.00  0.00     0.231 HD
ATOM     30  H   SGN d  66      16.933  42.245  45.416  0.00  0.00     0.089 H 
ATOM     31  H   SGN d  66      16.891  44.172  43.301  0.00  0.00     0.210 HD
ATOM     32  H   SGN d  66      15.859  45.085  45.223  0.00  0.00     0.076 H 
ATOM     33  H   SGN d  66      14.316  43.860  44.296  0.00  0.00     0.140 HD
ATOM     34  O61 IDS d  65      17.192  39.100  43.280  0.00  0.00    -0.646 OA
ATOM     35  O3  IDS d  65      22.006  39.742  45.380  0.00  0.00    -0.390 OA
ATOM     36  C5  IDS d  65      18.786  40.794  43.827  0.00  0.00     0.152 C 
ATOM     37  C6  IDS d  65      17.688  40.193  42.910  0.00  0.00     0.206 C 
ATOM     38  O5  IDS d  65      19.295  42.004  43.185  0.00  0.00    -0.340 OA
ATOM     39  C1  IDS d  65      20.348  42.713  43.889  0.00  0.00     0.161 C 
ATOM     40  O1S IDS d  65      24.162  41.187  46.778  0.00  0.00    -0.572 OA
ATOM     41  C4  IDS d  65      19.941  39.796  44.191  0.00  0.00     0.103 C 
ATOM     42  O4  IDS d  65      19.578  38.637  43.437  0.00  0.00    -0.348 OA
ATOM     43  C2  IDS d  65      21.101  41.864  44.957  0.00  0.00     0.134 C 
ATOM     44  O62 IDS d  65      17.334  40.824  41.869  0.00  0.00    -0.646 OA
ATOM     45  C3  IDS d  65      21.307  40.480  44.429  0.00  0.00     0.094 C 
ATOM     46  O2S IDS d  65      21.961  41.567  47.612  0.00  0.00    -0.572 OA
ATOM     47  O3S IDS d  65      23.468  43.391  47.430  0.00  0.00    -0.572 OA
ATOM     48  O2  IDS d  65      22.395  42.399  45.192  0.00  0.00    -0.244 OA
ATOM     49  S   IDS d  65      23.045  42.129  46.831  0.00  0.00     0.252 S 
ATOM     50  H   IDS d  65      22.147  38.841  45.051  0.00  0.00     0.210 HD
ATOM     51  H   IDS d  65      18.340  41.026  44.771  0.00  0.00     0.104 H 
ATOM     52  H   IDS d  65      20.962  43.259  43.204  0.00  0.00     0.133 H 
ATOM     53  H   IDS d  65      20.111  39.370  45.158  0.00  0.00     0.092 H 
ATOM     54  H   IDS d  65      20.519  41.869  45.854  0.00  0.00     0.097 H 
ATOM     55  H   IDS d  65      21.848  40.529  43.507  0.00  0.00     0.091 H 
ATOM     56  O3S SGN d  62      20.106  36.050  34.671  0.00  0.00    -0.296 OA
ATOM     57  C1  SGN d  62      22.354  33.791  36.055  0.00  0.00     0.150 C 
ATOM     58  S2  SGN d  62      26.790  29.974  37.111  0.00  0.00     0.251 S 
ATOM     59  C5  SGN d  62      23.867  31.844  35.701  0.00  0.00     0.091 C 
ATOM     60  O5  SGN d  62      23.715  33.282  35.877  0.00  0.00    -0.349 OA
ATOM     61  O4S SGN d  62      28.062  30.205  36.511  0.00  0.00    -0.572 OA
ATOM     62  O6  SGN d  62      25.520  30.202  35.934  0.00  0.00    -0.254 OA
ATOM     63  O3  SGN d  62      20.729  31.293  33.805  0.00  0.00    -0.391 OA
ATOM     64  S1  SGN d  62      19.371  34.830  34.432  0.00  0.00     0.156 S 
ATOM     65  O6S SGN d  62      26.539  30.837  38.263  0.00  0.00    -0.572 OA
ATOM     66  O4  SGN d  62      23.237  29.970  34.343  0.00  0.00    -0.348 OA
ATOM     67  C6  SGN d  62      25.336  31.544  35.521  0.00  0.00     0.067 C 
ATOM     68  O5S SGN d  62      26.681  28.606  37.540  0.00  0.00    -0.572 OA
ATOM     69  O1S SGN d  62      17.998  34.929  34.880  0.00  0.00    -0.296 OA
ATOM     70  O2S SGN d  62      19.470  34.523  33.034  0.00  0.00    -0.296 OA
ATOM     71  C2  SGN d  62      21.473  33.225  34.949  0.00  0.00     0.081 C 
ATOM     72  C4  SGN d  62      23.050  31.376  34.485  0.00  0.00     0.095 C 
ATOM     73  N   SGN d  62      20.108  33.491  35.275  0.00  0.00    -0.210 NA
ATOM     74  C3  SGN d  62      21.589  31.703  34.834  0.00  0.00     0.083 C 
ATOM     75  H   SGN d  62      20.054  36.279  35.613  0.00  0.00     0.231 HD
ATOM     76  H   SGN d  62      22.426  34.858  36.023  0.00  0.00     0.131 H 
ATOM     77  H   SGN d  62      23.502  31.319  36.558  0.00  0.00     0.090 H 
ATOM     78  H   SGN d  62      19.814  31.508  34.044  0.00  0.00     0.210 HD
ATOM     79  H   SGN d  62      25.926  32.202  36.124  0.00  0.00     0.080 H 
ATOM     80  H   SGN d  62      25.641  31.685  34.504  0.00  0.00     0.080 H 
ATOM     81  H   SGN d  62      17.981  35.137  35.828  0.00  0.00     0.231 HD
ATOM     82  H   SGN d  62      20.404  34.466  32.780  0.00  0.00     0.231 HD
ATOM     83  H   SGN d  62      21.788  33.680  34.033  0.00  0.00     0.076 H 
ATOM     84  H   SGN d  62      23.338  31.846  33.567  0.00  0.00     0.091 H 
ATOM     85  H   SGN d  62      19.567  32.652  35.065  0.00  0.00     0.140 HD
ATOM     86  H   SGN d  62      21.322  31.201  35.740  0.00  0.00     0.089 H 
ATOM     87  O4  IDS d  63      21.758  33.443  37.311  0.00  0.00    -0.348 OA
ATOM     88  O62 IDS d  63      22.471  32.391  40.772  0.00  0.00    -0.646 OA
ATOM     89  C2  IDS d  63      18.964  34.504  38.158  0.00  0.00     0.134 C 
ATOM     90  O2S IDS d  63      16.403  32.851  37.562  0.00  0.00    -0.572 OA
ATOM     91  O61 IDS d  63      23.826  33.850  39.925  0.00  0.00    -0.646 OA
ATOM     92  C3  IDS d  63      20.165  35.358  37.731  0.00  0.00     0.094 C 
ATOM     93  C1  IDS d  63      19.034  34.212  39.682  0.00  0.00     0.161 C 
ATOM     94  O5  IDS d  63      20.240  33.446  39.931  0.00  0.00    -0.340 OA
ATOM     95  C4  IDS d  63      21.515  34.603  38.097  0.00  0.00     0.103 C 
ATOM     96  C6  IDS d  63      22.693  33.414  40.122  0.00  0.00     0.206 C 
ATOM     97  S   IDS d  63      17.672  32.155  37.728  0.00  0.00     0.252 S 
ATOM     98  O3  IDS d  63      20.049  36.547  38.480  0.00  0.00    -0.390 OA
ATOM     99  C5  IDS d  63      21.486  34.183  39.591  0.00  0.00     0.152 C 
ATOM    100  O2  IDS d  63      18.940  33.338  37.377  0.00  0.00    -0.244 OA
ATOM    101  O1S IDS d  63      17.852  31.091  36.758  0.00  0.00    -0.572 OA
ATOM    102  O3S IDS d  63      17.690  31.635  39.064  0.00  0.00    -0.572 OA
ATOM    103  H   IDS d  63      18.045  35.027  37.992  0.00  0.00     0.097 H 
ATOM    104  H   IDS d  63      20.181  35.548  36.678  0.00  0.00     0.091 H 
ATOM    105  H   IDS d  63      18.218  33.633  40.063  0.00  0.00     0.133 H 
ATOM    106  H   IDS d  63      22.305  35.296  37.893  0.00  0.00     0.092 H 
ATOM    107  H   IDS d  63      20.039  36.334  39.426  0.00  0.00     0.210 HD
ATOM    108  H   IDS d  63      21.524  35.128  40.092  0.00  0.00     0.104 H 
ATOM    109  O4  SGN d  64      19.030  35.521  40.331  0.00  0.00    -0.348 OA
ATOM    110  O6  SGN d  64      15.862  35.770  42.998  0.00  0.00    -0.254 OA
ATOM    111  C3  SGN d  64      20.455  36.320  42.151  0.00  0.00     0.083 C 
ATOM    112  S2  SGN d  64      16.272  34.311  43.937  0.00  0.00     0.251 S 
ATOM    113  C5  SGN d  64      17.980  36.626  42.193  0.00  0.00     0.091 C 
ATOM    114  O1S SGN d  64      23.057  35.584  45.779  0.00  0.00    -0.296 OA
ATOM    115  C2  SGN d  64      20.496  36.474  43.640  0.00  0.00     0.081 C 
ATOM    116  O4S SGN d  64      16.119  33.172  43.070  0.00  0.00    -0.572 OA
ATOM    117  O3S SGN d  64      23.290  34.991  43.493  0.00  0.00    -0.296 OA
ATOM    118  S1  SGN d  64      23.149  36.099  44.422  0.00  0.00     0.156 S 
ATOM    119  O6S SGN d  64      17.630  34.369  44.436  0.00  0.00    -0.572 OA
ATOM    120  O5S SGN d  64      15.366  34.215  45.051  0.00  0.00    -0.572 OA
ATOM    121  O3  SGN d  64      21.519  35.504  41.818  0.00  0.00    -0.391 OA
ATOM    122  C1  SGN d  64      19.362  37.372  44.064  0.00  0.00     0.150 C 
ATOM    123  O2S SGN d  64      24.271  36.985  44.280  0.00  0.00    -0.296 OA
ATOM    124  C4  SGN d  64      19.104  35.669  41.757  0.00  0.00     0.095 C 
ATOM    125  O5  SGN d  64      18.113  36.789  43.635  0.00  0.00    -0.349 OA
ATOM    126  C6  SGN d  64      16.630  36.041  41.834  0.00  0.00     0.067 C 
ATOM    127  N   SGN d  64      21.739  37.096  44.025  0.00  0.00    -0.210 NA
ATOM    128  H   SGN d  64      20.532  37.255  41.638  0.00  0.00     0.089 H 
ATOM    129  H   SGN d  64      18.053  37.572  41.697  0.00  0.00     0.090 H 
ATOM    130  H   SGN d  64      22.294  34.990  45.848  0.00  0.00     0.231 HD
ATOM    131  H   SGN d  64      20.410  35.514  44.104  0.00  0.00     0.076 H 
ATOM    132  H   SGN d  64      22.533  34.392  43.587  0.00  0.00     0.231 HD
ATOM    133  H   SGN d  64      21.440  34.660  42.289  0.00  0.00     0.210 HD
ATOM    134  H   SGN d  64      19.323  37.490  45.126  0.00  0.00     0.131 H 
ATOM    135  H   SGN d  64      25.089  36.505  44.484  0.00  0.00     0.231 HD
ATOM    136  H   SGN d  64      19.013  34.710  42.223  0.00  0.00     0.091 H 
ATOM    137  H   SGN d  64      16.100  36.738  41.221  0.00  0.00     0.080 H 
ATOM    138  H   SGN d  64      16.788  35.121  41.311  0.00  0.00     0.080 H 
ATOM    139  H   SGN d  64      21.541  37.665  44.848  0.00  0.00     0.140 HD
ATOM    140  C1  IDS d  61      23.606  29.556  33.011  0.00  0.00     0.167 C 
ATOM    141  O5  IDS d  61      22.505  29.828  32.105  0.00  0.00    -0.311 OA
ATOM    142  C5  IDS d  61      21.388  29.003  32.101  0.00  0.00     0.147 C 
ATOM    143  C6  IDS d  61      20.181  29.438  31.181  0.00  0.00     0.233 C 
ATOM    144  C2  IDS d  61      23.845  28.051  33.036  0.00  0.00     0.135 C 
ATOM    145  O1S IDS d  61      23.835  29.545  30.064  0.00  0.00    -0.572 OA
ATOM    146  O3S IDS d  61      26.034  29.379  31.036  0.00  0.00    -0.572 OA
ATOM    147  O3  IDS d  61      22.531  27.216  34.760  0.00  0.00    -0.389 OA
ATOM    148  C4  IDS d  61      21.362  27.811  32.761  0.00  0.00    -0.034 C 
ATOM    149  C3  IDS d  61      22.594  27.241  33.378  0.00  0.00     0.086 C 
ATOM    150  O61 IDS d  61      19.185  28.718  31.095  0.00  0.00    -0.642 OA
ATOM    151  O62 IDS d  61      20.254  30.498  30.512  0.00  0.00    -0.642 OA
ATOM    152  O2S IDS d  61      25.246  27.910  29.319  0.00  0.00    -0.572 OA
ATOM    153  S   IDS d  61      24.897  28.665  30.474  0.00  0.00     0.252 S 
ATOM    154  O2  IDS d  61      24.264  27.583  31.742  0.00  0.00    -0.244 OA
ATOM    155  H   IDS d  61      24.481  30.082  32.689  0.00  0.00     0.134 H 
ATOM    156  H   IDS d  61      24.591  27.905  33.790  0.00  0.00     0.097 H 
ATOM    157  H   IDS d  61      23.352  26.838  35.114  0.00  0.00     0.210 HD
ATOM    158  H   IDS d  61      20.473  27.293  32.835  0.00  0.00     0.085 H 
ATOM    159  H   IDS d  61      22.653  26.251  32.978  0.00  0.00     0.093 H 
ENDROOT
TORSDOF 50
ENDMDL
MODEL 48
REMARK VINA RESULT:      -5.3      3.190      6.276
REMARK  0 active torsions:
REMARK  status: ('A' for Active; 'I' for Inactive)
REMARK       I    between atoms: O3S_3  and  S1_55 
REMARK       I    between atoms: O3_4  and  C3_87 
REMARK       I    between atoms: O4_5  and  C1_15 
REMARK       I    between atoms: O4_5  and  C4_57 
REMARK       I    between atoms: O4_7  and  C1_36 
REMARK       I    between atoms: O4_7  and  C4_89 
REMARK       I    between atoms: C4_8  and  O4_18 
REMARK       I    between atoms: C2_9  and  O2_84 
REMARK       I    between atoms: C6_10  and  C5_32 
REMARK       I    between atoms: C6_10  and  O6_102 
REMARK       I    between atoms: O6_11  and  C6_93 
REMARK       I    between atoms: O6_11  and  S2_25 
REMARK       I    between atoms: C1_13  and  O4_74 
REMARK       I    between atoms: C3_14  and  O3_71 
REMARK       I    between atoms: O4_18  and  C1_54 
REMARK       I    between atoms: S2_19  and  O6_39 
REMARK       I    between atoms: O2S_21  and  S1_45 
REMARK       I    between atoms: C5_22  and  C6_23 
REMARK       I    between atoms: C5_24  and  C6_77 
REMARK       I    between atoms: O1_27  and  C1_48 
REMARK       I    between atoms: C5_28  and  C6_30 
REMARK       I    between atoms: C5_29  and  C6_93 
REMARK       I    between atoms: O1S_31  and  S1_44 
REMARK       I    between atoms: C3_33  and  O3_69 
REMARK       I    between atoms: C2_37  and  N_99 
REMARK       I    between atoms: S2_38  and  O6_102 
REMARK       I    between atoms: O6_39  and  C6_77 
REMARK       I    between atoms: C2_40  and  O2_103 
REMARK       I    between atoms: O3S_42  and  S1_44 
REMARK       I    between atoms: S1_44  and  N_99 
REMARK       I    between atoms: S1_44  and  O2S_81 
REMARK       I    between atoms: S1_45  and  N_94 
REMARK       I    between atoms: S1_45  and  O1S_46 
REMARK       I    between atoms: S1_45  and  O3S_58 
REMARK       I    between atoms: O3_52  and  C3_105 
REMARK       I    between atoms: S1_55  and  N_100 
REMARK       I    between atoms: S1_55  and  O1S_79 
REMARK       I    between atoms: S1_55  and  O2S_83 
REMARK       I    between atoms: O3_56  and  C3_64 
REMARK       I    between atoms: C4_60  and  O4_61 
REMARK       I    between atoms: O4_61  and  C1_73 
REMARK       I    between atoms: C6_63  and  C5_80 
REMARK       I    between atoms: C3_65  and  O3_82 
REMARK       I    between atoms: S_67  and  O2_84 
REMARK       I    between atoms: C2_68  and  O2_98 
REMARK       I    between atoms: O4_74  and  C4_97 
REMARK       I    between atoms: C2_85  and  N_94 
REMARK       I    between atoms: C2_95  and  N_100 
REMARK       I    between atoms: O2_98  and  S_104 
REMARK       I    between atoms: S_101  and  O2_103 
ROOT
ATOM      1  O6S SGN d  66      12.467  45.786  51.085  0.00  0.00    -0.572 OA
ATOM      2  C4  SGN d  66      14.387  41.474  51.874  0.00  0.00     0.095 C 
ATOM      3  C6  SGN d  66      15.413  43.648  52.643  0.00  0.00     0.067 C 
ATOM      4  O4  SGN d  66      15.129  41.584  50.569  0.00  0.00    -0.348 OA
ATOM      5  O5S SGN d  66      14.783  46.058  50.616  0.00  0.00    -0.572 OA
ATOM      6  O2S SGN d  66      11.938  38.785  56.261  0.00  0.00    -0.296 OA
ATOM      7  O5  SGN d  66      14.461  42.031  54.265  0.00  0.00    -0.350 OA
ATOM      8  O1  SGN d  66      15.425  39.886  54.778  0.00  0.00    -0.369 OA
ATOM      9  C5  SGN d  66      15.181  42.167  52.992  0.00  0.00     0.091 C 
ATOM     10  S2  SGN d  66      13.734  45.096  50.941  0.00  0.00     0.251 S 
ATOM     11  S1  SGN d  66      12.947  37.991  55.588  0.00  0.00     0.156 S 
ATOM     12  O1S SGN d  66      12.573  36.585  55.539  0.00  0.00    -0.296 OA
ATOM     13  C1  SGN d  66      14.205  40.646  54.673  0.00  0.00     0.147 C 
ATOM     14  O3S SGN d  66      14.225  38.078  56.277  0.00  0.00    -0.296 OA
ATOM     15  C3  SGN d  66      14.072  40.014  52.239  0.00  0.00     0.083 C 
ATOM     16  O3  SGN d  66      13.198  39.459  51.257  0.00  0.00    -0.391 OA
ATOM     17  C2  SGN d  66      13.337  39.986  53.581  0.00  0.00     0.081 C 
ATOM     18  O4S SGN d  66      13.610  44.085  49.901  0.00  0.00    -0.572 OA
ATOM     19  N   SGN d  66      13.041  38.585  53.910  0.00  0.00    -0.210 NA
ATOM     20  O6  SGN d  66      14.153  44.344  52.500  0.00  0.00    -0.254 OA
ATOM     21  H   SGN d  66      13.446  41.971  51.758  0.00  0.00     0.091 H 
ATOM     22  H   SGN d  66      15.956  43.711  51.723  0.00  0.00     0.080 H 
ATOM     23  H   SGN d  66      15.970  44.105  53.435  0.00  0.00     0.080 H 
ATOM     24  H   SGN d  66      11.097  38.711  55.783  0.00  0.00     0.231 HD
ATOM     25  H   SGN d  66      15.993  40.279  55.460  0.00  0.00     0.212 HD
ATOM     26  H   SGN d  66      16.138  41.698  53.090  0.00  0.00     0.090 H 
ATOM     27  H   SGN d  66      11.721  36.493  55.085  0.00  0.00     0.231 HD
ATOM     28  H   SGN d  66      13.725  40.656  55.629  0.00  0.00     0.131 H 
ATOM     29  H   SGN d  66      14.504  39.006  56.327  0.00  0.00     0.231 HD
ATOM     30  H   SGN d  66      14.984  39.457  52.289  0.00  0.00     0.089 H 
ATOM     31  H   SGN d  66      12.378  39.976  51.226  0.00  0.00     0.210 HD
ATOM     32  H   SGN d  66      12.422  40.539  53.523  0.00  0.00     0.076 H 
ATOM     33  H   SGN d  66      12.135  38.381  53.487  0.00  0.00     0.140 HD
ATOM     34  O61 IDS d  65      16.091  36.834  49.756  0.00  0.00    -0.646 OA
ATOM     35  O3  IDS d  65      18.789  41.205  48.485  0.00  0.00    -0.390 OA
ATOM     36  C5  IDS d  65      15.846  39.206  49.595  0.00  0.00     0.152 C 
ATOM     37  C6  IDS d  65      15.302  37.760  49.446  0.00  0.00     0.206 C 
ATOM     38  O5  IDS d  65      14.822  40.125  49.104  0.00  0.00    -0.340 OA
ATOM     39  C1  IDS d  65      15.149  41.538  49.150  0.00  0.00     0.161 C 
ATOM     40  O1S IDS d  65      19.438  44.080  48.544  0.00  0.00    -0.572 OA
ATOM     41  C4  IDS d  65      17.231  39.449  48.899  0.00  0.00     0.103 C 
ATOM     42  O4  IDS d  65      17.474  38.185  48.274  0.00  0.00    -0.348 OA
ATOM     43  C2  IDS d  65      16.672  41.849  49.263  0.00  0.00     0.134 C 
ATOM     44  O62 IDS d  65      14.110  37.583  49.051  0.00  0.00    -0.646 OA
ATOM     45  C3  IDS d  65      17.433  40.897  48.397  0.00  0.00     0.094 C 
ATOM     46  O2S IDS d  65      18.762  43.135  50.626  0.00  0.00    -0.572 OA
ATOM     47  O3S IDS d  65      17.969  45.286  50.010  0.00  0.00    -0.572 OA
ATOM     48  O2  IDS d  65      16.950  43.150  48.767  0.00  0.00    -0.244 OA
ATOM     49  S   IDS d  65      18.349  43.967  49.513  0.00  0.00     0.252 S 
ATOM     50  H   IDS d  65      19.296  40.594  47.928  0.00  0.00     0.210 HD
ATOM     51  H   IDS d  65      16.046  39.380  50.631  0.00  0.00     0.104 H 
ATOM     52  H   IDS d  65      14.614  42.077  48.396  0.00  0.00     0.133 H 
ATOM     53  H   IDS d  65      18.160  39.611  49.404  0.00  0.00     0.092 H 
ATOM     54  H   IDS d  65      16.952  41.767  50.292  0.00  0.00     0.097 H 
ATOM     55  H   IDS d  65      17.086  40.979  47.389  0.00  0.00     0.091 H 
ATOM     56  O3S SGN d  62      14.469  33.852  40.791  0.00  0.00    -0.296 OA
ATOM     57  C1  SGN d  62      17.779  34.347  39.856  0.00  0.00     0.150 C 
ATOM     58  S2  SGN d  62      22.890  35.174  36.931  0.00  0.00     0.251 S 
ATOM     59  C5  SGN d  62      19.569  33.962  38.167  0.00  0.00     0.091 C 
ATOM     60  O5  SGN d  62      18.587  34.865  38.752  0.00  0.00    -0.349 OA
ATOM     61  O4S SGN d  62      22.893  35.976  35.752  0.00  0.00    -0.572 OA
ATOM     62  O6  SGN d  62      21.536  34.070  36.903  0.00  0.00    -0.254 OA
ATOM     63  O3  SGN d  62      17.600  30.846  38.572  0.00  0.00    -0.391 OA
ATOM     64  S1  SGN d  62      14.901  32.474  40.764  0.00  0.00     0.156 S 
ATOM     65  O6S SGN d  62      22.840  35.965  38.158  0.00  0.00    -0.572 OA
ATOM     66  O4  SGN d  62      19.862  31.842  37.082  0.00  0.00    -0.348 OA
ATOM     67  C6  SGN d  62      20.270  34.689  37.046  0.00  0.00     0.067 C 
ATOM     68  O5S SGN d  62      24.065  34.347  36.975  0.00  0.00    -0.572 OA
ATOM     69  O1S SGN d  62      14.536  31.770  41.975  0.00  0.00    -0.296 OA
ATOM     70  O2S SGN d  62      14.353  31.862  39.588  0.00  0.00    -0.296 OA
ATOM     71  C2  SGN d  62      17.188  33.007  39.441  0.00  0.00     0.081 C 
ATOM     72  C4  SGN d  62      18.870  32.690  37.655  0.00  0.00     0.095 C 
ATOM     73  N   SGN d  62      16.636  32.376  40.598  0.00  0.00    -0.210 NA
ATOM     74  C3  SGN d  62      18.250  32.043  38.903  0.00  0.00     0.083 C 
ATOM     75  H   SGN d  62      14.829  34.289  41.579  0.00  0.00     0.231 HD
ATOM     76  H   SGN d  62      17.032  35.086  40.054  0.00  0.00     0.131 H 
ATOM     77  H   SGN d  62      20.289  33.662  38.900  0.00  0.00     0.090 H 
ATOM     78  H   SGN d  62      17.216  30.454  39.371  0.00  0.00     0.210 HD
ATOM     79  H   SGN d  62      20.389  35.724  37.292  0.00  0.00     0.080 H 
ATOM     80  H   SGN d  62      19.707  34.640  36.137  0.00  0.00     0.080 H 
ATOM     81  H   SGN d  62      14.927  32.218  42.741  0.00  0.00     0.231 HD
ATOM     82  H   SGN d  62      14.624  32.366  38.805  0.00  0.00     0.231 HD
ATOM     83  H   SGN d  62      16.464  33.205  38.680  0.00  0.00     0.076 H 
ATOM     84  H   SGN d  62      18.123  32.880  36.912  0.00  0.00     0.091 H 
ATOM     85  H   SGN d  62      16.892  31.389  40.568  0.00  0.00     0.140 HD
ATOM     86  H   SGN d  62      19.021  31.842  39.617  0.00  0.00     0.089 H 
ATOM     87  O4  IDS d  63      18.510  34.145  41.073  0.00  0.00    -0.348 OA
ATOM     88  O62 IDS d  63      21.541  35.110  42.937  0.00  0.00    -0.646 OA
ATOM     89  C2  IDS d  63      17.117  33.255  43.703  0.00  0.00     0.134 C 
ATOM     90  O2S IDS d  63      16.914  30.245  44.439  0.00  0.00    -0.572 OA
ATOM     91  O61 IDS d  63      20.562  36.692  41.831  0.00  0.00    -0.646 OA
ATOM     92  C3  IDS d  63      16.749  34.478  42.853  0.00  0.00     0.094 C 
ATOM     93  C1  IDS d  63      18.232  33.629  44.719  0.00  0.00     0.161 C 
ATOM     94  O5  IDS d  63      19.407  34.020  43.963  0.00  0.00    -0.340 OA
ATOM     95  C4  IDS d  63      18.041  35.013  42.097  0.00  0.00     0.103 C 
ATOM     96  C6  IDS d  63      20.529  35.711  42.572  0.00  0.00     0.206 C 
ATOM     97  S   IDS d  63      18.016  30.696  43.599  0.00  0.00     0.252 S 
ATOM     98  O3  IDS d  63      16.290  35.438  43.778  0.00  0.00    -0.390 OA
ATOM     99  C5  IDS d  63      19.190  35.227  43.120  0.00  0.00     0.152 C 
ATOM    100  O2  IDS d  63      17.485  32.206  42.847  0.00  0.00    -0.244 OA
ATOM    101  O1S IDS d  63      18.286  29.786  42.501  0.00  0.00    -0.572 OA
ATOM    102  O3S IDS d  63      19.163  30.821  44.451  0.00  0.00    -0.572 OA
ATOM    103  H   IDS d  63      16.279  32.926  44.281  0.00  0.00     0.097 H 
ATOM    104  H   IDS d  63      16.013  34.255  42.109  0.00  0.00     0.091 H 
ATOM    105  H   IDS d  63      18.533  32.830  45.363  0.00  0.00     0.133 H 
ATOM    106  H   IDS d  63      17.750  35.930  41.629  0.00  0.00     0.092 H 
ATOM    107  H   IDS d  63      16.983  35.613  44.434  0.00  0.00     0.210 HD
ATOM    108  H   IDS d  63      18.822  36.044  43.704  0.00  0.00     0.104 H 
ATOM    109  O4  SGN d  64      17.674  34.709  45.529  0.00  0.00    -0.348 OA
ATOM    110  O6  SGN d  64      17.757  33.653  49.541  0.00  0.00    -0.254 OA
ATOM    111  C3  SGN d  64      18.732  36.812  46.196  0.00  0.00     0.083 C 
ATOM    112  S2  SGN d  64      19.501  33.288  49.619  0.00  0.00     0.251 S 
ATOM    113  C5  SGN d  64      17.539  35.364  47.841  0.00  0.00     0.091 C 
ATOM    114  O1S SGN d  64      22.396  39.310  47.089  0.00  0.00    -0.296 OA
ATOM    115  C2  SGN d  64      19.497  37.448  47.315  0.00  0.00     0.081 C 
ATOM    116  O4S SGN d  64      19.748  32.141  48.785  0.00  0.00    -0.572 OA
ATOM    117  O3S SGN d  64      21.594  38.298  45.099  0.00  0.00    -0.296 OA
ATOM    118  S1  SGN d  64      21.285  39.248  46.153  0.00  0.00     0.156 S 
ATOM    119  O6S SGN d  64      20.295  34.409  49.160  0.00  0.00    -0.572 OA
ATOM    120  O5S SGN d  64      19.845  32.996  50.985  0.00  0.00    -0.572 OA
ATOM    121  O3  SGN d  64      19.549  36.876  45.083  0.00  0.00    -0.391 OA
ATOM    122  C1  SGN d  64      18.646  37.421  48.558  0.00  0.00     0.150 C 
ATOM    123  O2S SGN d  64      21.028  40.537  45.572  0.00  0.00    -0.296 OA
ATOM    124  C4  SGN d  64      18.421  35.342  46.580  0.00  0.00     0.095 C 
ATOM    125  O5  SGN d  64      18.309  36.053  48.870  0.00  0.00    -0.349 OA
ATOM    126  C6  SGN d  64      17.203  33.951  48.267  0.00  0.00     0.067 C 
ATOM    127  N   SGN d  64      19.779  38.823  46.983  0.00  0.00    -0.210 NA
ATOM    128  H   SGN d  64      17.803  37.304  46.000  0.00  0.00     0.089 H 
ATOM    129  H   SGN d  64      16.611  35.867  47.664  0.00  0.00     0.090 H 
ATOM    130  H   SGN d  64      22.550  38.431  47.466  0.00  0.00     0.231 HD
ATOM    131  H   SGN d  64      20.412  36.916  47.473  0.00  0.00     0.076 H 
ATOM    132  H   SGN d  64      21.768  37.427  45.489  0.00  0.00     0.231 HD
ATOM    133  H   SGN d  64      20.388  36.428  45.271  0.00  0.00     0.210 HD
ATOM    134  H   SGN d  64      19.159  37.834  49.401  0.00  0.00     0.131 H 
ATOM    135  H   SGN d  64      21.816  40.840  45.095  0.00  0.00     0.231 HD
ATOM    136  H   SGN d  64      19.335  34.808  46.743  0.00  0.00     0.091 H 
ATOM    137  H   SGN d  64      16.140  33.845  48.315  0.00  0.00     0.080 H 
ATOM    138  H   SGN d  64      17.618  33.274  47.551  0.00  0.00     0.080 H 
ATOM    139  H   SGN d  64      19.769  39.344  47.860  0.00  0.00     0.140 HD
ATOM    140  C1  IDS d  61      19.537  31.364  35.760  0.00  0.00     0.167 C 
ATOM    141  O5  IDS d  61      18.377  30.495  35.839  0.00  0.00    -0.311 OA
ATOM    142  C5  IDS d  61      18.510  29.201  36.325  0.00  0.00     0.147 C 
ATOM    143  C6  IDS d  61      17.184  28.363  36.499  0.00  0.00     0.233 C 
ATOM    144  C2  IDS d  61      20.717  30.543  35.254  0.00  0.00     0.135 C 
ATOM    145  O1S IDS d  61      17.938  30.507  33.427  0.00  0.00    -0.572 OA
ATOM    146  O3S IDS d  61      19.504  32.206  32.741  0.00  0.00    -0.572 OA
ATOM    147  O3  IDS d  61      21.774  29.698  37.142  0.00  0.00    -0.389 OA
ATOM    148  C4  IDS d  61      19.727  28.624  36.532  0.00  0.00    -0.034 C 
ATOM    149  C3  IDS d  61      20.985  29.287  36.083  0.00  0.00     0.086 C 
ATOM    150  O61 IDS d  61      17.244  27.192  36.875  0.00  0.00    -0.642 OA
ATOM    151  O62 IDS d  61      16.074  28.882  36.222  0.00  0.00    -0.642 OA
ATOM    152  O2S IDS d  61      19.239  30.126  31.588  0.00  0.00    -0.572 OA
ATOM    153  S   IDS d  61      19.228  30.781  32.851  0.00  0.00     0.252 S 
ATOM    154  O2  IDS d  61      20.472  30.076  33.916  0.00  0.00    -0.244 OA
ATOM    155  H   IDS d  61      19.331  32.188  35.109  0.00  0.00     0.134 H 
ATOM    156  H   IDS d  61      21.556  31.205  35.314  0.00  0.00     0.097 H 
ATOM    157  H   IDS d  61      22.578  30.122  36.801  0.00  0.00     0.210 HD
ATOM    158  H   IDS d  61      19.779  27.711  37.010  0.00  0.00     0.085 H 
ATOM    159  H   IDS d  61      21.481  28.538  35.502  0.00  0.00     0.093 H 
ENDROOT
TORSDOF 50
ENDMDL
MODEL 49
REMARK VINA RESULT:      -5.3      3.188      5.019
REMARK  0 active torsions:
REMARK  status: ('A' for Active; 'I' for Inactive)
REMARK       I    between atoms: O3S_3  and  S1_55 
REMARK       I    between atoms: O3_4  and  C3_87 
REMARK       I    between atoms: O4_5  and  C1_15 
REMARK       I    between atoms: O4_5  and  C4_57 
REMARK       I    between atoms: O4_7  and  C1_36 
REMARK       I    between atoms: O4_7  and  C4_89 
REMARK       I    between atoms: C4_8  and  O4_18 
REMARK       I    between atoms: C2_9  and  O2_84 
REMARK       I    between atoms: C6_10  and  C5_32 
REMARK       I    between atoms: C6_10  and  O6_102 
REMARK       I    between atoms: O6_11  and  C6_93 
REMARK       I    between atoms: O6_11  and  S2_25 
REMARK       I    between atoms: C1_13  and  O4_74 
REMARK       I    between atoms: C3_14  and  O3_71 
REMARK       I    between atoms: O4_18  and  C1_54 
REMARK       I    between atoms: S2_19  and  O6_39 
REMARK       I    between atoms: O2S_21  and  S1_45 
REMARK       I    between atoms: C5_22  and  C6_23 
REMARK       I    between atoms: C5_24  and  C6_77 
REMARK       I    between atoms: O1_27  and  C1_48 
REMARK       I    between atoms: C5_28  and  C6_30 
REMARK       I    between atoms: C5_29  and  C6_93 
REMARK       I    between atoms: O1S_31  and  S1_44 
REMARK       I    between atoms: C3_33  and  O3_69 
REMARK       I    between atoms: C2_37  and  N_99 
REMARK       I    between atoms: S2_38  and  O6_102 
REMARK       I    between atoms: O6_39  and  C6_77 
REMARK       I    between atoms: C2_40  and  O2_103 
REMARK       I    between atoms: O3S_42  and  S1_44 
REMARK       I    between atoms: S1_44  and  N_99 
REMARK       I    between atoms: S1_44  and  O2S_81 
REMARK       I    between atoms: S1_45  and  N_94 
REMARK       I    between atoms: S1_45  and  O1S_46 
REMARK       I    between atoms: S1_45  and  O3S_58 
REMARK       I    between atoms: O3_52  and  C3_105 
REMARK       I    between atoms: S1_55  and  N_100 
REMARK       I    between atoms: S1_55  and  O1S_79 
REMARK       I    between atoms: S1_55  and  O2S_83 
REMARK       I    between atoms: O3_56  and  C3_64 
REMARK       I    between atoms: C4_60  and  O4_61 
REMARK       I    between atoms: O4_61  and  C1_73 
REMARK       I    between atoms: C6_63  and  C5_80 
REMARK       I    between atoms: C3_65  and  O3_82 
REMARK       I    between atoms: S_67  and  O2_84 
REMARK       I    between atoms: C2_68  and  O2_98 
REMARK       I    between atoms: O4_74  and  C4_97 
REMARK       I    between atoms: C2_85  and  N_94 
REMARK       I    between atoms: C2_95  and  N_100 
REMARK       I    between atoms: O2_98  and  S_104 
REMARK       I    between atoms: S_101  and  O2_103 
ROOT
ATOM      1  O6S SGN d  66      26.310  29.970  53.700  0.00  0.00    -0.572 OA
ATOM      2  C4  SGN d  66      22.254  32.169  52.430  0.00  0.00     0.095 C 
ATOM      3  C6  SGN d  66      22.353  29.922  53.577  0.00  0.00     0.067 C 
ATOM      4  O4  SGN d  66      22.325  31.489  51.090  0.00  0.00    -0.348 OA
ATOM      5  O5S SGN d  66      24.968  28.259  52.737  0.00  0.00    -0.572 OA
ATOM      6  O2S SGN d  66      20.733  36.216  56.143  0.00  0.00    -0.296 OA
ATOM      7  O5  SGN d  66      21.489  31.929  54.752  0.00  0.00    -0.350 OA
ATOM      8  O1  SGN d  66      19.413  33.029  54.227  0.00  0.00    -0.369 OA
ATOM      9  C5  SGN d  66      21.576  31.246  53.455  0.00  0.00     0.091 C 
ATOM     10  S2  SGN d  66      25.076  29.692  52.992  0.00  0.00     0.251 S 
ATOM     11  S1  SGN d  66      19.855  36.129  54.993  0.00  0.00     0.156 S 
ATOM     12  O1S SGN d  66      19.390  37.443  54.576  0.00  0.00    -0.296 OA
ATOM     13  C1  SGN d  66      20.756  33.199  54.722  0.00  0.00     0.147 C 
ATOM     14  O3S SGN d  66      18.679  35.326  55.294  0.00  0.00    -0.296 OA
ATOM     15  C3  SGN d  66      21.541  33.529  52.352  0.00  0.00     0.083 C 
ATOM     16  O3  SGN d  66      22.294  34.410  51.519  0.00  0.00    -0.391 OA
ATOM     17  C2  SGN d  66      21.494  34.145  53.753  0.00  0.00     0.081 C 
ATOM     18  O4S SGN d  66      25.061  30.447  51.747  0.00  0.00    -0.572 OA
ATOM     19  N   SGN d  66      20.816  35.446  53.656  0.00  0.00    -0.210 NA
ATOM     20  O6  SGN d  66      23.707  30.163  54.027  0.00  0.00    -0.254 OA
ATOM     21  H   SGN d  66      23.256  32.365  52.751  0.00  0.00     0.091 H 
ATOM     22  H   SGN d  66      22.381  29.442  52.622  0.00  0.00     0.080 H 
ATOM     23  H   SGN d  66      21.859  29.298  54.293  0.00  0.00     0.080 H 
ATOM     24  H   SGN d  66      21.508  36.754  55.918  0.00  0.00     0.231 HD
ATOM     25  H   SGN d  66      18.923  32.437  54.818  0.00  0.00     0.212 HD
ATOM     26  H   SGN d  66      20.585  31.016  53.123  0.00  0.00     0.090 H 
ATOM     27  H   SGN d  66      20.153  38.005  54.369  0.00  0.00     0.231 HD
ATOM     28  H   SGN d  66      20.707  33.587  55.717  0.00  0.00     0.131 H 
ATOM     29  H   SGN d  66      18.955  34.440  55.576  0.00  0.00     0.231 HD
ATOM     30  H   SGN d  66      20.556  33.391  51.960  0.00  0.00     0.089 H 
ATOM     31  H   SGN d  66      23.184  34.523  51.890  0.00  0.00     0.210 HD
ATOM     32  H   SGN d  66      22.484  34.288  54.136  0.00  0.00     0.076 H 
ATOM     33  H   SGN d  66      21.545  36.130  53.453  0.00  0.00     0.140 HD
ATOM     34  O61 IDS d  65      19.407  34.469  48.491  0.00  0.00    -0.646 OA
ATOM     35  O3  IDS d  65      20.336  29.276  48.084  0.00  0.00    -0.390 OA
ATOM     36  C5  IDS d  65      20.932  32.777  49.213  0.00  0.00     0.152 C 
ATOM     37  C6  IDS d  65      20.612  34.220  48.739  0.00  0.00     0.206 C 
ATOM     38  O5  IDS d  65      22.381  32.663  49.361  0.00  0.00    -0.340 OA
ATOM     39  C1  IDS d  65      22.885  31.371  49.791  0.00  0.00     0.161 C 
ATOM     40  O1S IDS d  65      21.387  26.655  48.932  0.00  0.00    -0.572 OA
ATOM     41  C4  IDS d  65      20.348  31.651  48.290  0.00  0.00     0.103 C 
ATOM     42  O4  IDS d  65      19.755  32.412  47.234  0.00  0.00    -0.348 OA
ATOM     43  C2  IDS d  65      21.896  30.186  49.581  0.00  0.00     0.134 C 
ATOM     44  O62 IDS d  65      21.552  35.066  48.649  0.00  0.00    -0.646 OA
ATOM     45  C3  IDS d  65      21.194  30.357  48.272  0.00  0.00     0.094 C 
ATOM     46  O2S IDS d  65      20.490  28.015  50.673  0.00  0.00    -0.572 OA
ATOM     47  O3S IDS d  65      22.488  26.793  51.061  0.00  0.00    -0.572 OA
ATOM     48  O2  IDS d  65      22.604  28.958  49.498  0.00  0.00    -0.244 OA
ATOM     49  S   IDS d  65      21.710  27.522  50.064  0.00  0.00     0.252 S 
ATOM     50  H   IDS d  65      19.872  29.374  47.238  0.00  0.00     0.210 HD
ATOM     51  H   IDS d  65      20.442  32.619  50.151  0.00  0.00     0.104 H 
ATOM     52  H   IDS d  65      23.884  31.218  49.440  0.00  0.00     0.133 H 
ATOM     53  H   IDS d  65      19.546  30.992  48.546  0.00  0.00     0.092 H 
ATOM     54  H   IDS d  65      21.213  30.175  50.404  0.00  0.00     0.097 H 
ATOM     55  H   IDS d  65      21.918  30.412  47.486  0.00  0.00     0.091 H 
ATOM     56  O3S SGN d  62      22.773  36.904  39.851  0.00  0.00    -0.296 OA
ATOM     57  C1  SGN d  62      21.024  34.350  38.272  0.00  0.00     0.150 C 
ATOM     58  S2  SGN d  62      18.984  30.211  34.521  0.00  0.00     0.251 S 
ATOM     59  C5  SGN d  62      20.227  33.356  36.132  0.00  0.00     0.091 C 
ATOM     60  O5  SGN d  62      21.182  33.333  37.231  0.00  0.00    -0.349 OA
ATOM     61  O4S SGN d  62      19.913  29.474  33.729  0.00  0.00    -0.572 OA
ATOM     62  O6  SGN d  62      19.387  31.911  34.493  0.00  0.00    -0.254 OA
ATOM     63  O3  SGN d  62      19.811  37.037  35.982  0.00  0.00    -0.391 OA
ATOM     64  S1  SGN d  62      21.727  37.693  39.243  0.00  0.00     0.156 S 
ATOM     65  O6S SGN d  62      18.928  29.753  35.907  0.00  0.00    -0.572 OA
ATOM     66  O4  SGN d  62      19.330  34.699  34.358  0.00  0.00    -0.348 OA
ATOM     67  C6  SGN d  62      20.582  32.242  35.176  0.00  0.00     0.067 C 
ATOM     68  O5S SGN d  62      17.664  30.115  33.960  0.00  0.00    -0.572 OA
ATOM     69  O1S SGN d  62      21.102  38.585  40.196  0.00  0.00    -0.296 OA
ATOM     70  O2S SGN d  62      22.294  38.393  38.127  0.00  0.00    -0.296 OA
ATOM     71  C2  SGN d  62      20.907  35.714  37.607  0.00  0.00     0.081 C 
ATOM     72  C4  SGN d  62      20.267  34.725  35.432  0.00  0.00     0.095 C 
ATOM     73  N   SGN d  62      20.480  36.662  38.587  0.00  0.00    -0.210 NA
ATOM     74  C3  SGN d  62      19.842  35.737  36.507  0.00  0.00     0.083 C 
ATOM     75  H   SGN d  62      22.413  36.419  40.610  0.00  0.00     0.231 HD
ATOM     76  H   SGN d  62      21.883  34.268  38.904  0.00  0.00     0.131 H 
ATOM     77  H   SGN d  62      19.231  33.207  36.494  0.00  0.00     0.090 H 
ATOM     78  H   SGN d  62      19.541  37.660  36.674  0.00  0.00     0.210 HD
ATOM     79  H   SGN d  62      20.950  31.393  35.714  0.00  0.00     0.080 H 
ATOM     80  H   SGN d  62      21.350  32.544  34.494  0.00  0.00     0.080 H 
ATOM     81  H   SGN d  62      20.734  38.069  40.931  0.00  0.00     0.231 HD
ATOM     82  H   SGN d  62      22.700  37.757  37.518  0.00  0.00     0.231 HD
ATOM     83  H   SGN d  62      21.864  35.941  37.186  0.00  0.00     0.076 H 
ATOM     84  H   SGN d  62      21.228  34.974  35.031  0.00  0.00     0.091 H 
ATOM     85  H   SGN d  62      19.774  37.260  38.156  0.00  0.00     0.140 HD
ATOM     86  H   SGN d  62      18.870  35.479  36.872  0.00  0.00     0.089 H 
ATOM     87  O4  IDS d  63      19.868  34.166  39.100  0.00  0.00    -0.348 OA
ATOM     88  O62 IDS d  63      17.392  31.701  40.278  0.00  0.00    -0.646 OA
ATOM     89  C2  IDS d  63      19.290  35.988  41.549  0.00  0.00     0.134 C 
ATOM     90  O2S IDS d  63      17.505  38.511  41.251  0.00  0.00    -0.572 OA
ATOM     91  O61 IDS d  63      19.426  30.986  40.083  0.00  0.00    -0.646 OA
ATOM     92  C3  IDS d  63      20.578  35.192  41.297  0.00  0.00     0.094 C 
ATOM     93  C1  IDS d  63      18.251  35.100  42.286  0.00  0.00     0.161 C 
ATOM     94  O5  IDS d  63      17.925  33.985  41.416  0.00  0.00    -0.340 OA
ATOM     95  C4  IDS d  63      20.244  33.892  40.444  0.00  0.00     0.103 C 
ATOM     96  C6  IDS d  63      18.607  31.838  40.428  0.00  0.00     0.206 C 
ATOM     97  S   IDS d  63      17.300  37.388  40.346  0.00  0.00     0.252 S 
ATOM     98  O3  IDS d  63      21.038  34.831  42.580  0.00  0.00    -0.390 OA
ATOM     99  C5  IDS d  63      19.090  33.107  41.124  0.00  0.00     0.152 C 
ATOM    100  O2  IDS d  63      18.819  36.482  40.323  0.00  0.00    -0.244 OA
ATOM    101  O1S IDS d  63      17.078  37.812  38.976  0.00  0.00    -0.572 OA
ATOM    102  O3S IDS d  63      16.172  36.655  40.842  0.00  0.00    -0.572 OA
ATOM    103  H   IDS d  63      19.479  36.826  42.188  0.00  0.00     0.097 H 
ATOM    104  H   IDS d  63      21.308  35.753  40.753  0.00  0.00     0.091 H 
ATOM    105  H   IDS d  63      17.328  35.591  42.514  0.00  0.00     0.133 H 
ATOM    106  H   IDS d  63      21.149  33.321  40.411  0.00  0.00     0.092 H 
ATOM    107  H   IDS d  63      20.351  34.325  43.041  0.00  0.00     0.210 HD
ATOM    108  H   IDS d  63      19.551  32.765  42.027  0.00  0.00     0.104 H 
ATOM    109  O4  SGN d  64      18.896  34.697  43.533  0.00  0.00    -0.348 OA
ATOM    110  O6  SGN d  64      16.570  35.856  46.768  0.00  0.00    -0.254 OA
ATOM    111  C3  SGN d  64      18.977  32.475  44.554  0.00  0.00     0.083 C 
ATOM    112  S2  SGN d  64      15.070  35.049  46.239  0.00  0.00     0.251 S 
ATOM    113  C5  SGN d  64      18.370  34.504  45.874  0.00  0.00     0.091 C 
ATOM    114  O1S SGN d  64      17.277  28.333  45.202  0.00  0.00    -0.296 OA
ATOM    115  C2  SGN d  64      18.289  31.614  45.568  0.00  0.00     0.081 C 
ATOM    116  O4S SGN d  64      14.624  35.697  45.032  0.00  0.00    -0.572 OA
ATOM    117  O3S SGN d  64      18.158  29.422  43.287  0.00  0.00    -0.296 OA
ATOM    118  S1  SGN d  64      18.449  28.987  44.642  0.00  0.00     0.156 S 
ATOM    119  O6S SGN d  64      15.290  33.640  45.987  0.00  0.00    -0.572 OA
ATOM    120  O5S SGN d  64      14.084  35.193  47.276  0.00  0.00    -0.572 OA
ATOM    121  O3  SGN d  64      18.887  31.803  43.351  0.00  0.00    -0.391 OA
ATOM    122  C1  SGN d  64      18.369  32.292  46.912  0.00  0.00     0.150 C 
ATOM    123  O2S SGN d  64      19.577  28.097  44.624  0.00  0.00    -0.296 OA
ATOM    124  C4  SGN d  64      18.249  33.843  44.489  0.00  0.00     0.095 C 
ATOM    125  O5  SGN d  64      17.746  33.591  46.823  0.00  0.00    -0.349 OA
ATOM    126  C6  SGN d  64      17.673  35.848  45.872  0.00  0.00     0.067 C 
ATOM    127  N   SGN d  64      18.965  30.344  45.657  0.00  0.00    -0.210 NA
ATOM    128  H   SGN d  64      20.002  32.660  44.799  0.00  0.00     0.089 H 
ATOM    129  H   SGN d  64      19.392  34.682  46.137  0.00  0.00     0.090 H 
ATOM    130  H   SGN d  64      16.531  28.952  45.203  0.00  0.00     0.231 HD
ATOM    131  H   SGN d  64      17.269  31.466  45.282  0.00  0.00     0.076 H 
ATOM    132  H   SGN d  64      17.396  30.023  43.297  0.00  0.00     0.231 HD
ATOM    133  H   SGN d  64      17.954  31.640  43.140  0.00  0.00     0.210 HD
ATOM    134  H   SGN d  64      17.862  31.735  47.671  0.00  0.00     0.131 H 
ATOM    135  H   SGN d  64      19.367  27.321  44.081  0.00  0.00     0.231 HD
ATOM    136  H   SGN d  64      17.227  33.697  44.206  0.00  0.00     0.091 H 
ATOM    137  H   SGN d  64      18.370  36.603  46.170  0.00  0.00     0.080 H 
ATOM    138  H   SGN d  64      17.308  36.039  44.885  0.00  0.00     0.080 H 
ATOM    139  H   SGN d  64      18.883  30.034  46.625  0.00  0.00     0.140 HD
ATOM    140  C1  IDS d  61      19.868  35.142  33.095  0.00  0.00     0.167 C 
ATOM    141  O5  IDS d  61      20.211  36.549  33.190  0.00  0.00    -0.311 OA
ATOM    142  C5  IDS d  61      19.212  37.512  33.154  0.00  0.00     0.147 C 
ATOM    143  C6  IDS d  61      19.652  39.009  33.390  0.00  0.00     0.233 C 
ATOM    144  C2  IDS d  61      18.780  34.984  32.039  0.00  0.00     0.135 C 
ATOM    145  O1S IDS d  61      21.558  36.578  31.141  0.00  0.00    -0.572 OA
ATOM    146  O3S IDS d  61      21.622  34.215  30.669  0.00  0.00    -0.572 OA
ATOM    147  O3  IDS d  61      16.756  35.158  33.166  0.00  0.00    -0.389 OA
ATOM    148  C4  IDS d  61      17.927  37.213  32.814  0.00  0.00    -0.034 C 
ATOM    149  C3  IDS d  61      17.557  35.867  32.289  0.00  0.00     0.086 C 
ATOM    150  O61 IDS d  61      18.818  39.913  33.317  0.00  0.00    -0.642 OA
ATOM    151  O62 IDS d  61      20.857  39.279  33.618  0.00  0.00    -0.642 OA
ATOM    152  O2S IDS d  61      21.182  35.873  29.000  0.00  0.00    -0.572 OA
ATOM    153  S   IDS d  61      21.009  35.499  30.362  0.00  0.00     0.252 S 
ATOM    154  O2  IDS d  61      19.272  35.366  30.744  0.00  0.00    -0.244 OA
ATOM    155  H   IDS d  61      20.738  34.571  32.843  0.00  0.00     0.134 H 
ATOM    156  H   IDS d  61      18.500  33.952  32.088  0.00  0.00     0.097 H 
ATOM    157  H   IDS d  61      16.543  34.293  32.783  0.00  0.00     0.210 HD
ATOM    158  H   IDS d  61      17.194  37.932  32.921  0.00  0.00     0.085 H 
ATOM    159  H   IDS d  61      17.038  36.075  31.377  0.00  0.00     0.093 H 
ENDROOT
TORSDOF 50
ENDMDL
MODEL 50
REMARK VINA RESULT:      -5.3      4.384      7.410
REMARK  0 active torsions:
REMARK  status: ('A' for Active; 'I' for Inactive)
REMARK       I    between atoms: O3S_3  and  S1_55 
REMARK       I    between atoms: O3_4  and  C3_87 
REMARK       I    between atoms: O4_5  and  C1_15 
REMARK       I    between atoms: O4_5  and  C4_57 
REMARK       I    between atoms: O4_7  and  C1_36 
REMARK       I    between atoms: O4_7  and  C4_89 
REMARK       I    between atoms: C4_8  and  O4_18 
REMARK       I    between atoms: C2_9  and  O2_84 
REMARK       I    between atoms: C6_10  and  C5_32 
REMARK       I    between atoms: C6_10  and  O6_102 
REMARK       I    between atoms: O6_11  and  C6_93 
REMARK       I    between atoms: O6_11  and  S2_25 
REMARK       I    between atoms: C1_13  and  O4_74 
REMARK       I    between atoms: C3_14  and  O3_71 
REMARK       I    between atoms: O4_18  and  C1_54 
REMARK       I    between atoms: S2_19  and  O6_39 
REMARK       I    between atoms: O2S_21  and  S1_45 
REMARK       I    between atoms: C5_22  and  C6_23 
REMARK       I    between atoms: C5_24  and  C6_77 
REMARK       I    between atoms: O1_27  and  C1_48 
REMARK       I    between atoms: C5_28  and  C6_30 
REMARK       I    between atoms: C5_29  and  C6_93 
REMARK       I    between atoms: O1S_31  and  S1_44 
REMARK       I    between atoms: C3_33  and  O3_69 
REMARK       I    between atoms: C2_37  and  N_99 
REMARK       I    between atoms: S2_38  and  O6_102 
REMARK       I    between atoms: O6_39  and  C6_77 
REMARK       I    between atoms: C2_40  and  O2_103 
REMARK       I    between atoms: O3S_42  and  S1_44 
REMARK       I    between atoms: S1_44  and  N_99 
REMARK       I    between atoms: S1_44  and  O2S_81 
REMARK       I    between atoms: S1_45  and  N_94 
REMARK       I    between atoms: S1_45  and  O1S_46 
REMARK       I    between atoms: S1_45  and  O3S_58 
REMARK       I    between atoms: O3_52  and  C3_105 
REMARK       I    between atoms: S1_55  and  N_100 
REMARK       I    between atoms: S1_55  and  O1S_79 
REMARK       I    between atoms: S1_55  and  O2S_83 
REMARK       I    between atoms: O3_56  and  C3_64 
REMARK       I    between atoms: C4_60  and  O4_61 
REMARK       I    between atoms: O4_61  and  C1_73 
REMARK       I    between atoms: C6_63  and  C5_80 
REMARK       I    between atoms: C3_65  and  O3_82 
REMARK       I    between atoms: S_67  and  O2_84 
REMARK       I    between atoms: C2_68  and  O2_98 
REMARK       I    between atoms: O4_74  and  C4_97 
REMARK       I    between atoms: C2_85  and  N_94 
REMARK       I    between atoms: C2_95  and  N_100 
REMARK       I    between atoms: O2_98  and  S_104 
REMARK       I    between atoms: S_101  and  O2_103 
ROOT
ATOM      1  O6S SGN d  66      13.950  49.445  46.352  0.00  0.00    -0.572 OA
ATOM      2  C4  SGN d  66      15.112  45.192  48.212  0.00  0.00     0.095 C 
ATOM      3  C6  SGN d  66      16.398  47.324  48.629  0.00  0.00     0.067 C 
ATOM      4  O4  SGN d  66      15.962  44.914  47.003  0.00  0.00    -0.348 OA
ATOM      5  O5S SGN d  66      16.310  49.295  46.095  0.00  0.00    -0.572 OA
ATOM      6  O2S SGN d  66      11.938  43.881  52.760  0.00  0.00    -0.296 OA
ATOM      7  O5  SGN d  66      15.082  46.243  50.433  0.00  0.00    -0.350 OA
ATOM      8  O1  SGN d  66      15.660  44.153  51.476  0.00  0.00    -0.369 OA
ATOM      9  C5  SGN d  66      15.913  45.999  49.246  0.00  0.00     0.091 C 
ATOM     10  S2  SGN d  66      15.102  48.577  46.493  0.00  0.00     0.251 S 
ATOM     11  S1  SGN d  66      12.861  42.830  52.379  0.00  0.00     0.156 S 
ATOM     12  O1S SGN d  66      12.280  41.511  52.578  0.00  0.00    -0.296 OA
ATOM     13  C1  SGN d  66      14.584  45.027  51.084  0.00  0.00     0.147 C 
ATOM     14  O3S SGN d  66      14.080  42.893  53.172  0.00  0.00    -0.296 OA
ATOM     15  C3  SGN d  66      14.548  43.903  48.832  0.00  0.00     0.083 C 
ATOM     16  O3  SGN d  66      13.678  43.270  47.894  0.00  0.00    -0.391 OA
ATOM     17  C2  SGN d  66      13.713  44.268  50.062  0.00  0.00     0.081 C 
ATOM     18  O4S SGN d  66      14.906  47.389  45.674  0.00  0.00    -0.572 OA
ATOM     19  N   SGN d  66      13.178  43.025  50.636  0.00  0.00    -0.210 NA
ATOM     20  O6  SGN d  66      15.276  48.134  48.209  0.00  0.00    -0.254 OA
ATOM     21  H   SGN d  66      14.271  45.774  47.895  0.00  0.00     0.091 H 
ATOM     22  H   SGN d  66      17.015  47.111  47.781  0.00  0.00     0.080 H 
ATOM     23  H   SGN d  66      16.954  47.864  49.367  0.00  0.00     0.080 H 
ATOM     24  H   SGN d  66      11.136  43.818  52.218  0.00  0.00     0.231 HD
ATOM     25  H   SGN d  66      16.225  44.605  52.122  0.00  0.00     0.212 HD
ATOM     26  H   SGN d  66      16.775  45.439  49.542  0.00  0.00     0.090 H 
ATOM     27  H   SGN d  66      11.463  41.437  52.061  0.00  0.00     0.231 HD
ATOM     28  H   SGN d  66      14.037  45.311  51.959  0.00  0.00     0.131 H 
ATOM     29  H   SGN d  66      14.494  43.763  53.061  0.00  0.00     0.231 HD
ATOM     30  H   SGN d  66      15.356  43.253  49.095  0.00  0.00     0.089 H 
ATOM     31  H   SGN d  66      12.953  43.873  47.668  0.00  0.00     0.210 HD
ATOM     32  H   SGN d  66      12.902  44.912  49.791  0.00  0.00     0.076 H 
ATOM     33  H   SGN d  66      12.289  42.857  50.166  0.00  0.00     0.140 HD
ATOM     34  O61 IDS d  65      16.240  40.016  47.290  0.00  0.00    -0.646 OA
ATOM     35  O3  IDS d  65      19.673  43.601  45.456  0.00  0.00    -0.390 OA
ATOM     36  C5  IDS d  65      16.378  42.306  46.621  0.00  0.00     0.152 C 
ATOM     37  C6  IDS d  65      15.630  40.949  46.711  0.00  0.00     0.206 C 
ATOM     38  O5  IDS d  65      15.551  43.225  45.842  0.00  0.00    -0.340 OA
ATOM     39  C1  IDS d  65      16.088  44.557  45.634  0.00  0.00     0.161 C 
ATOM     40  O1S IDS d  65      20.752  46.305  44.997  0.00  0.00    -0.572 OA
ATOM     41  C4  IDS d  65      17.835  42.203  46.046  0.00  0.00     0.103 C 
ATOM     42  O4  IDS d  65      17.927  40.813  45.724  0.00  0.00    -0.348 OA
ATOM     43  C2  IDS d  65      17.626  44.678  45.848  0.00  0.00     0.134 C 
ATOM     44  O62 IDS d  65      14.461  40.852  46.232  0.00  0.00    -0.646 OA
ATOM     45  C3  IDS d  65      18.297  43.466  45.285  0.00  0.00     0.094 C 
ATOM     46  O2S IDS d  65      19.776  45.938  47.141  0.00  0.00    -0.572 OA
ATOM     47  O3S IDS d  65      19.376  47.989  46.015  0.00  0.00    -0.572 OA
ATOM     48  O2  IDS d  65      18.140  45.789  45.130  0.00  0.00    -0.244 OA
ATOM     49  S   IDS d  65      19.586  46.554  45.843  0.00  0.00     0.252 S 
ATOM     50  H   IDS d  65      20.122  42.820  45.095  0.00  0.00     0.210 HD
ATOM     51  H   IDS d  65      16.520  42.674  47.615  0.00  0.00     0.104 H 
ATOM     52  H   IDS d  65      15.703  44.985  44.732  0.00  0.00     0.133 H 
ATOM     53  H   IDS d  65      18.735  42.345  46.607  0.00  0.00     0.092 H 
ATOM     54  H   IDS d  65      17.808  44.786  46.897  0.00  0.00     0.097 H 
ATOM     55  H   IDS d  65      18.047  43.371  44.249  0.00  0.00     0.091 H 
ATOM     56  O3S SGN d  62      14.889  35.393  39.000  0.00  0.00    -0.296 OA
ATOM     57  C1  SGN d  62      18.299  35.222  38.355  0.00  0.00     0.150 C 
ATOM     58  S2  SGN d  62      23.692  34.697  35.903  0.00  0.00     0.251 S 
ATOM     59  C5  SGN d  62      20.136  34.241  36.988  0.00  0.00     0.091 C 
ATOM     60  O5  SGN d  62      19.263  35.374  37.264  0.00  0.00    -0.349 OA
ATOM     61  O4S SGN d  62      23.911  35.214  34.593  0.00  0.00    -0.572 OA
ATOM     62  O6  SGN d  62      22.190  33.806  35.953  0.00  0.00    -0.254 OA
ATOM     63  O3  SGN d  62      17.683  31.582  37.802  0.00  0.00    -0.391 OA
ATOM     64  S1  SGN d  62      15.104  33.997  39.304  0.00  0.00     0.156 S 
ATOM     65  O6S SGN d  62      23.668  35.737  36.929  0.00  0.00    -0.572 OA
ATOM     66  O4  SGN d  62      20.183  31.916  36.398  0.00  0.00    -0.348 OA
ATOM     67  C6  SGN d  62      21.028  34.606  35.826  0.00  0.00     0.067 C 
ATOM     68  O5S SGN d  62      24.717  33.750  36.245  0.00  0.00    -0.572 OA
ATOM     69  O1S SGN d  62      14.540  33.630  40.586  0.00  0.00    -0.296 OA
ATOM     70  O2S SGN d  62      14.562  33.222  38.225  0.00  0.00    -0.296 OA
ATOM     71  C2  SGN d  62      17.543  33.916  38.161  0.00  0.00     0.081 C 
ATOM     72  C4  SGN d  62      19.292  32.994  36.673  0.00  0.00     0.095 C 
ATOM     73  N   SGN d  62      16.811  33.633  39.354  0.00  0.00    -0.210 NA
ATOM     74  C3  SGN d  62      18.482  32.725  37.951  0.00  0.00     0.083 C 
ATOM     75  H   SGN d  62      15.249  35.939  39.718  0.00  0.00     0.231 HD
ATOM     76  H   SGN d  62      17.662  36.081  38.314  0.00  0.00     0.131 H 
ATOM     77  H   SGN d  62      20.741  34.015  37.841  0.00  0.00     0.090 H 
ATOM     78  H   SGN d  62      17.181  31.429  38.618  0.00  0.00     0.210 HD
ATOM     79  H   SGN d  62      21.285  35.643  35.866  0.00  0.00     0.080 H 
ATOM     80  H   SGN d  62      20.538  34.435  34.890  0.00  0.00     0.080 H 
ATOM     81  H   SGN d  62      14.934  34.178  41.282  0.00  0.00     0.231 HD
ATOM     82  H   SGN d  62      14.969  33.502  37.390  0.00  0.00     0.231 HD
ATOM     83  H   SGN d  62      16.920  34.038  37.299  0.00  0.00     0.076 H 
ATOM     84  H   SGN d  62      18.644  33.116  35.829  0.00  0.00     0.091 H 
ATOM     85  H   SGN d  62      16.912  32.638  39.555  0.00  0.00     0.140 HD
ATOM     86  H   SGN d  62      19.154  32.582  38.771  0.00  0.00     0.089 H 
ATOM     87  O4  IDS d  63      18.892  35.196  39.660  0.00  0.00    -0.348 OA
ATOM     88  O62 IDS d  63      21.879  36.129  41.610  0.00  0.00    -0.646 OA
ATOM     89  C2  IDS d  63      17.175  35.096  42.247  0.00  0.00     0.134 C 
ATOM     90  O2S IDS d  63      16.451  32.375  43.556  0.00  0.00    -0.572 OA
ATOM     91  O61 IDS d  63      21.247  37.547  40.102  0.00  0.00    -0.646 OA
ATOM     92  C3  IDS d  63      17.069  36.142  41.129  0.00  0.00     0.094 C 
ATOM     93  C1  IDS d  63      18.250  35.530  43.281  0.00  0.00     0.161 C 
ATOM     94  O5  IDS d  63      19.527  35.585  42.595  0.00  0.00    -0.340 OA
ATOM     95  C4  IDS d  63      18.484  36.321  40.427  0.00  0.00     0.103 C 
ATOM     96  C6  IDS d  63      21.004  36.765  41.020  0.00  0.00     0.206 C 
ATOM     97  S   IDS d  63      17.673  32.480  42.768  0.00  0.00     0.252 S 
ATOM     98  O3  IDS d  63      16.692  37.334  41.783  0.00  0.00    -0.390 OA
ATOM     99  C5  IDS d  63      19.567  36.597  41.505  0.00  0.00     0.152 C 
ATOM    100  O2  IDS d  63      17.443  33.846  41.669  0.00  0.00    -0.244 OA
ATOM    101  O1S IDS d  63      17.884  31.324  41.916  0.00  0.00    -0.572 OA
ATOM    102  O3S IDS d  63      18.755  32.632  43.697  0.00  0.00    -0.572 OA
ATOM    103  H   IDS d  63      16.253  35.017  42.785  0.00  0.00     0.097 H 
ATOM    104  H   IDS d  63      16.368  35.863  40.370  0.00  0.00     0.091 H 
ATOM    105  H   IDS d  63      18.373  34.858  44.105  0.00  0.00     0.133 H 
ATOM    106  H   IDS d  63      18.376  37.144  39.752  0.00  0.00     0.092 H 
ATOM    107  H   IDS d  63      17.350  37.554  42.461  0.00  0.00     0.210 HD
ATOM    108  H   IDS d  63      19.285  37.563  41.866  0.00  0.00     0.104 H 
ATOM    109  O4  SGN d  64      17.804  36.826  43.787  0.00  0.00    -0.348 OA
ATOM    110  O6  SGN d  64      17.406  36.671  47.914  0.00  0.00    -0.254 OA
ATOM    111  C3  SGN d  64      19.119  38.862  44.122  0.00  0.00     0.083 C 
ATOM    112  S2  SGN d  64      19.060  36.101  48.257  0.00  0.00     0.251 S 
ATOM    113  C5  SGN d  64      17.590  37.983  45.887  0.00  0.00     0.091 C 
ATOM    114  O1S SGN d  64      23.043  40.980  44.883  0.00  0.00    -0.296 OA
ATOM    115  C2  SGN d  64      19.882  39.618  45.165  0.00  0.00     0.081 C 
ATOM    116  O4S SGN d  64      19.192  34.777  47.708  0.00  0.00    -0.572 OA
ATOM    117  O3S SGN d  64      22.253  39.675  43.066  0.00  0.00    -0.296 OA
ATOM    118  S1  SGN d  64      22.013  40.865  43.863  0.00  0.00     0.156 S 
ATOM    119  O6S SGN d  64      20.052  36.977  47.669  0.00  0.00    -0.572 OA
ATOM    120  O5S SGN d  64      19.247  36.071  49.683  0.00  0.00    -0.572 OA
ATOM    121  O3  SGN d  64      20.021  38.571  43.116  0.00  0.00    -0.391 OA
ATOM    122  C1  SGN d  64      18.942  39.979  46.285  0.00  0.00     0.150 C 
ATOM    123  O2S SGN d  64      22.004  42.018  43.006  0.00  0.00    -0.296 OA
ATOM    124  C4  SGN d  64      18.555  37.567  44.762  0.00  0.00     0.095 C 
ATOM    125  O5  SGN d  64      18.373  38.770  46.831  0.00  0.00    -0.349 OA
ATOM    126  C6  SGN d  64      17.007  36.755  46.554  0.00  0.00     0.067 C 
ATOM    127  N   SGN d  64      20.398  40.837  44.592  0.00  0.00    -0.210 NA
ATOM    128  H   SGN d  64      18.295  39.420  43.729  0.00  0.00     0.089 H 
ATOM    129  H   SGN d  64      16.768  38.555  45.509  0.00  0.00     0.090 H 
ATOM    130  H   SGN d  64      23.029  40.192  45.447  0.00  0.00     0.231 HD
ATOM    131  H   SGN d  64      20.688  39.016  45.528  0.00  0.00     0.076 H 
ATOM    132  H   SGN d  64      22.260  38.895  43.643  0.00  0.00     0.231 HD
ATOM    133  H   SGN d  64      20.763  38.066  43.484  0.00  0.00     0.210 HD
ATOM    134  H   SGN d  64      19.444  40.493  47.077  0.00  0.00     0.131 H 
ATOM    135  H   SGN d  64      22.865  42.101  42.567  0.00  0.00     0.231 HD
ATOM    136  H   SGN d  64      19.359  36.964  45.130  0.00  0.00     0.091 H 
ATOM    137  H   SGN d  64      15.940  36.805  46.505  0.00  0.00     0.080 H 
ATOM    138  H   SGN d  64      17.368  35.888  46.041  0.00  0.00     0.080 H 
ATOM    139  H   SGN d  64      20.400  41.534  45.337  0.00  0.00     0.140 HD
ATOM    140  C1  IDS d  61      19.893  31.209  35.175  0.00  0.00     0.167 C 
ATOM    141  O5  IDS d  61      18.610  30.542  35.301  0.00  0.00    -0.311 OA
ATOM    142  C5  IDS d  61      18.502  29.379  36.053  0.00  0.00     0.147 C 
ATOM    143  C6  IDS d  61      17.053  28.786  36.248  0.00  0.00     0.233 C 
ATOM    144  C2  IDS d  61      20.968  30.146  34.980  0.00  0.00     0.135 C 
ATOM    145  O1S IDS d  61      18.370  30.086  32.904  0.00  0.00    -0.572 OA
ATOM    146  O3S IDS d  61      20.229  31.367  32.062  0.00  0.00    -0.572 OA
ATOM    147  O3  IDS d  61      21.730  29.600  37.105  0.00  0.00    -0.389 OA
ATOM    148  C4  IDS d  61      19.595  28.704  36.507  0.00  0.00    -0.034 C 
ATOM    149  C3  IDS d  61      20.972  29.077  36.072  0.00  0.00     0.086 C 
ATOM    150  O61 IDS d  61      16.901  27.728  36.860  0.00  0.00    -0.642 OA
ATOM    151  O62 IDS d  61      16.062  29.375  35.750  0.00  0.00    -0.642 OA
ATOM    152  O2S IDS d  61      19.738  29.140  31.337  0.00  0.00    -0.572 OA
ATOM    153  S   IDS d  61      19.728  30.051  32.430  0.00  0.00     0.252 S 
ATOM    154  O2  IDS d  61      20.760  29.435  33.747  0.00  0.00    -0.244 OA
ATOM    155  H   IDS d  61      19.869  31.891  34.350  0.00  0.00     0.134 H 
ATOM    156  H   IDS d  61      21.892  30.686  34.996  0.00  0.00     0.097 H 
ATOM    157  H   IDS d  61      22.613  29.827  36.776  0.00  0.00     0.210 HD
ATOM    158  H   IDS d  61      19.468  27.919  37.164  0.00  0.00     0.085 H 
ATOM    159  H   IDS d  61      21.391  28.160  35.715  0.00  0.00     0.093 H 
ENDROOT
TORSDOF 50
ENDMDL
MODEL 51
REMARK VINA RESULT:      -5.3      3.641      6.208
REMARK  0 active torsions:
REMARK  status: ('A' for Active; 'I' for Inactive)
REMARK       I    between atoms: O3S_3  and  S1_55 
REMARK       I    between atoms: O3_4  and  C3_87 
REMARK       I    between atoms: O4_5  and  C1_15 
REMARK       I    between atoms: O4_5  and  C4_57 
REMARK       I    between atoms: O4_7  and  C1_36 
REMARK       I    between atoms: O4_7  and  C4_89 
REMARK       I    between atoms: C4_8  and  O4_18 
REMARK       I    between atoms: C2_9  and  O2_84 
REMARK       I    between atoms: C6_10  and  C5_32 
REMARK       I    between atoms: C6_10  and  O6_102 
REMARK       I    between atoms: O6_11  and  C6_93 
REMARK       I    between atoms: O6_11  and  S2_25 
REMARK       I    between atoms: C1_13  and  O4_74 
REMARK       I    between atoms: C3_14  and  O3_71 
REMARK       I    between atoms: O4_18  and  C1_54 
REMARK       I    between atoms: S2_19  and  O6_39 
REMARK       I    between atoms: O2S_21  and  S1_45 
REMARK       I    between atoms: C5_22  and  C6_23 
REMARK       I    between atoms: C5_24  and  C6_77 
REMARK       I    between atoms: O1_27  and  C1_48 
REMARK       I    between atoms: C5_28  and  C6_30 
REMARK       I    between atoms: C5_29  and  C6_93 
REMARK       I    between atoms: O1S_31  and  S1_44 
REMARK       I    between atoms: C3_33  and  O3_69 
REMARK       I    between atoms: C2_37  and  N_99 
REMARK       I    between atoms: S2_38  and  O6_102 
REMARK       I    between atoms: O6_39  and  C6_77 
REMARK       I    between atoms: C2_40  and  O2_103 
REMARK       I    between atoms: O3S_42  and  S1_44 
REMARK       I    between atoms: S1_44  and  N_99 
REMARK       I    between atoms: S1_44  and  O2S_81 
REMARK       I    between atoms: S1_45  and  N_94 
REMARK       I    between atoms: S1_45  and  O1S_46 
REMARK       I    between atoms: S1_45  and  O3S_58 
REMARK       I    between atoms: O3_52  and  C3_105 
REMARK       I    between atoms: S1_55  and  N_100 
REMARK       I    between atoms: S1_55  and  O1S_79 
REMARK       I    between atoms: S1_55  and  O2S_83 
REMARK       I    between atoms: O3_56  and  C3_64 
REMARK       I    between atoms: C4_60  and  O4_61 
REMARK       I    between atoms: O4_61  and  C1_73 
REMARK       I    between atoms: C6_63  and  C5_80 
REMARK       I    between atoms: C3_65  and  O3_82 
REMARK       I    between atoms: S_67  and  O2_84 
REMARK       I    between atoms: C2_68  and  O2_98 
REMARK       I    between atoms: O4_74  and  C4_97 
REMARK       I    between atoms: C2_85  and  N_94 
REMARK       I    between atoms: C2_95  and  N_100 
REMARK       I    between atoms: O2_98  and  S_104 
REMARK       I    between atoms: S_101  and  O2_103 
ROOT
ATOM      1  O6S SGN d  66      18.792  40.047  56.868  0.00  0.00    -0.572 OA
ATOM      2  C4  SGN d  66      18.804  35.397  55.740  0.00  0.00     0.095 C 
ATOM      3  C6  SGN d  66      20.559  36.517  57.168  0.00  0.00     0.067 C 
ATOM      4  O4  SGN d  66      19.604  35.715  54.505  0.00  0.00    -0.348 OA
ATOM      5  O5S SGN d  66      21.050  39.568  56.295  0.00  0.00    -0.572 OA
ATOM      6  O2S SGN d  66      15.241  32.371  58.999  0.00  0.00    -0.296 OA
ATOM      7  O5  SGN d  66      18.952  34.895  58.140  0.00  0.00    -0.350 OA
ATOM      8  O1  SGN d  66      18.960  32.531  57.689  0.00  0.00    -0.369 OA
ATOM      9  C5  SGN d  66      19.740  35.231  56.947  0.00  0.00     0.091 C 
ATOM     10  S2  SGN d  66      19.689  39.040  56.338  0.00  0.00     0.251 S 
ATOM     11  S1  SGN d  66      15.892  31.583  57.971  0.00  0.00     0.156 S 
ATOM     12  O1S SGN d  66      14.997  30.571  57.428  0.00  0.00    -0.296 OA
ATOM     13  C1  SGN d  66      18.147  33.676  58.012  0.00  0.00     0.147 C 
ATOM     14  O3S SGN d  66      17.059  30.894  58.500  0.00  0.00    -0.296 OA
ATOM     15  C3  SGN d  66      17.918  34.154  55.550  0.00  0.00     0.083 C 
ATOM     16  O3  SGN d  66      16.955  34.413  54.530  0.00  0.00    -0.391 OA
ATOM     17  C2  SGN d  66      17.155  33.887  56.850  0.00  0.00     0.081 C 
ATOM     18  O4S SGN d  66      19.237  38.651  55.009  0.00  0.00    -0.572 OA
ATOM     19  N   SGN d  66      16.310  32.702  56.647  0.00  0.00    -0.210 NA
ATOM     20  O6  SGN d  66      19.686  37.639  57.436  0.00  0.00    -0.254 OA
ATOM     21  H   SGN d  66      18.144  36.219  55.924  0.00  0.00     0.091 H 
ATOM     22  H   SGN d  66      21.134  36.722  56.290  0.00  0.00     0.080 H 
ATOM     23  H   SGN d  66      21.203  36.374  58.011  0.00  0.00     0.080 H 
ATOM     24  H   SGN d  66      14.469  32.820  58.622  0.00  0.00     0.231 HD
ATOM     25  H   SGN d  66      19.596  32.374  58.404  0.00  0.00     0.212 HD
ATOM     26  H   SGN d  66      20.428  34.433  56.756  0.00  0.00     0.090 H 
ATOM     27  H   SGN d  66      14.206  31.000  57.066  0.00  0.00     0.231 HD
ATOM     28  H   SGN d  66      17.655  33.495  58.944  0.00  0.00     0.131 H 
ATOM     29  H   SGN d  66      17.677  31.542  58.871  0.00  0.00     0.231 HD
ATOM     30  H   SGN d  66      18.532  33.319  55.286  0.00  0.00     0.089 H 
ATOM     31  H   SGN d  66      16.409  35.172  54.786  0.00  0.00     0.210 HD
ATOM     32  H   SGN d  66      16.537  34.724  57.105  0.00  0.00     0.076 H 
ATOM     33  H   SGN d  66      15.424  33.045  56.277  0.00  0.00     0.140 HD
ATOM     34  O61 IDS d  65      18.659  31.695  51.841  0.00  0.00    -0.646 OA
ATOM     35  O3  IDS d  65      22.932  34.809  52.058  0.00  0.00    -0.390 OA
ATOM     36  C5  IDS d  65      19.380  33.835  52.626  0.00  0.00     0.152 C 
ATOM     37  C6  IDS d  65      18.319  32.895  51.994  0.00  0.00     0.206 C 
ATOM     38  O5  IDS d  65      18.832  35.189  52.635  0.00  0.00    -0.340 OA
ATOM     39  C1  IDS d  65      19.687  36.226  53.183  0.00  0.00     0.161 C 
ATOM     40  O1S IDS d  65      24.659  36.938  53.143  0.00  0.00    -0.572 OA
ATOM     41  C4  IDS d  65      20.786  33.778  51.933  0.00  0.00     0.103 C 
ATOM     42  O4  IDS d  65      20.546  32.874  50.851  0.00  0.00    -0.348 OA
ATOM     43  C2  IDS d  65      21.200  35.856  53.244  0.00  0.00     0.134 C 
ATOM     44  O62 IDS d  65      17.179  33.360  51.691  0.00  0.00    -0.646 OA
ATOM     45  C3  IDS d  65      21.572  35.107  52.005  0.00  0.00     0.094 C 
ATOM     46  O2S IDS d  65      23.544  35.592  54.765  0.00  0.00    -0.572 OA
ATOM     47  O3S IDS d  65      23.701  37.936  55.106  0.00  0.00    -0.572 OA
ATOM     48  O2  IDS d  65      21.997  37.031  53.257  0.00  0.00    -0.244 OA
ATOM     49  S   IDS d  65      23.559  36.882  54.105  0.00  0.00     0.252 S 
ATOM     50  H   IDS d  65      23.188  34.322  51.260  0.00  0.00     0.210 HD
ATOM     51  H   IDS d  65      19.571  33.497  53.622  0.00  0.00     0.104 H 
ATOM     52  H   IDS d  65      19.453  37.178  52.754  0.00  0.00     0.133 H 
ATOM     53  H   IDS d  65      21.673  33.358  52.360  0.00  0.00     0.092 H 
ATOM     54  H   IDS d  65      21.364  35.276  54.128  0.00  0.00     0.097 H 
ATOM     55  H   IDS d  65      21.345  35.705  51.147  0.00  0.00     0.091 H 
ATOM     56  O3S SGN d  62      16.517  33.347  42.644  0.00  0.00    -0.296 OA
ATOM     57  C1  SGN d  62      19.802  32.853  41.624  0.00  0.00     0.150 C 
ATOM     58  S2  SGN d  62      24.986  32.727  38.712  0.00  0.00     0.251 S 
ATOM     59  C5  SGN d  62      21.389  32.506  39.736  0.00  0.00     0.091 C 
ATOM     60  O5  SGN d  62      20.812  33.409  40.722  0.00  0.00    -0.349 OA
ATOM     61  O4S SGN d  62      25.373  33.858  37.937  0.00  0.00    -0.572 OA
ATOM     62  O6  SGN d  62      23.310  32.336  38.408  0.00  0.00    -0.254 OA
ATOM     63  O3  SGN d  62      18.331  30.501  39.125  0.00  0.00    -0.391 OA
ATOM     64  S1  SGN d  62      16.371  32.039  42.047  0.00  0.00     0.156 S 
ATOM     65  O6S SGN d  62      25.180  32.926  40.146  0.00  0.00    -0.572 OA
ATOM     66  O4  SGN d  62      20.886  31.049  37.898  0.00  0.00    -0.348 OA
ATOM     67  C6  SGN d  62      22.386  33.285  38.911  0.00  0.00     0.067 C 
ATOM     68  O5S SGN d  62      25.734  31.567  38.312  0.00  0.00    -0.572 OA
ATOM     69  O1S SGN d  62      15.687  31.117  42.928  0.00  0.00    -0.296 OA
ATOM     70  O2S SGN d  62      15.696  32.200  40.792  0.00  0.00    -0.296 OA
ATOM     71  C2  SGN d  62      18.755  32.124  40.793  0.00  0.00     0.081 C 
ATOM     72  C4  SGN d  62      20.277  31.914  38.854  0.00  0.00     0.095 C 
ATOM     73  N   SGN d  62      17.933  31.355  41.673  0.00  0.00    -0.210 NA
ATOM     74  C3  SGN d  62      19.380  31.122  39.818  0.00  0.00     0.083 C 
ATOM     75  H   SGN d  62      16.973  33.264  43.496  0.00  0.00     0.231 HD
ATOM     76  H   SGN d  62      19.397  33.681  42.168  0.00  0.00     0.131 H 
ATOM     77  H   SGN d  62      21.889  31.692  40.218  0.00  0.00     0.090 H 
ATOM     78  H   SGN d  62      17.777  30.008  39.750  0.00  0.00     0.210 HD
ATOM     79  H   SGN d  62      22.889  34.007  39.519  0.00  0.00     0.080 H 
ATOM     80  H   SGN d  62      21.903  33.817  38.117  0.00  0.00     0.080 H 
ATOM     81  H   SGN d  62      16.179  31.040  43.761  0.00  0.00     0.231 HD
ATOM     82  H   SGN d  62      16.189  32.825  40.237  0.00  0.00     0.231 HD
ATOM     83  H   SGN d  62      18.214  32.867  40.247  0.00  0.00     0.076 H 
ATOM     84  H   SGN d  62      19.711  32.652  38.324  0.00  0.00     0.091 H 
ATOM     85  H   SGN d  62      17.780  30.444  41.241  0.00  0.00     0.140 HD
ATOM     86  H   SGN d  62      19.966  30.377  40.315  0.00  0.00     0.089 H 
ATOM     87  O4  IDS d  63      20.322  31.927  42.586  0.00  0.00    -0.348 OA
ATOM     88  O62 IDS d  63      23.374  30.835  44.345  0.00  0.00    -0.646 OA
ATOM     89  C2  IDS d  63      18.540  30.686  44.808  0.00  0.00     0.134 C 
ATOM     90  O2S IDS d  63      17.122  27.961  44.354  0.00  0.00    -0.572 OA
ATOM     91  O61 IDS d  63      23.165  32.968  44.037  0.00  0.00    -0.646 OA
ATOM     92  C3  IDS d  63      18.735  32.183  44.534  0.00  0.00     0.094 C 
ATOM     93  C1  IDS d  63      19.650  30.171  45.765  0.00  0.00     0.161 C 
ATOM     94  O5  IDS d  63      20.926  30.343  45.095  0.00  0.00    -0.340 OA
ATOM     95  C4  IDS d  63      20.175  32.430  43.908  0.00  0.00     0.103 C 
ATOM     96  C6  IDS d  63      22.704  31.870  44.346  0.00  0.00     0.206 C 
ATOM     97  S   IDS d  63      18.360  28.243  43.639  0.00  0.00     0.252 S 
ATOM     98  O3  IDS d  63      18.638  32.799  45.799  0.00  0.00    -0.390 OA
ATOM     99  C5  IDS d  63      21.252  31.765  44.806  0.00  0.00     0.152 C 
ATOM    100  O2  IDS d  63      18.513  30.004  43.582  0.00  0.00    -0.244 OA
ATOM    101  O1S IDS d  63      18.312  27.810  42.254  0.00  0.00    -0.572 OA
ATOM    102  O3S IDS d  63      19.412  27.572  44.346  0.00  0.00    -0.572 OA
ATOM    103  H   IDS d  63      17.608  30.506  45.302  0.00  0.00     0.097 H 
ATOM    104  H   IDS d  63      18.015  32.572  43.844  0.00  0.00     0.091 H 
ATOM    105  H   IDS d  63      19.574  29.135  46.019  0.00  0.00     0.133 H 
ATOM    106  H   IDS d  63      20.297  33.492  43.859  0.00  0.00     0.092 H 
ATOM    107  H   IDS d  63      19.305  32.421  46.394  0.00  0.00     0.210 HD
ATOM    108  H   IDS d  63      21.204  32.360  45.694  0.00  0.00     0.104 H 
ATOM    109  O4  SGN d  64      19.518  30.970  46.981  0.00  0.00    -0.348 OA
ATOM    110  O6  SGN d  64      18.943  28.482  50.251  0.00  0.00    -0.254 OA
ATOM    111  C3  SGN d  64      21.279  32.059  48.284  0.00  0.00     0.083 C 
ATOM    112  S2  SGN d  64      20.394  27.475  49.998  0.00  0.00     0.251 S 
ATOM    113  C5  SGN d  64      19.518  30.663  49.368  0.00  0.00     0.091 C 
ATOM    114  O1S SGN d  64      25.573  32.387  49.670  0.00  0.00    -0.296 OA
ATOM    115  C2  SGN d  64      22.167  31.856  49.473  0.00  0.00     0.081 C 
ATOM    116  O4S SGN d  64      20.216  26.749  48.768  0.00  0.00    -0.572 OA
ATOM    117  O3S SGN d  64      24.554  32.631  47.542  0.00  0.00    -0.296 OA
ATOM    118  S1  SGN d  64      24.584  33.129  48.905  0.00  0.00     0.156 S 
ATOM    119  O6S SGN d  64      21.591  28.286  49.921  0.00  0.00    -0.572 OA
ATOM    120  O5S SGN d  64      20.515  26.563  51.104  0.00  0.00    -0.572 OA
ATOM    121  O3  SGN d  64      22.118  32.235  47.200  0.00  0.00    -0.391 OA
ATOM    122  C1  SGN d  64      21.304  31.674  50.694  0.00  0.00     0.150 C 
ATOM    123  O2S SGN d  64      24.891  34.533  48.892  0.00  0.00    -0.296 OA
ATOM    124  C4  SGN d  64      20.392  30.799  48.107  0.00  0.00     0.095 C 
ATOM    125  O5  SGN d  64      20.436  30.538  50.494  0.00  0.00    -0.349 OA
ATOM    126  C6  SGN d  64      18.628  29.444  49.255  0.00  0.00     0.067 C 
ATOM    127  N   SGN d  64      22.987  33.027  49.664  0.00  0.00    -0.210 NA
ATOM    128  H   SGN d  64      20.633  32.904  48.391  0.00  0.00     0.089 H 
ATOM    129  H   SGN d  64      18.876  31.509  49.496  0.00  0.00     0.090 H 
ATOM    130  H   SGN d  64      25.345  31.444  49.664  0.00  0.00     0.231 HD
ATOM    131  H   SGN d  64      22.786  30.998  49.318  0.00  0.00     0.076 H 
ATOM    132  H   SGN d  64      24.347  31.682  47.549  0.00  0.00     0.231 HD
ATOM    133  H   SGN d  64      22.700  31.463  47.113  0.00  0.00     0.210 HD
ATOM    134  H   SGN d  64      21.888  31.491  51.572  0.00  0.00     0.131 H 
ATOM    135  H   SGN d  64      25.761  34.670  48.486  0.00  0.00     0.231 HD
ATOM    136  H   SGN d  64      21.009  29.938  47.956  0.00  0.00     0.091 H 
ATOM    137  H   SGN d  64      17.608  29.745  49.371  0.00  0.00     0.080 H 
ATOM    138  H   SGN d  64      18.783  28.999  48.294  0.00  0.00     0.080 H 
ATOM    139  H   SGN d  64      23.133  33.123  50.669  0.00  0.00     0.140 HD
ATOM    140  C1  IDS d  61      20.475  31.293  36.537  0.00  0.00     0.167 C 
ATOM    141  O5  IDS d  61      19.064  30.982  36.401  0.00  0.00    -0.311 OA
ATOM    142  C5  IDS d  61      18.647  29.659  36.337  0.00  0.00     0.147 C 
ATOM    143  C6  IDS d  61      17.090  29.401  36.318  0.00  0.00     0.233 C 
ATOM    144  C2  IDS d  61      21.263  30.351  35.633  0.00  0.00     0.135 C 
ATOM    145  O1S IDS d  61      18.807  32.108  34.237  0.00  0.00    -0.572 OA
ATOM    146  O3S IDS d  61      20.954  33.193  34.091  0.00  0.00    -0.572 OA
ATOM    147  O3  IDS d  61      21.789  28.498  36.931  0.00  0.00    -0.389 OA
ATOM    148  C4  IDS d  61      19.523  28.628  36.178  0.00  0.00    -0.034 C 
ATOM    149  C3  IDS d  61      20.964  28.874  35.885  0.00  0.00     0.086 C 
ATOM    150  O61 IDS d  61      16.661  28.251  36.209  0.00  0.00    -0.642 OA
ATOM    151  O62 IDS d  61      16.294  30.369  36.380  0.00  0.00    -0.642 OA
ATOM    152  O2S IDS d  61      19.957  32.010  32.265  0.00  0.00    -0.572 OA
ATOM    153  S   IDS d  61      20.132  32.066  33.677  0.00  0.00     0.252 S 
ATOM    154  O2  IDS d  61      20.932  30.580  34.253  0.00  0.00    -0.244 OA
ATOM    155  H   IDS d  61      20.650  32.316  36.276  0.00  0.00     0.134 H 
ATOM    156  H   IDS d  61      22.291  30.558  35.853  0.00  0.00     0.097 H 
ATOM    157  H   IDS d  61      22.713  28.677  36.695  0.00  0.00     0.210 HD
ATOM    158  H   IDS d  61      19.183  27.657  36.263  0.00  0.00     0.085 H 
ATOM    159  H   IDS d  61      21.158  28.286  35.013  0.00  0.00     0.093 H 
ENDROOT
TORSDOF 50
ENDMDL
MODEL 52
REMARK VINA RESULT:      -5.3      2.634      3.518
REMARK  0 active torsions:
REMARK  status: ('A' for Active; 'I' for Inactive)
REMARK       I    between atoms: O3S_3  and  S1_55 
REMARK       I    between atoms: O3_4  and  C3_87 
REMARK       I    between atoms: O4_5  and  C1_15 
REMARK       I    between atoms: O4_5  and  C4_57 
REMARK       I    between atoms: O4_7  and  C1_36 
REMARK       I    between atoms: O4_7  and  C4_89 
REMARK       I    between atoms: C4_8  and  O4_18 
REMARK       I    between atoms: C2_9  and  O2_84 
REMARK       I    between atoms: C6_10  and  C5_32 
REMARK       I    between atoms: C6_10  and  O6_102 
REMARK       I    between atoms: O6_11  and  C6_93 
REMARK       I    between atoms: O6_11  and  S2_25 
REMARK       I    between atoms: C1_13  and  O4_74 
REMARK       I    between atoms: C3_14  and  O3_71 
REMARK       I    between atoms: O4_18  and  C1_54 
REMARK       I    between atoms: S2_19  and  O6_39 
REMARK       I    between atoms: O2S_21  and  S1_45 
REMARK       I    between atoms: C5_22  and  C6_23 
REMARK       I    between atoms: C5_24  and  C6_77 
REMARK       I    between atoms: O1_27  and  C1_48 
REMARK       I    between atoms: C5_28  and  C6_30 
REMARK       I    between atoms: C5_29  and  C6_93 
REMARK       I    between atoms: O1S_31  and  S1_44 
REMARK       I    between atoms: C3_33  and  O3_69 
REMARK       I    between atoms: C2_37  and  N_99 
REMARK       I    between atoms: S2_38  and  O6_102 
REMARK       I    between atoms: O6_39  and  C6_77 
REMARK       I    between atoms: C2_40  and  O2_103 
REMARK       I    between atoms: O3S_42  and  S1_44 
REMARK       I    between atoms: S1_44  and  N_99 
REMARK       I    between atoms: S1_44  and  O2S_81 
REMARK       I    between atoms: S1_45  and  N_94 
REMARK       I    between atoms: S1_45  and  O1S_46 
REMARK       I    between atoms: S1_45  and  O3S_58 
REMARK       I    between atoms: O3_52  and  C3_105 
REMARK       I    between atoms: S1_55  and  N_100 
REMARK       I    between atoms: S1_55  and  O1S_79 
REMARK       I    between atoms: S1_55  and  O2S_83 
REMARK       I    between atoms: O3_56  and  C3_64 
REMARK       I    between atoms: C4_60  and  O4_61 
REMARK       I    between atoms: O4_61  and  C1_73 
REMARK       I    between atoms: C6_63  and  C5_80 
REMARK       I    between atoms: C3_65  and  O3_82 
REMARK       I    between atoms: S_67  and  O2_84 
REMARK       I    between atoms: C2_68  and  O2_98 
REMARK       I    between atoms: O4_74  and  C4_97 
REMARK       I    between atoms: C2_85  and  N_94 
REMARK       I    between atoms: C2_95  and  N_100 
REMARK       I    between atoms: O2_98  and  S_104 
REMARK       I    between atoms: S_101  and  O2_103 
ROOT
ATOM      1  O6S SGN d  66      21.927  45.720  51.757  0.00  0.00    -0.572 OA
ATOM      2  C4  SGN d  66      19.043  41.929  51.302  0.00  0.00     0.095 C 
ATOM      3  C6  SGN d  66      20.742  42.208  53.149  0.00  0.00     0.067 C 
ATOM      4  O4  SGN d  66      20.083  41.261  50.444  0.00  0.00    -0.348 OA
ATOM      5  O5S SGN d  66      23.327  43.841  52.167  0.00  0.00    -0.572 OA
ATOM      6  O2S SGN d  66      13.796  42.954  53.274  0.00  0.00    -0.296 OA
ATOM      7  O5  SGN d  66      18.307  42.309  53.614  0.00  0.00    -0.350 OA
ATOM      8  O1  SGN d  66      16.816  40.424  53.495  0.00  0.00    -0.369 OA
ATOM      9  C5  SGN d  66      19.342  41.675  52.788  0.00  0.00     0.091 C 
ATOM     10  S2  SGN d  66      21.997  44.272  51.744  0.00  0.00     0.251 S 
ATOM     11  S1  SGN d  66      13.943  41.638  52.683  0.00  0.00     0.156 S 
ATOM     12  O1S SGN d  66      12.741  41.239  51.965  0.00  0.00    -0.296 OA
ATOM     13  C1  SGN d  66      16.942  41.850  53.335  0.00  0.00     0.147 C 
ATOM     14  O3S SGN d  66      14.195  40.632  53.702  0.00  0.00    -0.296 OA
ATOM     15  C3  SGN d  66      17.618  41.479  50.939  0.00  0.00     0.083 C 
ATOM     16  O3  SGN d  66      17.323  41.880  49.602  0.00  0.00    -0.391 OA
ATOM     17  C2  SGN d  66      16.624  42.185  51.864  0.00  0.00     0.081 C 
ATOM     18  O4S SGN d  66      21.694  43.793  50.402  0.00  0.00    -0.572 OA
ATOM     19  N   SGN d  66      15.270  41.748  51.497  0.00  0.00    -0.210 NA
ATOM     20  O6  SGN d  66      20.821  43.634  52.918  0.00  0.00    -0.254 OA
ATOM     21  H   SGN d  66      19.090  42.982  51.114  0.00  0.00     0.091 H 
ATOM     22  H   SGN d  66      21.472  41.713  52.544  0.00  0.00     0.080 H 
ATOM     23  H   SGN d  66      20.926  42.017  54.186  0.00  0.00     0.080 H 
ATOM     24  H   SGN d  66      13.629  43.605  52.575  0.00  0.00     0.231 HD
ATOM     25  H   SGN d  66      17.011  40.183  54.414  0.00  0.00     0.212 HD
ATOM     26  H   SGN d  66      19.333  40.622  52.977  0.00  0.00     0.090 H 
ATOM     27  H   SGN d  66      12.545  41.893  51.275  0.00  0.00     0.231 HD
ATOM     28  H   SGN d  66      16.276  42.332  54.020  0.00  0.00     0.131 H 
ATOM     29  H   SGN d  66      14.993  40.869  54.201  0.00  0.00     0.231 HD
ATOM     30  H   SGN d  66      17.546  40.416  51.037  0.00  0.00     0.089 H 
ATOM     31  H   SGN d  66      17.393  42.845  49.531  0.00  0.00     0.210 HD
ATOM     32  H   SGN d  66      16.696  43.248  51.755  0.00  0.00     0.076 H 
ATOM     33  H   SGN d  66      14.951  42.392  50.774  0.00  0.00     0.140 HD
ATOM     34  O61 IDS d  65      17.267  37.960  48.137  0.00  0.00    -0.646 OA
ATOM     35  O3  IDS d  65      22.347  37.789  49.607  0.00  0.00    -0.390 OA
ATOM     36  C5  IDS d  65      19.053  39.368  48.871  0.00  0.00     0.152 C 
ATOM     37  C6  IDS d  65      17.801  39.089  47.998  0.00  0.00     0.206 C 
ATOM     38  O5  IDS d  65      19.575  40.682  48.501  0.00  0.00    -0.340 OA
ATOM     39  C1  IDS d  65      20.764  41.125  49.206  0.00  0.00     0.161 C 
ATOM     40  O1S IDS d  65      24.777  38.701  51.004  0.00  0.00    -0.572 OA
ATOM     41  C4  IDS d  65      20.158  38.257  48.788  0.00  0.00     0.103 C 
ATOM     42  O4  IDS d  65      19.607  37.364  47.817  0.00  0.00    -0.348 OA
ATOM     43  C2  IDS d  65      21.575  39.985  49.891  0.00  0.00     0.134 C 
ATOM     44  O62 IDS d  65      17.369  39.994  47.223  0.00  0.00    -0.646 OA
ATOM     45  C3  IDS d  65      21.595  38.788  48.995  0.00  0.00     0.094 C 
ATOM     46  O2S IDS d  65      22.740  38.939  52.221  0.00  0.00    -0.572 OA
ATOM     47  O3S IDS d  65      24.358  40.674  52.306  0.00  0.00    -0.572 OA
ATOM     48  O2  IDS d  65      22.928  40.376  50.067  0.00  0.00    -0.244 OA
ATOM     49  S   IDS d  65      23.758  39.642  51.465  0.00  0.00     0.252 S 
ATOM     50  H   IDS d  65      22.369  37.005  49.036  0.00  0.00     0.210 HD
ATOM     51  H   IDS d  65      18.753  39.355  49.897  0.00  0.00     0.104 H 
ATOM     52  H   IDS d  65      21.328  41.808  48.605  0.00  0.00     0.133 H 
ATOM     53  H   IDS d  65      20.415  37.577  49.573  0.00  0.00     0.092 H 
ATOM     54  H   IDS d  65      21.115  39.772  50.834  0.00  0.00     0.097 H 
ATOM     55  H   IDS d  65      22.016  39.061  48.050  0.00  0.00     0.091 H 
ATOM     56  O3S SGN d  62      18.789  37.232  38.700  0.00  0.00    -0.296 OA
ATOM     57  C1  SGN d  62      21.001  34.581  39.099  0.00  0.00     0.150 C 
ATOM     58  S2  SGN d  62      25.204  30.423  38.459  0.00  0.00     0.251 S 
ATOM     59  C5  SGN d  62      22.289  32.737  38.031  0.00  0.00     0.091 C 
ATOM     60  O5  SGN d  62      22.281  34.078  38.598  0.00  0.00    -0.349 OA
ATOM     61  O4S SGN d  62      26.403  30.750  37.761  0.00  0.00    -0.572 OA
ATOM     62  O6  SGN d  62      23.816  31.020  37.581  0.00  0.00    -0.254 OA
ATOM     63  O3  SGN d  62      18.899  32.865  36.535  0.00  0.00    -0.391 OA
ATOM     64  S1  SGN d  62      17.932  36.157  38.259  0.00  0.00     0.156 S 
ATOM     65  O6S SGN d  62      25.175  30.951  39.821  0.00  0.00    -0.572 OA
ATOM     66  O4  SGN d  62      21.337  31.332  36.335  0.00  0.00    -0.348 OA
ATOM     67  C6  SGN d  62      23.693  32.431  37.566  0.00  0.00     0.067 C 
ATOM     68  O5S SGN d  62      25.038  28.996  38.525  0.00  0.00    -0.572 OA
ATOM     69  O1S SGN d  62      16.641  36.193  38.912  0.00  0.00    -0.296 OA
ATOM     70  O2S SGN d  62      17.824  36.236  36.830  0.00  0.00    -0.296 OA
ATOM     71  C2  SGN d  62      19.942  34.378  38.025  0.00  0.00     0.081 C 
ATOM     72  C4  SGN d  62      21.287  32.654  36.867  0.00  0.00     0.095 C 
ATOM     73  N   SGN d  62      18.657  34.607  38.605  0.00  0.00    -0.210 NA
ATOM     74  C3  SGN d  62      19.915  32.940  37.498  0.00  0.00     0.083 C 
ATOM     75  H   SGN d  62      18.878  37.198  39.666  0.00  0.00     0.231 HD
ATOM     76  H   SGN d  62      21.157  35.613  39.338  0.00  0.00     0.131 H 
ATOM     77  H   SGN d  62      21.994  32.016  38.764  0.00  0.00     0.090 H 
ATOM     78  H   SGN d  62      18.043  33.048  36.953  0.00  0.00     0.210 HD
ATOM     79  H   SGN d  62      24.408  32.873  38.228  0.00  0.00     0.080 H 
ATOM     80  H   SGN d  62      23.876  32.828  36.589  0.00  0.00     0.080 H 
ATOM     81  H   SGN d  62      16.763  36.137  39.873  0.00  0.00     0.231 HD
ATOM     82  H   SGN d  62      18.711  36.208  36.437  0.00  0.00     0.231 HD
ATOM     83  H   SGN d  62      20.173  35.049  37.225  0.00  0.00     0.076 H 
ATOM     84  H   SGN d  62      21.493  33.342  36.073  0.00  0.00     0.091 H 
ATOM     85  H   SGN d  62      18.026  33.882  38.262  0.00  0.00     0.140 HD
ATOM     86  H   SGN d  62      19.725  32.224  38.270  0.00  0.00     0.089 H 
ATOM     87  O4  IDS d  63      20.545  33.933  40.293  0.00  0.00    -0.348 OA
ATOM     88  O62 IDS d  63      21.605  31.950  43.215  0.00  0.00    -0.646 OA
ATOM     89  C2  IDS d  63      17.979  34.851  41.787  0.00  0.00     0.134 C 
ATOM     90  O2S IDS d  63      15.235  33.541  41.158  0.00  0.00    -0.572 OA
ATOM     91  O61 IDS d  63      22.957  33.522  42.592  0.00  0.00    -0.646 OA
ATOM     92  C3  IDS d  63      19.182  35.733  41.428  0.00  0.00     0.094 C 
ATOM     93  C1  IDS d  63      18.220  34.153  43.154  0.00  0.00     0.161 C 
ATOM     94  O5  IDS d  63      19.380  33.294  43.015  0.00  0.00    -0.340 OA
ATOM     95  C4  IDS d  63      20.501  34.846  41.383  0.00  0.00     0.103 C 
ATOM     96  C6  IDS d  63      21.826  33.100  42.830  0.00  0.00     0.206 C 
ATOM     97  S   IDS d  63      16.453  32.769  40.949  0.00  0.00     0.252 S 
ATOM     98  O3  IDS d  63      19.263  36.678  42.472  0.00  0.00    -0.390 OA
ATOM     99  C5  IDS d  63      20.630  34.039  42.703  0.00  0.00     0.152 C 
ATOM    100  O2  IDS d  63      17.759  33.943  40.740  0.00  0.00    -0.244 OA
ATOM    101  O1S IDS d  63      16.418  32.000  39.718  0.00  0.00    -0.572 OA
ATOM    102  O3S IDS d  63      16.599  31.905  42.085  0.00  0.00    -0.572 OA
ATOM    103  H   IDS d  63      17.094  35.440  41.900  0.00  0.00     0.097 H 
ATOM    104  H   IDS d  63      19.079  36.201  40.472  0.00  0.00     0.091 H 
ATOM    105  H   IDS d  63      17.414  33.531  43.484  0.00  0.00     0.133 H 
ATOM    106  H   IDS d  63      21.313  35.532  41.255  0.00  0.00     0.092 H 
ATOM    107  H   IDS d  63      19.357  36.217  43.320  0.00  0.00     0.210 HD
ATOM    108  H   IDS d  63      20.809  34.810  43.422  0.00  0.00     0.104 H 
ATOM    109  O4  SGN d  64      18.408  35.236  44.117  0.00  0.00    -0.348 OA
ATOM    110  O6  SGN d  64      15.639  34.896  47.188  0.00  0.00    -0.254 OA
ATOM    111  C3  SGN d  64      20.116  35.445  45.855  0.00  0.00     0.083 C 
ATOM    112  S2  SGN d  64      16.044  33.220  47.642  0.00  0.00     0.251 S 
ATOM    113  C5  SGN d  64      17.701  35.841  46.336  0.00  0.00     0.091 C 
ATOM    114  O1S SGN d  64      23.092  33.635  48.743  0.00  0.00    -0.296 OA
ATOM    115  C2  SGN d  64      20.360  35.188  47.310  0.00  0.00     0.081 C 
ATOM    116  O4S SGN d  64      15.687  32.367  46.538  0.00  0.00    -0.572 OA
ATOM    117  O3S SGN d  64      22.980  33.675  46.373  0.00  0.00    -0.296 OA
ATOM    118  S1  SGN d  64      23.051  34.494  47.570  0.00  0.00     0.156 S 
ATOM    119  O6S SGN d  64      17.456  33.079  47.935  0.00  0.00    -0.572 OA
ATOM    120  O5S SGN d  64      15.284  32.867  48.811  0.00  0.00    -0.572 OA
ATOM    121  O3  SGN d  64      21.058  34.703  45.168  0.00  0.00    -0.391 OA
ATOM    122  C1  SGN d  64      19.369  35.987  48.115  0.00  0.00     0.150 C 
ATOM    123  O2S SGN d  64      24.216  35.333  47.504  0.00  0.00    -0.296 OA
ATOM    124  C4  SGN d  64      18.676  34.988  45.505  0.00  0.00     0.095 C 
ATOM    125  O5  SGN d  64      18.031  35.601  47.735  0.00  0.00    -0.349 OA
ATOM    126  C6  SGN d  64      16.272  35.438  46.037  0.00  0.00     0.067 C 
ATOM    127  N   SGN d  64      21.690  35.624  47.659  0.00  0.00    -0.210 NA
ATOM    128  H   SGN d  64      20.204  36.480  45.599  0.00  0.00     0.089 H 
ATOM    129  H   SGN d  64      17.788  36.882  46.100  0.00  0.00     0.090 H 
ATOM    130  H   SGN d  64      22.297  33.080  48.765  0.00  0.00     0.231 HD
ATOM    131  H   SGN d  64      20.255  34.143  47.513  0.00  0.00     0.076 H 
ATOM    132  H   SGN d  64      22.194  33.107  46.416  0.00  0.00     0.231 HD
ATOM    133  H   SGN d  64      20.969  33.767  45.408  0.00  0.00     0.210 HD
ATOM    134  H   SGN d  64      19.476  35.815  49.165  0.00  0.00     0.131 H 
ATOM    135  H   SGN d  64      25.010  34.779  47.453  0.00  0.00     0.231 HD
ATOM    136  H   SGN d  64      18.566  33.944  45.711  0.00  0.00     0.091 H 
ATOM    137  H   SGN d  64      15.727  36.299  45.712  0.00  0.00     0.080 H 
ATOM    138  H   SGN d  64      16.285  34.688  45.274  0.00  0.00     0.080 H 
ATOM    139  H   SGN d  64      21.646  35.957  48.622  0.00  0.00     0.140 HD
ATOM    140  C1  IDS d  61      21.496  31.279  34.902  0.00  0.00     0.167 C 
ATOM    141  O5  IDS d  61      20.315  31.836  34.270  0.00  0.00    -0.311 OA
ATOM    142  C5  IDS d  61      19.141  31.096  34.213  0.00  0.00     0.147 C 
ATOM    143  C6  IDS d  61      17.868  31.818  33.625  0.00  0.00     0.233 C 
ATOM    144  C2  IDS d  61      21.611  29.814  34.497  0.00  0.00     0.135 C 
ATOM    145  O1S IDS d  61      21.344  32.058  32.055  0.00  0.00    -0.572 OA
ATOM    146  O3S IDS d  61      23.628  31.533  32.619  0.00  0.00    -0.572 OA
ATOM    147  O3  IDS d  61      20.464  28.604  36.114  0.00  0.00    -0.389 OA
ATOM    148  C4  IDS d  61      19.102  29.772  34.533  0.00  0.00    -0.034 C 
ATOM    149  C3  IDS d  61      20.351  29.000  34.793  0.00  0.00     0.086 C 
ATOM    150  O61 IDS d  61      16.812  31.195  33.500  0.00  0.00    -0.642 OA
ATOM    151  O62 IDS d  61      17.941  33.015  33.254  0.00  0.00    -0.642 OA
ATOM    152  O2S IDS d  61      22.507  30.624  30.710  0.00  0.00    -0.572 OA
ATOM    153  S   IDS d  61      22.373  31.052  32.060  0.00  0.00     0.252 S 
ATOM    154  O2  IDS d  61      21.820  29.697  33.079  0.00  0.00    -0.244 OA
ATOM    155  H   IDS d  61      22.363  31.832  34.606  0.00  0.00     0.134 H 
ATOM    156  H   IDS d  61      22.432  29.436  35.069  0.00  0.00     0.097 H 
ATOM    157  H   IDS d  61      21.289  28.107  36.233  0.00  0.00     0.210 HD
ATOM    158  H   IDS d  61      18.190  29.294  34.598  0.00  0.00     0.085 H 
ATOM    159  H   IDS d  61      20.276  28.154  34.143  0.00  0.00     0.093 H 
ENDROOT
TORSDOF 50
ENDMDL
MODEL 53
REMARK VINA RESULT:      -5.3      3.217      5.069
REMARK  0 active torsions:
REMARK  status: ('A' for Active; 'I' for Inactive)
REMARK       I    between atoms: O3S_3  and  S1_55 
REMARK       I    between atoms: O3_4  and  C3_87 
REMARK       I    between atoms: O4_5  and  C1_15 
REMARK       I    between atoms: O4_5  and  C4_57 
REMARK       I    between atoms: O4_7  and  C1_36 
REMARK       I    between atoms: O4_7  and  C4_89 
REMARK       I    between atoms: C4_8  and  O4_18 
REMARK       I    between atoms: C2_9  and  O2_84 
REMARK       I    between atoms: C6_10  and  C5_32 
REMARK       I    between atoms: C6_10  and  O6_102 
REMARK       I    between atoms: O6_11  and  C6_93 
REMARK       I    between atoms: O6_11  and  S2_25 
REMARK       I    between atoms: C1_13  and  O4_74 
REMARK       I    between atoms: C3_14  and  O3_71 
REMARK       I    between atoms: O4_18  and  C1_54 
REMARK       I    between atoms: S2_19  and  O6_39 
REMARK       I    between atoms: O2S_21  and  S1_45 
REMARK       I    between atoms: C5_22  and  C6_23 
REMARK       I    between atoms: C5_24  and  C6_77 
REMARK       I    between atoms: O1_27  and  C1_48 
REMARK       I    between atoms: C5_28  and  C6_30 
REMARK       I    between atoms: C5_29  and  C6_93 
REMARK       I    between atoms: O1S_31  and  S1_44 
REMARK       I    between atoms: C3_33  and  O3_69 
REMARK       I    between atoms: C2_37  and  N_99 
REMARK       I    between atoms: S2_38  and  O6_102 
REMARK       I    between atoms: O6_39  and  C6_77 
REMARK       I    between atoms: C2_40  and  O2_103 
REMARK       I    between atoms: O3S_42  and  S1_44 
REMARK       I    between atoms: S1_44  and  N_99 
REMARK       I    between atoms: S1_44  and  O2S_81 
REMARK       I    between atoms: S1_45  and  N_94 
REMARK       I    between atoms: S1_45  and  O1S_46 
REMARK       I    between atoms: S1_45  and  O3S_58 
REMARK       I    between atoms: O3_52  and  C3_105 
REMARK       I    between atoms: S1_55  and  N_100 
REMARK       I    between atoms: S1_55  and  O1S_79 
REMARK       I    between atoms: S1_55  and  O2S_83 
REMARK       I    between atoms: O3_56  and  C3_64 
REMARK       I    between atoms: C4_60  and  O4_61 
REMARK       I    between atoms: O4_61  and  C1_73 
REMARK       I    between atoms: C6_63  and  C5_80 
REMARK       I    between atoms: C3_65  and  O3_82 
REMARK       I    between atoms: S_67  and  O2_84 
REMARK       I    between atoms: C2_68  and  O2_98 
REMARK       I    between atoms: O4_74  and  C4_97 
REMARK       I    between atoms: C2_85  and  N_94 
REMARK       I    between atoms: C2_95  and  N_100 
REMARK       I    between atoms: O2_98  and  S_104 
REMARK       I    between atoms: S_101  and  O2_103 
ROOT
ATOM      1  O6S SGN d  66      20.840  42.842  55.758  0.00  0.00    -0.572 OA
ATOM      2  C4  SGN d  66      19.097  38.409  55.301  0.00  0.00     0.095 C 
ATOM      3  C6  SGN d  66      21.006  39.034  56.830  0.00  0.00     0.067 C 
ATOM      4  O4  SGN d  66      20.072  38.158  54.183  0.00  0.00    -0.348 OA
ATOM      5  O5S SGN d  66      22.761  41.444  55.636  0.00  0.00    -0.572 OA
ATOM      6  O2S SGN d  66      14.323  37.640  58.316  0.00  0.00    -0.296 OA
ATOM      7  O5  SGN d  66      18.799  38.359  57.738  0.00  0.00    -0.350 OA
ATOM      8  O1  SGN d  66      17.902  36.128  57.626  0.00  0.00    -0.369 OA
ATOM      9  C5  SGN d  66      19.767  38.136  56.656  0.00  0.00     0.091 C 
ATOM     10  S2  SGN d  66      21.305  41.489  55.527  0.00  0.00     0.251 S 
ATOM     11  S1  SGN d  66      14.699  36.483  57.527  0.00  0.00     0.156 S 
ATOM     12  O1S SGN d  66      13.531  35.801  56.990  0.00  0.00    -0.296 OA
ATOM     13  C1  SGN d  66      17.589  37.535  57.649  0.00  0.00     0.147 C 
ATOM     14  O3S SGN d  66      15.435  35.519  58.332  0.00  0.00    -0.296 OA
ATOM     15  C3  SGN d  66      17.810  37.582  55.142  0.00  0.00     0.083 C 
ATOM     16  O3  SGN d  66      17.135  37.984  53.951  0.00  0.00    -0.391 OA
ATOM     17  C2  SGN d  66      16.882  37.878  56.322  0.00  0.00     0.081 C 
ATOM     18  O4S SGN d  66      20.867  41.052  54.209  0.00  0.00    -0.572 OA
ATOM     19  N   SGN d  66      15.657  37.084  56.149  0.00  0.00    -0.210 NA
ATOM     20  O6  SGN d  66      20.634  40.432  56.793  0.00  0.00    -0.254 OA
ATOM     21  H   SGN d  66      18.808  39.438  55.258  0.00  0.00     0.091 H 
ATOM     22  H   SGN d  66      21.698  38.834  56.038  0.00  0.00     0.080 H 
ATOM     23  H   SGN d  66      21.454  38.823  57.778  0.00  0.00     0.080 H 
ATOM     24  H   SGN d  66      13.835  38.266  57.758  0.00  0.00     0.231 HD
ATOM     25  H   SGN d  66      18.349  35.882  58.451  0.00  0.00     0.212 HD
ATOM     26  H   SGN d  66      20.092  37.117  56.693  0.00  0.00     0.090 H 
ATOM     27  H   SGN d  66      13.018  36.419  56.447  0.00  0.00     0.231 HD
ATOM     28  H   SGN d  66      16.978  37.735  58.504  0.00  0.00     0.131 H 
ATOM     29  H   SGN d  66      16.223  35.944  58.706  0.00  0.00     0.231 HD
ATOM     30  H   SGN d  66      18.060  36.543  55.100  0.00  0.00     0.089 H 
ATOM     31  H   SGN d  66      16.917  38.928  54.006  0.00  0.00     0.210 HD
ATOM     32  H   SGN d  66      16.630  38.918  56.354  0.00  0.00     0.076 H 
ATOM     33  H   SGN d  66      15.023  37.659  55.594  0.00  0.00     0.140 HD
ATOM     34  O61 IDS d  65      17.859  34.363  51.981  0.00  0.00    -0.646 OA
ATOM     35  O3  IDS d  65      22.978  35.610  52.466  0.00  0.00    -0.390 OA
ATOM     36  C5  IDS d  65      19.297  36.179  52.570  0.00  0.00     0.152 C 
ATOM     37  C6  IDS d  65      18.015  35.607  51.909  0.00  0.00     0.206 C 
ATOM     38  O5  IDS d  65      19.340  37.614  52.302  0.00  0.00    -0.340 OA
ATOM     39  C1  IDS d  65      20.481  38.336  52.835  0.00  0.00     0.161 C 
ATOM     40  O1S IDS d  65      25.300  37.094  53.515  0.00  0.00    -0.572 OA
ATOM     41  C4  IDS d  65      20.623  35.463  52.132  0.00  0.00     0.103 C 
ATOM     42  O4  IDS d  65      20.147  34.528  51.161  0.00  0.00    -0.348 OA
ATOM     43  C2  IDS d  65      21.705  37.441  53.194  0.00  0.00     0.134 C 
ATOM     44  O62 IDS d  65      17.192  36.401  51.360  0.00  0.00    -0.646 OA
ATOM     45  C3  IDS d  65      21.865  36.383  52.148  0.00  0.00     0.094 C 
ATOM     46  O2S IDS d  65      23.588  36.607  55.102  0.00  0.00    -0.572 OA
ATOM     47  O3S IDS d  65      24.637  38.736  55.137  0.00  0.00    -0.572 OA
ATOM     48  O2  IDS d  65      22.901  38.205  53.175  0.00  0.00    -0.244 OA
ATOM     49  S   IDS d  65      24.183  37.643  54.281  0.00  0.00     0.252 S 
ATOM     50  H   IDS d  65      23.094  34.919  51.795  0.00  0.00     0.210 HD
ATOM     51  H   IDS d  65      19.240  35.992  53.622  0.00  0.00     0.104 H 
ATOM     52  H   IDS d  65      20.691  39.204  52.245  0.00  0.00     0.133 H 
ATOM     53  H   IDS d  65      21.221  34.830  52.754  0.00  0.00     0.092 H 
ATOM     54  H   IDS d  65      21.537  37.023  54.164  0.00  0.00     0.097 H 
ATOM     55  H   IDS d  65      21.980  36.847  51.191  0.00  0.00     0.091 H 
ATOM     56  O3S SGN d  62      17.460  34.904  42.418  0.00  0.00    -0.296 OA
ATOM     57  C1  SGN d  62      20.354  33.020  42.030  0.00  0.00     0.150 C 
ATOM     58  S2  SGN d  62      25.308  30.387  40.057  0.00  0.00     0.251 S 
ATOM     59  C5  SGN d  62      21.844  31.743  40.496  0.00  0.00     0.091 C 
ATOM     60  O5  SGN d  62      21.584  32.968  41.239  0.00  0.00    -0.349 OA
ATOM     61  O4S SGN d  62      26.189  31.117  39.207  0.00  0.00    -0.572 OA
ATOM     62  O6  SGN d  62      23.654  30.608  39.539  0.00  0.00    -0.254 OA
ATOM     63  O3  SGN d  62      18.312  30.966  39.673  0.00  0.00    -0.391 OA
ATOM     64  S1  SGN d  62      16.861  33.660  41.991  0.00  0.00     0.156 S 
ATOM     65  O6S SGN d  62      25.426  30.769  41.462  0.00  0.00    -0.572 OA
ATOM     66  O4  SGN d  62      20.979  30.261  38.819  0.00  0.00    -0.348 OA
ATOM     67  C6  SGN d  62      23.143  31.913  39.746  0.00  0.00     0.067 C 
ATOM     68  O5S SGN d  62      25.563  28.977  39.950  0.00  0.00    -0.572 OA
ATOM     69  O1S SGN d  62      15.783  33.252  42.867  0.00  0.00    -0.296 OA
ATOM     70  O2S SGN d  62      16.431  33.821  40.632  0.00  0.00    -0.296 OA
ATOM     71  C2  SGN d  62      19.188  32.595  41.148  0.00  0.00     0.081 C 
ATOM     72  C4  SGN d  62      20.678  31.458  39.533  0.00  0.00     0.095 C 
ATOM     73  N   SGN d  62      18.046  32.378  41.977  0.00  0.00    -0.210 NA
ATOM     74  C3  SGN d  62      19.450  31.264  40.437  0.00  0.00     0.083 C 
ATOM     75  H   SGN d  62      17.759  34.820  43.337  0.00  0.00     0.231 HD
ATOM     76  H   SGN d  62      20.264  34.027  42.380  0.00  0.00     0.131 H 
ATOM     77  H   SGN d  62      21.926  30.909  41.161  0.00  0.00     0.090 H 
ATOM     78  H   SGN d  62      17.550  30.848  40.261  0.00  0.00     0.210 HD
ATOM     79  H   SGN d  62      23.832  32.494  40.323  0.00  0.00     0.080 H 
ATOM     80  H   SGN d  62      22.993  32.425  38.818  0.00  0.00     0.080 H 
ATOM     81  H   SGN d  62      16.119  33.157  43.772  0.00  0.00     0.231 HD
ATOM     82  H   SGN d  62      17.185  34.094  40.085  0.00  0.00     0.231 HD
ATOM     83  H   SGN d  62      19.046  33.368  40.422  0.00  0.00     0.076 H 
ATOM     84  H   SGN d  62      20.509  32.238  38.820  0.00  0.00     0.091 H 
ATOM     85  H   SGN d  62      17.583  31.528  41.656  0.00  0.00     0.140 HD
ATOM     86  H   SGN d  62      19.637  30.463  41.121  0.00  0.00     0.089 H 
ATOM     87  O4  IDS d  63      20.363  32.168  43.183  0.00  0.00    -0.348 OA
ATOM     88  O62 IDS d  63      22.536  30.364  45.554  0.00  0.00    -0.646 OA
ATOM     89  C2  IDS d  63      18.027  32.145  45.232  0.00  0.00     0.134 C 
ATOM     90  O2S IDS d  63      15.687  30.125  44.932  0.00  0.00    -0.572 OA
ATOM     91  O61 IDS d  63      23.229  32.315  44.925  0.00  0.00    -0.646 OA
ATOM     92  C3  IDS d  63      18.831  33.375  44.789  0.00  0.00     0.094 C 
ATOM     93  C1  IDS d  63      18.740  31.442  46.420  0.00  0.00     0.161 C 
ATOM     94  O5  IDS d  63      20.035  30.987  45.953  0.00  0.00    -0.340 OA
ATOM     95  C4  IDS d  63      20.302  32.933  44.381  0.00  0.00     0.103 C 
ATOM     96  C6  IDS d  63      22.340  31.554  45.302  0.00  0.00     0.206 C 
ATOM     97  S   IDS d  63      16.997  29.776  44.398  0.00  0.00     0.252 S 
ATOM     98  O3  IDS d  63      18.868  34.212  45.924  0.00  0.00    -0.390 OA
ATOM     99  C5  IDS d  63      20.931  32.097  45.528  0.00  0.00     0.152 C 
ATOM    100  O2  IDS d  63      17.848  31.302  44.124  0.00  0.00    -0.244 OA
ATOM    101  O1S IDS d  63      16.915  29.136  43.098  0.00  0.00    -0.572 OA
ATOM    102  O3S IDS d  63      17.618  28.906  45.355  0.00  0.00    -0.572 OA
ATOM    103  H   IDS d  63      17.058  32.429  45.586  0.00  0.00     0.097 H 
ATOM    104  H   IDS d  63      18.398  33.866  43.943  0.00  0.00     0.091 H 
ATOM    105  H   IDS d  63      18.230  30.581  46.799  0.00  0.00     0.133 H 
ATOM    106  H   IDS d  63      20.844  33.840  44.206  0.00  0.00     0.092 H 
ATOM    107  H   IDS d  63      19.266  33.732  46.667  0.00  0.00     0.210 HD
ATOM    108  H   IDS d  63      21.039  32.824  46.304  0.00  0.00     0.104 H 
ATOM    109  O4  SGN d  64      18.822  32.449  47.476  0.00  0.00    -0.348 OA
ATOM    110  O6  SGN d  64      16.984  31.040  50.919  0.00  0.00    -0.254 OA
ATOM    111  C3  SGN d  64      20.736  33.019  48.888  0.00  0.00     0.083 C 
ATOM    112  S2  SGN d  64      17.927  29.532  51.050  0.00  0.00     0.251 S 
ATOM    113  C5  SGN d  64      18.468  32.628  49.849  0.00  0.00     0.091 C 
ATOM    114  O1S SGN d  64      24.646  31.959  50.903  0.00  0.00    -0.296 OA
ATOM    115  C2  SGN d  64      21.349  32.729  50.223  0.00  0.00     0.081 C 
ATOM    116  O4S SGN d  64      17.593  28.705  49.919  0.00  0.00    -0.572 OA
ATOM    117  O3S SGN d  64      24.021  32.157  48.623  0.00  0.00    -0.296 OA
ATOM    118  S1  SGN d  64      24.116  32.859  49.890  0.00  0.00     0.156 S 
ATOM    119  O6S SGN d  64      19.350  29.799  51.059  0.00  0.00    -0.572 OA
ATOM    120  O5S SGN d  64      17.565  28.872  52.275  0.00  0.00    -0.572 OA
ATOM    121  O3  SGN d  64      21.676  32.654  47.943  0.00  0.00    -0.391 OA
ATOM    122  C1  SGN d  64      20.371  33.124  51.299  0.00  0.00     0.150 C 
ATOM    123  O2S SGN d  64      24.959  34.012  49.734  0.00  0.00    -0.296 OA
ATOM    124  C4  SGN d  64      19.440  32.180  48.743  0.00  0.00     0.095 C 
ATOM    125  O5  SGN d  64      19.144  32.385  51.117  0.00  0.00    -0.349 OA
ATOM    126  C6  SGN d  64      17.179  31.839  49.761  0.00  0.00     0.067 C 
ATOM    127  N   SGN d  64      22.547  33.516  50.383  0.00  0.00    -0.210 NA
ATOM    128  H   SGN d  64      20.475  34.050  48.769  0.00  0.00     0.089 H 
ATOM    129  H   SGN d  64      18.209  33.663  49.751  0.00  0.00     0.090 H 
ATOM    130  H   SGN d  64      24.061  31.191  50.990  0.00  0.00     0.231 HD
ATOM    131  H   SGN d  64      21.584  31.688  50.292  0.00  0.00     0.076 H 
ATOM    132  H   SGN d  64      23.452  31.378  48.726  0.00  0.00     0.231 HD
ATOM    133  H   SGN d  64      21.906  31.718  48.060  0.00  0.00     0.210 HD
ATOM    134  H   SGN d  64      20.745  32.906  52.277  0.00  0.00     0.131 H 
ATOM    135  H   SGN d  64      25.846  33.729  49.462  0.00  0.00     0.231 HD
ATOM    136  H   SGN d  64      19.672  31.138  48.816  0.00  0.00     0.091 H 
ATOM    137  H   SGN d  64      16.359  32.520  49.665  0.00  0.00     0.080 H 
ATOM    138  H   SGN d  64      17.235  31.194  48.909  0.00  0.00     0.080 H 
ATOM    139  H   SGN d  64      22.620  33.740  51.375  0.00  0.00     0.140 HD
ATOM    140  C1  IDS d  61      20.834  30.376  37.389  0.00  0.00     0.167 C 
ATOM    141  O5  IDS d  61      19.437  30.601  37.066  0.00  0.00    -0.311 OA
ATOM    142  C5  IDS d  61      18.533  29.549  37.119  0.00  0.00     0.147 C 
ATOM    143  C6  IDS d  61      17.013  29.899  36.879  0.00  0.00     0.233 C 
ATOM    144  C2  IDS d  61      21.263  29.052  36.766  0.00  0.00     0.135 C 
ATOM    145  O1S IDS d  61      19.863  31.303  34.756  0.00  0.00    -0.572 OA
ATOM    146  O3S IDS d  61      22.269  31.447  34.816  0.00  0.00    -0.572 OA
ATOM    147  O3  IDS d  61      20.873  27.424  38.376  0.00  0.00    -0.389 OA
ATOM    148  C4  IDS d  61      18.933  28.253  37.250  0.00  0.00    -0.034 C 
ATOM    149  C3  IDS d  61      20.374  27.875  37.167  0.00  0.00     0.086 C 
ATOM    150  O61 IDS d  61      16.172  29.000  36.861  0.00  0.00    -0.642 OA
ATOM    151  O62 IDS d  61      16.670  31.090  36.674  0.00  0.00    -0.642 OA
ATOM    152  O2S IDS d  61      21.063  30.402  33.033  0.00  0.00    -0.572 OA
ATOM    153  S   IDS d  61      21.108  30.658  34.432  0.00  0.00     0.252 S 
ATOM    154  O2  IDS d  61      21.186  29.120  35.331  0.00  0.00    -0.244 OA
ATOM    155  H   IDS d  61      21.429  31.187  37.021  0.00  0.00     0.134 H 
ATOM    156  H   IDS d  61      22.260  28.893  37.121  0.00  0.00     0.097 H 
ATOM    157  H   IDS d  61      21.809  27.191  38.272  0.00  0.00     0.210 HD
ATOM    158  H   IDS d  61      18.226  27.519  37.410  0.00  0.00     0.085 H 
ATOM    159  H   IDS d  61      20.399  27.102  36.428  0.00  0.00     0.093 H 
ENDROOT
TORSDOF 50
ENDMDL
MODEL 54
REMARK VINA RESULT:      -5.2      4.554      8.172
REMARK  0 active torsions:
REMARK  status: ('A' for Active; 'I' for Inactive)
REMARK       I    between atoms: O3S_3  and  S1_55 
REMARK       I    between atoms: O3_4  and  C3_87 
REMARK       I    between atoms: O4_5  and  C1_15 
REMARK       I    between atoms: O4_5  and  C4_57 
REMARK       I    between atoms: O4_7  and  C1_36 
REMARK       I    between atoms: O4_7  and  C4_89 
REMARK       I    between atoms: C4_8  and  O4_18 
REMARK       I    between atoms: C2_9  and  O2_84 
REMARK       I    between atoms: C6_10  and  C5_32 
REMARK       I    between atoms: C6_10  and  O6_102 
REMARK       I    between atoms: O6_11  and  C6_93 
REMARK       I    between atoms: O6_11  and  S2_25 
REMARK       I    between atoms: C1_13  and  O4_74 
REMARK       I    between atoms: C3_14  and  O3_71 
REMARK       I    between atoms: O4_18  and  C1_54 
REMARK       I    between atoms: S2_19  and  O6_39 
REMARK       I    between atoms: O2S_21  and  S1_45 
REMARK       I    between atoms: C5_22  and  C6_23 
REMARK       I    between atoms: C5_24  and  C6_77 
REMARK       I    between atoms: O1_27  and  C1_48 
REMARK       I    between atoms: C5_28  and  C6_30 
REMARK       I    between atoms: C5_29  and  C6_93 
REMARK       I    between atoms: O1S_31  and  S1_44 
REMARK       I    between atoms: C3_33  and  O3_69 
REMARK       I    between atoms: C2_37  and  N_99 
REMARK       I    between atoms: S2_38  and  O6_102 
REMARK       I    between atoms: O6_39  and  C6_77 
REMARK       I    between atoms: C2_40  and  O2_103 
REMARK       I    between atoms: O3S_42  and  S1_44 
REMARK       I    between atoms: S1_44  and  N_99 
REMARK       I    between atoms: S1_44  and  O2S_81 
REMARK       I    between atoms: S1_45  and  N_94 
REMARK       I    between atoms: S1_45  and  O1S_46 
REMARK       I    between atoms: S1_45  and  O3S_58 
REMARK       I    between atoms: O3_52  and  C3_105 
REMARK       I    between atoms: S1_55  and  N_100 
REMARK       I    between atoms: S1_55  and  O1S_79 
REMARK       I    between atoms: S1_55  and  O2S_83 
REMARK       I    between atoms: O3_56  and  C3_64 
REMARK       I    between atoms: C4_60  and  O4_61 
REMARK       I    between atoms: O4_61  and  C1_73 
REMARK       I    between atoms: C6_63  and  C5_80 
REMARK       I    between atoms: C3_65  and  O3_82 
REMARK       I    between atoms: S_67  and  O2_84 
REMARK       I    between atoms: C2_68  and  O2_98 
REMARK       I    between atoms: O4_74  and  C4_97 
REMARK       I    between atoms: C2_85  and  N_94 
REMARK       I    between atoms: C2_95  and  N_100 
REMARK       I    between atoms: O2_98  and  S_104 
REMARK       I    between atoms: S_101  and  O2_103 
ROOT
ATOM      1  O6S SGN d  66      14.788  27.873  54.082  0.00  0.00    -0.572 OA
ATOM      2  C4  SGN d  66      18.377  30.620  52.511  0.00  0.00     0.095 C 
ATOM      3  C6  SGN d  66      16.237  31.513  53.509  0.00  0.00     0.067 C 
ATOM      4  O4  SGN d  66      17.748  30.633  51.145  0.00  0.00    -0.348 OA
ATOM      5  O5S SGN d  66      13.727  29.617  52.860  0.00  0.00    -0.572 OA
ATOM      6  O2S SGN d  66      22.625  30.998  56.291  0.00  0.00    -0.296 OA
ATOM      7  O5  SGN d  66      18.398  31.714  54.710  0.00  0.00    -0.350 OA
ATOM      8  O1  SGN d  66      20.209  33.146  54.028  0.00  0.00    -0.369 OA
ATOM      9  C5  SGN d  66      17.758  31.719  53.388  0.00  0.00     0.091 C 
ATOM     10  S2  SGN d  66      15.009  29.018  53.221  0.00  0.00     0.251 S 
ATOM     11  S1  SGN d  66      22.898  31.689  55.046  0.00  0.00     0.156 S 
ATOM     12  O1S SGN d  66      24.299  31.574  54.668  0.00  0.00    -0.296 OA
ATOM     13  C1  SGN d  66      19.851  31.912  54.682  0.00  0.00     0.147 C 
ATOM     14  O3S SGN d  66      22.592  33.107  55.157  0.00  0.00    -0.296 OA
ATOM     15  C3  SGN d  66      19.907  30.760  52.444  0.00  0.00     0.083 C 
ATOM     16  O3  SGN d  66      20.455  29.632  51.763  0.00  0.00    -0.391 OA
ATOM     17  C2  SGN d  66      20.468  30.757  53.869  0.00  0.00     0.081 C 
ATOM     18  O4S SGN d  66      15.738  28.590  52.036  0.00  0.00    -0.572 OA
ATOM     19  N   SGN d  66      21.929  30.884  53.783  0.00  0.00    -0.210 NA
ATOM     20  O6  SGN d  66      15.941  30.237  54.124  0.00  0.00    -0.254 OA
ATOM     21  H   SGN d  66      18.175  29.668  52.956  0.00  0.00     0.091 H 
ATOM     22  H   SGN d  66      15.800  31.541  52.532  0.00  0.00     0.080 H 
ATOM     23  H   SGN d  66      15.831  32.292  54.120  0.00  0.00     0.080 H 
ATOM     24  H   SGN d  66      22.836  30.056  56.191  0.00  0.00     0.231 HD
ATOM     25  H   SGN d  66      19.833  33.893  54.519  0.00  0.00     0.212 HD
ATOM     26  H   SGN d  66      17.925  32.673  52.932  0.00  0.00     0.090 H 
ATOM     27  H   SGN d  66      24.536  30.636  54.586  0.00  0.00     0.231 HD
ATOM     28  H   SGN d  66      20.209  31.943  55.690  0.00  0.00     0.131 H 
ATOM     29  H   SGN d  66      21.662  33.219  55.408  0.00  0.00     0.231 HD
ATOM     30  H   SGN d  66      20.158  31.666  51.935  0.00  0.00     0.089 H 
ATOM     31  H   SGN d  66      20.217  28.821  52.238  0.00  0.00     0.210 HD
ATOM     32  H   SGN d  66      20.220  29.844  54.371  0.00  0.00     0.076 H 
ATOM     33  H   SGN d  66      22.293  29.934  53.711  0.00  0.00     0.140 HD
ATOM     34  O61 IDS d  65      21.658  31.871  48.438  0.00  0.00    -0.646 OA
ATOM     35  O3  IDS d  65      16.506  32.893  47.792  0.00  0.00    -0.390 OA
ATOM     36  C5  IDS d  65      19.502  31.191  49.213  0.00  0.00     0.152 C 
ATOM     37  C6  IDS d  65      20.968  30.888  48.804  0.00  0.00     0.206 C 
ATOM     38  O5  IDS d  65      18.847  29.921  49.516  0.00  0.00    -0.340 OA
ATOM     39  C1  IDS d  65      17.453  29.993  49.912  0.00  0.00     0.161 C 
ATOM     40  O1S IDS d  65      13.667  33.009  48.575  0.00  0.00    -0.572 OA
ATOM     41  C4  IDS d  65      18.697  32.026  48.156  0.00  0.00     0.103 C 
ATOM     42  O4  IDS d  65      19.646  32.152  47.094  0.00  0.00    -0.348 OA
ATOM     43  C2  IDS d  65      16.731  31.315  49.513  0.00  0.00     0.134 C 
ATOM     44  O62 IDS d  65      21.399  29.698  48.878  0.00  0.00    -0.646 OA
ATOM     45  C3  IDS d  65      17.180  31.727  48.148  0.00  0.00     0.094 C 
ATOM     46  O2S IDS d  65      15.230  33.556  50.291  0.00  0.00    -0.572 OA
ATOM     47  O3S IDS d  65      13.338  32.224  50.820  0.00  0.00    -0.572 OA
ATOM     48  O2  IDS d  65      15.330  31.109  49.429  0.00  0.00    -0.244 OA
ATOM     49  S   IDS d  65      14.326  32.538  49.792  0.00  0.00     0.252 S 
ATOM     50  H   IDS d  65      16.788  33.172  46.907  0.00  0.00     0.210 HD
ATOM     51  H   IDS d  65      19.522  31.822  50.077  0.00  0.00     0.104 H 
ATOM     52  H   IDS d  65      16.941  29.086  49.667  0.00  0.00     0.133 H 
ATOM     53  H   IDS d  65      18.384  33.042  48.275  0.00  0.00     0.092 H 
ATOM     54  H   IDS d  65      16.963  32.054  50.251  0.00  0.00     0.097 H 
ATOM     55  H   IDS d  65      16.974  30.939  47.454  0.00  0.00     0.091 H 
ATOM     56  O3S SGN d  62      22.813  26.749  40.417  0.00  0.00    -0.296 OA
ATOM     57  C1  SGN d  62      21.138  29.100  38.483  0.00  0.00     0.150 C 
ATOM     58  S2  SGN d  62      18.147  32.025  34.256  0.00  0.00     0.251 S 
ATOM     59  C5  SGN d  62      20.560  29.923  36.205  0.00  0.00     0.091 C 
ATOM     60  O5  SGN d  62      20.157  29.197  37.401  0.00  0.00    -0.349 OA
ATOM     61  O4S SGN d  62      17.131  31.342  33.527  0.00  0.00    -0.572 OA
ATOM     62  O6  SGN d  62      19.570  31.019  34.388  0.00  0.00    -0.254 OA
ATOM     63  O3  SGN d  62      24.129  28.920  36.255  0.00  0.00    -0.391 OA
ATOM     64  S1  SGN d  62      23.950  27.339  39.749  0.00  0.00     0.156 S 
ATOM     65  O6S SGN d  62      17.718  32.426  35.593  0.00  0.00    -0.572 OA
ATOM     66  O4  SGN d  62      22.177  30.019  34.435  0.00  0.00    -0.348 OA
ATOM     67  C6  SGN d  62      19.413  29.886  35.222  0.00  0.00     0.067 C 
ATOM     68  O5S SGN d  62      18.568  33.201  33.545  0.00  0.00    -0.572 OA
ATOM     69  O1S SGN d  62      24.993  27.706  40.683  0.00  0.00    -0.296 OA
ATOM     70  O2S SGN d  62      24.407  26.412  38.754  0.00  0.00    -0.296 OA
ATOM     71  C2  SGN d  62      22.459  28.614  37.902  0.00  0.00     0.081 C 
ATOM     72  C4  SGN d  62      21.826  29.287  35.607  0.00  0.00     0.095 C 
ATOM     73  N   SGN d  62      23.478  28.782  38.888  0.00  0.00    -0.210 NA
ATOM     74  C3  SGN d  62      22.903  29.441  36.693  0.00  0.00     0.083 C 
ATOM     75  H   SGN d  62      22.485  27.359  41.096  0.00  0.00     0.231 HD
ATOM     76  H   SGN d  62      20.727  28.423  39.201  0.00  0.00     0.131 H 
ATOM     77  H   SGN d  62      20.790  30.941  36.441  0.00  0.00     0.090 H 
ATOM     78  H   SGN d  62      24.794  29.027  36.953  0.00  0.00     0.210 HD
ATOM     79  H   SGN d  62      18.478  29.934  35.741  0.00  0.00     0.080 H 
ATOM     80  H   SGN d  62      19.417  28.979  34.654  0.00  0.00     0.080 H 
ATOM     81  H   SGN d  62      24.640  28.331  41.335  0.00  0.00     0.231 HD
ATOM     82  H   SGN d  62      23.676  26.196  38.153  0.00  0.00     0.231 HD
ATOM     83  H   SGN d  62      22.317  27.595  37.608  0.00  0.00     0.076 H 
ATOM     84  H   SGN d  62      21.703  28.259  35.334  0.00  0.00     0.091 H 
ATOM     85  H   SGN d  62      24.306  29.153  38.422  0.00  0.00     0.140 HD
ATOM     86  H   SGN d  62      23.023  30.479  36.927  0.00  0.00     0.089 H 
ATOM     87  O4  IDS d  63      21.387  30.338  39.161  0.00  0.00    -0.348 OA
ATOM     88  O62 IDS d  63      20.015  33.684  39.883  0.00  0.00    -0.646 OA
ATOM     89  C2  IDS d  63      23.244  30.511  41.645  0.00  0.00     0.134 C 
ATOM     90  O2S IDS d  63      26.260  31.177  41.317  0.00  0.00    -0.572 OA
ATOM     91  O61 IDS d  63      18.590  32.054  39.871  0.00  0.00    -0.646 OA
ATOM     92  C3  IDS d  63      22.027  29.591  41.488  0.00  0.00     0.094 C 
ATOM     93  C1  IDS d  63      22.799  31.893  42.198  0.00  0.00     0.161 C 
ATOM     94  O5  IDS d  63      21.907  32.493  41.225  0.00  0.00    -0.340 OA
ATOM     95  C4  IDS d  63      20.966  30.269  40.517  0.00  0.00     0.103 C 
ATOM     96  C6  IDS d  63      19.680  32.535  40.178  0.00  0.00     0.206 C 
ATOM     97  S   IDS d  63      25.314  31.664  40.321  0.00  0.00     0.252 S 
ATOM     98  O3  IDS d  63      21.494  29.468  42.788  0.00  0.00    -0.390 OA
ATOM     99  C5  IDS d  63      20.660  31.710  41.008  0.00  0.00     0.152 C 
ATOM    100  O2  IDS d  63      23.903  30.602  40.410  0.00  0.00    -0.244 OA
ATOM    101  O1S IDS d  63      25.817  31.534  38.966  0.00  0.00    -0.572 OA
ATOM    102  O3S IDS d  63      25.051  33.039  40.636  0.00  0.00    -0.572 OA
ATOM    103  H   IDS d  63      23.937  30.110  42.356  0.00  0.00     0.097 H 
ATOM    104  H   IDS d  63      22.281  28.640  41.068  0.00  0.00     0.091 H 
ATOM    105  H   IDS d  63      23.597  32.589  42.353  0.00  0.00     0.133 H 
ATOM    106  H   IDS d  63      20.097  29.645  40.549  0.00  0.00     0.092 H 
ATOM    107  H   IDS d  63      21.276  30.348  43.132  0.00  0.00     0.210 HD
ATOM    108  H   IDS d  63      20.152  31.530  41.932  0.00  0.00     0.104 H 
ATOM    109  O4  SGN d  64      22.158  31.611  43.481  0.00  0.00    -0.348 OA
ATOM    110  O6  SGN d  64      24.045  33.740  46.502  0.00  0.00    -0.254 OA
ATOM    111  C3  SGN d  64      20.050  32.495  44.353  0.00  0.00     0.083 C 
ATOM    112  S2  SGN d  64      23.874  35.350  45.754  0.00  0.00     0.251 S 
ATOM    113  C5  SGN d  64      22.132  32.471  45.729  0.00  0.00     0.091 C 
ATOM    114  O1S SGN d  64      16.842  35.680  44.526  0.00  0.00    -0.296 OA
ATOM    115  C2  SGN d  64      19.492  33.579  45.223  0.00  0.00     0.081 C 
ATOM    116  O4S SGN d  64      24.665  35.362  44.551  0.00  0.00    -0.572 OA
ATOM    117  O3S SGN d  64      17.556  34.217  42.800  0.00  0.00    -0.296 OA
ATOM    118  S1  SGN d  64      17.017  34.287  44.146  0.00  0.00     0.156 S 
ATOM    119  O6S SGN d  64      22.491  35.638  45.434  0.00  0.00    -0.572 OA
ATOM    120  O5S SGN d  64      24.358  36.338  46.680  0.00  0.00    -0.572 OA
ATOM    121  O3  SGN d  64      19.485  32.671  43.105  0.00  0.00    -0.391 OA
ATOM    122  C1  SGN d  64      20.064  33.428  46.609  0.00  0.00     0.150 C 
ATOM    123  O2S SGN d  64      15.768  33.578  44.197  0.00  0.00    -0.296 OA
ATOM    124  C4  SGN d  64      21.593  32.648  44.298  0.00  0.00     0.095 C 
ATOM    125  O5  SGN d  64      21.503  33.508  46.538  0.00  0.00    -0.349 OA
ATOM    126  C6  SGN d  64      23.639  32.613  45.738  0.00  0.00     0.067 C 
ATOM    127  N   SGN d  64      18.059  33.441  45.302  0.00  0.00    -0.210 NA
ATOM    128  H   SGN d  64      19.830  31.515  44.724  0.00  0.00     0.089 H 
ATOM    129  H   SGN d  64      21.906  31.499  46.117  0.00  0.00     0.090 H 
ATOM    130  H   SGN d  64      17.697  36.136  44.484  0.00  0.00     0.231 HD
ATOM    131  H   SGN d  64      19.745  34.534  44.813  0.00  0.00     0.076 H 
ATOM    132  H   SGN d  64      18.400  34.696  42.764  0.00  0.00     0.231 HD
ATOM    133  H   SGN d  64      19.690  33.561  42.780  0.00  0.00     0.210 HD
ATOM    134  H   SGN d  64      19.724  34.201  47.267  0.00  0.00     0.131 H 
ATOM    135  H   SGN d  64      15.139  33.988  43.583  0.00  0.00     0.231 HD
ATOM    136  H   SGN d  64      21.848  33.605  43.892  0.00  0.00     0.091 H 
ATOM    137  H   SGN d  64      24.070  31.730  46.163  0.00  0.00     0.080 H 
ATOM    138  H   SGN d  64      23.973  32.748  44.731  0.00  0.00     0.080 H 
ATOM    139  H   SGN d  64      17.784  33.757  46.232  0.00  0.00     0.140 HD
ATOM    140  C1  IDS d  61      22.409  29.195  33.274  0.00  0.00     0.167 C 
ATOM    141  O5  IDS d  61      23.581  28.370  33.500  0.00  0.00    -0.311 OA
ATOM    142  C5  IDS d  61      24.850  28.926  33.416  0.00  0.00     0.147 C 
ATOM    143  C6  IDS d  61      26.066  27.996  33.800  0.00  0.00     0.233 C 
ATOM    144  C2  IDS d  61      22.693  30.117  32.093  0.00  0.00     0.135 C 
ATOM    145  O1S IDS d  61      23.140  26.854  31.623  0.00  0.00    -0.572 OA
ATOM    146  O3S IDS d  61      20.937  27.611  31.004  0.00  0.00    -0.572 OA
ATOM    147  O3  IDS d  61      23.595  32.059  32.993  0.00  0.00    -0.389 OA
ATOM    148  C4  IDS d  61      25.064  30.174  32.913  0.00  0.00    -0.034 C 
ATOM    149  C3  IDS d  61      23.967  30.945  32.261  0.00  0.00     0.086 C 
ATOM    150  O61 IDS d  61      27.218  28.418  33.694  0.00  0.00    -0.642 OA
ATOM    151  O62 IDS d  61      25.857  26.818  34.181  0.00  0.00    -0.642 OA
ATOM    152  O2S IDS d  61      22.671  27.184  29.411  0.00  0.00    -0.572 OA
ATOM    153  S   IDS d  61      22.363  27.658  30.717  0.00  0.00     0.252 S 
ATOM    154  O2  IDS d  61      22.887  29.354  30.890  0.00  0.00    -0.244 OA
ATOM    155  H   IDS d  61      21.558  28.575  33.083  0.00  0.00     0.134 H 
ATOM    156  H   IDS d  61      21.842  30.764  32.041  0.00  0.00     0.097 H 
ATOM    157  H   IDS d  61      22.882  32.527  32.530  0.00  0.00     0.210 HD
ATOM    158  H   IDS d  61      26.004  30.595  32.986  0.00  0.00     0.085 H 
ATOM    159  H   IDS d  61      24.373  31.227  31.312  0.00  0.00     0.093 H 
ENDROOT
TORSDOF 50
ENDMDL
MODEL 55
REMARK VINA RESULT:      -5.2      3.096     16.242
REMARK  0 active torsions:
REMARK  status: ('A' for Active; 'I' for Inactive)
REMARK       I    between atoms: O3S_3  and  S1_55 
REMARK       I    between atoms: O3_4  and  C3_87 
REMARK       I    between atoms: O4_5  and  C1_15 
REMARK       I    between atoms: O4_5  and  C4_57 
REMARK       I    between atoms: O4_7  and  C1_36 
REMARK       I    between atoms: O4_7  and  C4_89 
REMARK       I    between atoms: C4_8  and  O4_18 
REMARK       I    between atoms: C2_9  and  O2_84 
REMARK       I    between atoms: C6_10  and  C5_32 
REMARK       I    between atoms: C6_10  and  O6_102 
REMARK       I    between atoms: O6_11  and  C6_93 
REMARK       I    between atoms: O6_11  and  S2_25 
REMARK       I    between atoms: C1_13  and  O4_74 
REMARK       I    between atoms: C3_14  and  O3_71 
REMARK       I    between atoms: O4_18  and  C1_54 
REMARK       I    between atoms: S2_19  and  O6_39 
REMARK       I    between atoms: O2S_21  and  S1_45 
REMARK       I    between atoms: C5_22  and  C6_23 
REMARK       I    between atoms: C5_24  and  C6_77 
REMARK       I    between atoms: O1_27  and  C1_48 
REMARK       I    between atoms: C5_28  and  C6_30 
REMARK       I    between atoms: C5_29  and  C6_93 
REMARK       I    between atoms: O1S_31  and  S1_44 
REMARK       I    between atoms: C3_33  and  O3_69 
REMARK       I    between atoms: C2_37  and  N_99 
REMARK       I    between atoms: S2_38  and  O6_102 
REMARK       I    between atoms: O6_39  and  C6_77 
REMARK       I    between atoms: C2_40  and  O2_103 
REMARK       I    between atoms: O3S_42  and  S1_44 
REMARK       I    between atoms: S1_44  and  N_99 
REMARK       I    between atoms: S1_44  and  O2S_81 
REMARK       I    between atoms: S1_45  and  N_94 
REMARK       I    between atoms: S1_45  and  O1S_46 
REMARK       I    between atoms: S1_45  and  O3S_58 
REMARK       I    between atoms: O3_52  and  C3_105 
REMARK       I    between atoms: S1_55  and  N_100 
REMARK       I    between atoms: S1_55  and  O1S_79 
REMARK       I    between atoms: S1_55  and  O2S_83 
REMARK       I    between atoms: O3_56  and  C3_64 
REMARK       I    between atoms: C4_60  and  O4_61 
REMARK       I    between atoms: O4_61  and  C1_73 
REMARK       I    between atoms: C6_63  and  C5_80 
REMARK       I    between atoms: C3_65  and  O3_82 
REMARK       I    between atoms: S_67  and  O2_84 
REMARK       I    between atoms: C2_68  and  O2_98 
REMARK       I    between atoms: O4_74  and  C4_97 
REMARK       I    between atoms: C2_85  and  N_94 
REMARK       I    between atoms: C2_95  and  N_100 
REMARK       I    between atoms: O2_98  and  S_104 
REMARK       I    between atoms: S_101  and  O2_103 
ROOT
ATOM      1  O6S SGN d  66      16.578  34.300  34.913  0.00  0.00    -0.572 OA
ATOM      2  C4  SGN d  66      19.069  32.471  38.565  0.00  0.00     0.095 C 
ATOM      3  C6  SGN d  66      16.990  31.418  37.596  0.00  0.00     0.067 C 
ATOM      4  O4  SGN d  66      18.223  33.267  39.521  0.00  0.00    -0.348 OA
ATOM      5  O5S SGN d  66      14.932  33.621  36.490  0.00  0.00    -0.572 OA
ATOM      6  O2S SGN d  66      23.706  29.651  36.825  0.00  0.00    -0.296 OA
ATOM      7  O5  SGN d  66      19.218  30.366  37.308  0.00  0.00    -0.350 OA
ATOM      8  O1  SGN d  66      20.483  29.346  39.083  0.00  0.00    -0.369 OA
ATOM      9  C5  SGN d  66      18.371  31.147  38.220  0.00  0.00     0.091 C 
ATOM     10  S2  SGN d  66      16.363  33.787  36.251  0.00  0.00     0.251 S 
ATOM     11  S1  SGN d  66      23.580  29.719  38.268  0.00  0.00     0.156 S 
ATOM     12  O1S SGN d  66      24.878  29.868  38.910  0.00  0.00    -0.296 OA
ATOM     13  C1  SGN d  66      20.553  30.059  37.833  0.00  0.00     0.147 C 
ATOM     14  O3S SGN d  66      22.969  28.510  38.797  0.00  0.00    -0.296 OA
ATOM     15  C3  SGN d  66      20.485  32.225  39.115  0.00  0.00     0.083 C 
ATOM     16  O3  SGN d  66      21.156  33.475  39.266  0.00  0.00    -0.391 OA
ATOM     17  C2  SGN d  66      21.274  31.397  38.098  0.00  0.00     0.081 C 
ATOM     18  O4S SGN d  66      16.951  34.707  37.214  0.00  0.00    -0.572 OA
ATOM     19  N   SGN d  66      22.623  31.178  38.637  0.00  0.00    -0.210 NA
ATOM     20  O6  SGN d  66      17.122  32.181  36.373  0.00  0.00    -0.254 OA
ATOM     21  H   SGN d  66      19.183  33.047  37.670  0.00  0.00     0.091 H 
ATOM     22  H   SGN d  66      16.393  31.970  38.291  0.00  0.00     0.080 H 
ATOM     23  H   SGN d  66      16.525  30.481  37.368  0.00  0.00     0.080 H 
ATOM     24  H   SGN d  66      24.114  30.468  36.497  0.00  0.00     0.231 HD
ATOM     25  H   SGN d  66      20.034  28.497  38.947  0.00  0.00     0.212 HD
ATOM     26  H   SGN d  66      18.221  30.580  39.115  0.00  0.00     0.090 H 
ATOM     27  H   SGN d  66      25.313  30.668  38.576  0.00  0.00     0.231 HD
ATOM     28  H   SGN d  66      21.066  29.450  37.119  0.00  0.00     0.131 H 
ATOM     29  H   SGN d  66      22.099  28.381  38.388  0.00  0.00     0.231 HD
ATOM     30  H   SGN d  66      20.417  31.718  40.054  0.00  0.00     0.089 H 
ATOM     31  H   SGN d  66      21.207  33.920  38.406  0.00  0.00     0.210 HD
ATOM     32  H   SGN d  66      21.344  31.913  37.162  0.00  0.00     0.076 H 
ATOM     33  H   SGN d  66      23.184  31.970  38.325  0.00  0.00     0.140 HD
ATOM     34  O61 IDS d  65      21.179  33.277  43.446  0.00  0.00    -0.646 OA
ATOM     35  O3  IDS d  65      15.902  33.331  43.056  0.00  0.00    -0.390 OA
ATOM     36  C5  IDS d  65      19.421  33.658  41.873  0.00  0.00     0.152 C 
ATOM     37  C6  IDS d  65      20.820  33.974  42.464  0.00  0.00     0.206 C 
ATOM     38  O5  IDS d  65      19.153  34.624  40.810  0.00  0.00    -0.340 OA
ATOM     39  C1  IDS d  65      17.875  34.500  40.133  0.00  0.00     0.161 C 
ATOM     40  O1S IDS d  65      13.302  33.117  41.683  0.00  0.00    -0.572 OA
ATOM     41  C4  IDS d  65      18.265  33.620  42.933  0.00  0.00     0.103 C 
ATOM     42  O4  IDS d  65      18.952  33.988  44.132  0.00  0.00    -0.348 OA
ATOM     43  C2  IDS d  65      16.800  33.691  40.919  0.00  0.00     0.134 C 
ATOM     44  O62 IDS d  65      21.530  34.879  41.932  0.00  0.00    -0.646 OA
ATOM     45  C3  IDS d  65      16.887  34.038  42.371  0.00  0.00     0.094 C 
ATOM     46  O2S IDS d  65      14.969  31.564  40.978  0.00  0.00    -0.572 OA
ATOM     47  O3S IDS d  65      13.575  32.594  39.355  0.00  0.00    -0.572 OA
ATOM     48  O2  IDS d  65      15.496  34.060  40.497  0.00  0.00    -0.244 OA
ATOM     49  S   IDS d  65      14.260  32.781  40.631  0.00  0.00     0.252 S 
ATOM     50  H   IDS d  65      15.947  33.546  44.001  0.00  0.00     0.210 HD
ATOM     51  H   IDS d  65      19.442  32.662  41.482  0.00  0.00     0.104 H 
ATOM     52  H   IDS d  65      17.560  35.445  39.742  0.00  0.00     0.133 H 
ATOM     53  H   IDS d  65      17.745  32.742  43.254  0.00  0.00     0.092 H 
ATOM     54  H   IDS d  65      16.975  32.650  40.744  0.00  0.00     0.097 H 
ATOM     55  H   IDS d  65      16.756  35.093  42.492  0.00  0.00     0.091 H 
ATOM     56  O3S SGN d  62      22.082  41.764  47.812  0.00  0.00    -0.296 OA
ATOM     57  C1  SGN d  62      19.577  41.031  50.107  0.00  0.00     0.150 C 
ATOM     58  S2  SGN d  62      15.273  41.202  54.206  0.00  0.00     0.251 S 
ATOM     59  C5  SGN d  62      18.424  41.639  52.229  0.00  0.00     0.091 C 
ATOM     60  O5  SGN d  62      18.426  41.641  50.772  0.00  0.00    -0.349 OA
ATOM     61  O4S SGN d  62      14.336  42.276  54.184  0.00  0.00    -0.572 OA
ATOM     62  O6  SGN d  62      16.895  41.815  53.993  0.00  0.00    -0.254 OA
ATOM     63  O3  SGN d  62      22.080  42.063  52.678  0.00  0.00    -0.391 OA
ATOM     64  S1  SGN d  62      22.907  41.510  48.970  0.00  0.00     0.156 S 
ATOM     65  O6S SGN d  62      15.004  40.190  53.188  0.00  0.00    -0.572 OA
ATOM     66  O4  SGN d  62      19.630  42.343  54.179  0.00  0.00    -0.348 OA
ATOM     67  C6  SGN d  62      17.164  42.326  52.699  0.00  0.00     0.067 C 
ATOM     68  O5S SGN d  62      15.266  40.560  55.493  0.00  0.00    -0.572 OA
ATOM     69  O1S SGN d  62      23.982  40.586  48.674  0.00  0.00    -0.296 OA
ATOM     70  O2S SGN d  62      23.388  42.772  49.454  0.00  0.00    -0.296 OA
ATOM     71  C2  SGN d  62      20.851  41.608  50.709  0.00  0.00     0.081 C 
ATOM     72  C4  SGN d  62      19.679  42.357  52.755  0.00  0.00     0.095 C 
ATOM     73  N   SGN d  62      21.959  40.823  50.264  0.00  0.00    -0.210 NA
ATOM     74  C3  SGN d  62      20.863  41.524  52.238  0.00  0.00     0.083 C 
ATOM     75  H   SGN d  62      21.743  40.923  47.466  0.00  0.00     0.231 HD
ATOM     76  H   SGN d  62      19.474  41.251  49.065  0.00  0.00     0.131 H 
ATOM     77  H   SGN d  62      18.442  40.638  52.605  0.00  0.00     0.090 H 
ATOM     78  H   SGN d  62      22.813  41.524  52.342  0.00  0.00     0.210 HD
ATOM     79  H   SGN d  62      16.352  42.107  52.037  0.00  0.00     0.080 H 
ATOM     80  H   SGN d  62      17.283  43.389  52.717  0.00  0.00     0.080 H 
ATOM     81  H   SGN d  62      23.610  39.750  48.351  0.00  0.00     0.231 HD
ATOM     82  H   SGN d  62      22.636  43.356  49.638  0.00  0.00     0.231 HD
ATOM     83  H   SGN d  62      20.907  42.632  50.405  0.00  0.00     0.076 H 
ATOM     84  H   SGN d  62      19.758  43.375  52.433  0.00  0.00     0.091 H 
ATOM     85  H   SGN d  62      22.578  40.677  51.062  0.00  0.00     0.140 HD
ATOM     86  H   SGN d  62      20.771  40.519  52.595  0.00  0.00     0.089 H 
ATOM     87  O4  IDS d  63      19.639  39.604  50.235  0.00  0.00    -0.348 OA
ATOM     88  O62 IDS d  63      17.658  36.572  50.924  0.00  0.00    -0.646 OA
ATOM     89  C2  IDS d  63      21.812  37.915  48.793  0.00  0.00     0.134 C 
ATOM     90  O2S IDS d  63      24.474  37.211  50.231  0.00  0.00    -0.572 OA
ATOM     91  O61 IDS d  63      16.686  38.091  49.728  0.00  0.00    -0.646 OA
ATOM     92  C3  IDS d  63      20.842  38.899  48.128  0.00  0.00     0.094 C 
ATOM     93  C1  IDS d  63      21.155  36.512  48.902  0.00  0.00     0.161 C 
ATOM     94  O5  IDS d  63      19.987  36.634  49.754  0.00  0.00    -0.340 OA
ATOM     95  C4  IDS d  63      19.495  38.974  48.968  0.00  0.00     0.103 C 
ATOM     96  C6  IDS d  63      17.666  37.406  50.017  0.00  0.00     0.206 C 
ATOM     97  S   IDS d  63      23.278  37.446  51.029  0.00  0.00     0.252 S 
ATOM     98  O3  IDS d  63      20.593  38.356  46.850  0.00  0.00    -0.390 OA
ATOM     99  C5  IDS d  63      18.946  37.539  49.197  0.00  0.00     0.152 C 
ATOM    100  O2  IDS d  63      22.200  38.437  50.037  0.00  0.00    -0.244 OA
ATOM    101  O1S IDS d  63      23.549  38.234  52.218  0.00  0.00    -0.572 OA
ATOM    102  O3S IDS d  63      22.754  36.158  51.381  0.00  0.00    -0.572 OA
ATOM    103  H   IDS d  63      22.695  37.790  48.202  0.00  0.00     0.097 H 
ATOM    104  H   IDS d  63      21.238  39.892  48.070  0.00  0.00     0.091 H 
ATOM    105  H   IDS d  63      21.778  35.761  49.342  0.00  0.00     0.133 H 
ATOM    106  H   IDS d  63      18.819  39.571  48.391  0.00  0.00     0.092 H 
ATOM    107  H   IDS d  63      20.236  37.459  46.944  0.00  0.00     0.210 HD
ATOM    108  H   IDS d  63      18.668  37.244  48.207  0.00  0.00     0.104 H 
ATOM    109  O4  SGN d  64      20.838  36.122  47.530  0.00  0.00    -0.348 OA
ATOM    110  O6  SGN d  64      22.667  32.508  46.629  0.00  0.00    -0.254 OA
ATOM    111  C3  SGN d  64      18.770  35.141  46.668  0.00  0.00     0.083 C 
ATOM    112  S2  SGN d  64      21.986  31.589  47.997  0.00  0.00     0.251 S 
ATOM    113  C5  SGN d  64      21.007  34.191  46.103  0.00  0.00     0.091 C 
ATOM    114  O1S SGN d  64      14.977  32.738  47.220  0.00  0.00    -0.296 OA
ATOM    115  C2  SGN d  64      18.133  33.826  46.337  0.00  0.00     0.081 C 
ATOM    116  O4S SGN d  64      22.525  32.144  49.212  0.00  0.00    -0.572 OA
ATOM    117  O3S SGN d  64      15.702  34.815  48.109  0.00  0.00    -0.296 OA
ATOM    118  S1  SGN d  64      15.409  34.086  46.888  0.00  0.00     0.156 S 
ATOM    119  O6S SGN d  64      20.540  31.670  48.020  0.00  0.00    -0.572 OA
ATOM    120  O5S SGN d  64      22.377  30.211  47.861  0.00  0.00    -0.572 OA
ATOM    121  O3  SGN d  64      17.967  35.731  47.624  0.00  0.00    -0.391 OA
ATOM    122  C1  SGN d  64      18.960  33.140  45.282  0.00  0.00     0.150 C 
ATOM    123  O2S SGN d  64      14.395  34.785  46.148  0.00  0.00    -0.296 OA
ATOM    124  C4  SGN d  64      20.196  34.876  47.218  0.00  0.00     0.095 C 
ATOM    125  O5  SGN d  64      20.303  32.957  45.779  0.00  0.00    -0.349 OA
ATOM    126  C6  SGN d  64      22.414  33.905  46.584  0.00  0.00     0.067 C 
ATOM    127  N   SGN d  64      16.812  34.054  45.806  0.00  0.00    -0.210 NA
ATOM    128  H   SGN d  64      18.860  35.781  45.815  0.00  0.00     0.089 H 
ATOM    129  H   SGN d  64      21.093  34.816  45.238  0.00  0.00     0.090 H 
ATOM    130  H   SGN d  64      15.676  32.288  47.719  0.00  0.00     0.231 HD
ATOM    131  H   SGN d  64      18.072  33.224  47.219  0.00  0.00     0.076 H 
ATOM    132  H   SGN d  64      16.386  34.344  48.611  0.00  0.00     0.231 HD
ATOM    133  H   SGN d  64      17.891  35.142  48.392  0.00  0.00     0.210 HD
ATOM    134  H   SGN d  64      18.568  32.177  45.031  0.00  0.00     0.131 H 
ATOM    135  H   SGN d  64      13.588  34.843  46.682  0.00  0.00     0.231 HD
ATOM    136  H   SGN d  64      20.139  34.270  48.098  0.00  0.00     0.091 H 
ATOM    137  H   SGN d  64      23.111  34.364  45.915  0.00  0.00     0.080 H 
ATOM    138  H   SGN d  64      22.521  34.301  47.572  0.00  0.00     0.080 H 
ATOM    139  H   SGN d  64      16.639  33.316  45.123  0.00  0.00     0.140 HD
ATOM    140  C1  IDS d  61      19.843  43.633  54.789  0.00  0.00     0.167 C 
ATOM    141  O5  IDS d  61      21.199  44.072  54.517  0.00  0.00    -0.311 OA
ATOM    142  C5  IDS d  61      22.263  43.516  55.215  0.00  0.00     0.147 C 
ATOM    143  C6  IDS d  61      23.714  43.952  54.774  0.00  0.00     0.233 C 
ATOM    144  C2  IDS d  61      19.684  43.472  56.297  0.00  0.00     0.135 C 
ATOM    145  O1S IDS d  61      20.807  46.399  55.184  0.00  0.00    -0.572 OA
ATOM    146  O3S IDS d  61      18.413  46.341  55.458  0.00  0.00    -0.572 OA
ATOM    147  O3  IDS d  61      20.241  41.268  56.773  0.00  0.00    -0.389 OA
ATOM    148  C4  IDS d  61      22.080  42.724  56.308  0.00  0.00    -0.034 C 
ATOM    149  C3  IDS d  61      20.732  42.552  56.924  0.00  0.00     0.086 C 
ATOM    150  O61 IDS d  61      24.694  43.534  55.390  0.00  0.00    -0.642 OA
ATOM    151  O62 IDS d  61      23.864  44.751  53.817  0.00  0.00    -0.642 OA
ATOM    152  O2S IDS d  61      19.888  47.372  57.036  0.00  0.00    -0.572 OA
ATOM    153  S   IDS d  61      19.712  46.303  56.113  0.00  0.00     0.252 S 
ATOM    154  O2  IDS d  61      19.838  44.738  56.960  0.00  0.00    -0.244 OA
ATOM    155  H   IDS d  61      19.145  44.345  54.400  0.00  0.00     0.134 H 
ATOM    156  H   IDS d  61      18.708  43.052  56.425  0.00  0.00     0.097 H 
ATOM    157  H   IDS d  61      19.366  41.205  57.188  0.00  0.00     0.210 HD
ATOM    158  H   IDS d  61      22.889  42.232  56.719  0.00  0.00     0.085 H 
ATOM    159  H   IDS d  61      20.884  42.787  57.956  0.00  0.00     0.093 H 
ENDROOT
TORSDOF 50
ENDMDL
MODEL 56
REMARK VINA RESULT:      -5.2      3.162      6.289
REMARK  0 active torsions:
REMARK  status: ('A' for Active; 'I' for Inactive)
REMARK       I    between atoms: O3S_3  and  S1_55 
REMARK       I    between atoms: O3_4  and  C3_87 
REMARK       I    between atoms: O4_5  and  C1_15 
REMARK       I    between atoms: O4_5  and  C4_57 
REMARK       I    between atoms: O4_7  and  C1_36 
REMARK       I    between atoms: O4_7  and  C4_89 
REMARK       I    between atoms: C4_8  and  O4_18 
REMARK       I    between atoms: C2_9  and  O2_84 
REMARK       I    between atoms: C6_10  and  C5_32 
REMARK       I    between atoms: C6_10  and  O6_102 
REMARK       I    between atoms: O6_11  and  C6_93 
REMARK       I    between atoms: O6_11  and  S2_25 
REMARK       I    between atoms: C1_13  and  O4_74 
REMARK       I    between atoms: C3_14  and  O3_71 
REMARK       I    between atoms: O4_18  and  C1_54 
REMARK       I    between atoms: S2_19  and  O6_39 
REMARK       I    between atoms: O2S_21  and  S1_45 
REMARK       I    between atoms: C5_22  and  C6_23 
REMARK       I    between atoms: C5_24  and  C6_77 
REMARK       I    between atoms: O1_27  and  C1_48 
REMARK       I    between atoms: C5_28  and  C6_30 
REMARK       I    between atoms: C5_29  and  C6_93 
REMARK       I    between atoms: O1S_31  and  S1_44 
REMARK       I    between atoms: C3_33  and  O3_69 
REMARK       I    between atoms: C2_37  and  N_99 
REMARK       I    between atoms: S2_38  and  O6_102 
REMARK       I    between atoms: O6_39  and  C6_77 
REMARK       I    between atoms: C2_40  and  O2_103 
REMARK       I    between atoms: O3S_42  and  S1_44 
REMARK       I    between atoms: S1_44  and  N_99 
REMARK       I    between atoms: S1_44  and  O2S_81 
REMARK       I    between atoms: S1_45  and  N_94 
REMARK       I    between atoms: S1_45  and  O1S_46 
REMARK       I    between atoms: S1_45  and  O3S_58 
REMARK       I    between atoms: O3_52  and  C3_105 
REMARK       I    between atoms: S1_55  and  N_100 
REMARK       I    between atoms: S1_55  and  O1S_79 
REMARK       I    between atoms: S1_55  and  O2S_83 
REMARK       I    between atoms: O3_56  and  C3_64 
REMARK       I    between atoms: C4_60  and  O4_61 
REMARK       I    between atoms: O4_61  and  C1_73 
REMARK       I    between atoms: C6_63  and  C5_80 
REMARK       I    between atoms: C3_65  and  O3_82 
REMARK       I    between atoms: S_67  and  O2_84 
REMARK       I    between atoms: C2_68  and  O2_98 
REMARK       I    between atoms: O4_74  and  C4_97 
REMARK       I    between atoms: C2_85  and  N_94 
REMARK       I    between atoms: C2_95  and  N_100 
REMARK       I    between atoms: O2_98  and  S_104 
REMARK       I    between atoms: S_101  and  O2_103 
ROOT
ATOM      1  O6S SGN d  66      12.051  42.377  54.613  0.00  0.00    -0.572 OA
ATOM      2  C4  SGN d  66      14.202  38.109  54.383  0.00  0.00     0.095 C 
ATOM      3  C6  SGN d  66      15.121  40.097  55.639  0.00  0.00     0.067 C 
ATOM      4  O4  SGN d  66      14.924  38.558  53.141  0.00  0.00    -0.348 OA
ATOM      5  O5S SGN d  66      14.344  42.874  54.226  0.00  0.00    -0.572 OA
ATOM      6  O2S SGN d  66      11.943  34.348  58.019  0.00  0.00    -0.296 OA
ATOM      7  O5  SGN d  66      14.272  38.098  56.838  0.00  0.00    -0.350 OA
ATOM      8  O1  SGN d  66      15.353  35.948  56.841  0.00  0.00    -0.369 OA
ATOM      9  C5  SGN d  66      14.971  38.565  55.633  0.00  0.00     0.091 C 
ATOM     10  S2  SGN d  66      13.350  41.808  54.316  0.00  0.00     0.251 S 
ATOM     11  S1  SGN d  66      12.986  33.786  57.183  0.00  0.00     0.156 S 
ATOM     12  O1S SGN d  66      12.686  32.412  56.807  0.00  0.00    -0.296 OA
ATOM     13  C1  SGN d  66      14.093  36.645  56.912  0.00  0.00     0.147 C 
ATOM     14  O3S SGN d  66      14.265  33.780  57.876  0.00  0.00    -0.296 OA
ATOM     15  C3  SGN d  66      13.969  36.589  54.398  0.00  0.00     0.083 C 
ATOM     16  O3  SGN d  66      13.115  36.232  53.312  0.00  0.00    -0.391 OA
ATOM     17  C2  SGN d  66      13.250  36.211  55.695  0.00  0.00     0.081 C 
ATOM     18  O4S SGN d  66      13.269  41.061  53.069  0.00  0.00    -0.572 OA
ATOM     19  N   SGN d  66      13.031  34.758  55.688  0.00  0.00    -0.210 NA
ATOM     20  O6  SGN d  66      13.824  40.738  55.658  0.00  0.00    -0.254 OA
ATOM     21  H   SGN d  66      13.236  38.568  54.384  0.00  0.00     0.091 H 
ATOM     22  H   SGN d  66      15.650  40.401  54.760  0.00  0.00     0.080 H 
ATOM     23  H   SGN d  66      15.661  40.387  56.516  0.00  0.00     0.080 H 
ATOM     24  H   SGN d  66      11.102  34.342  57.536  0.00  0.00     0.231 HD
ATOM     25  H   SGN d  66      15.905  36.202  57.596  0.00  0.00     0.212 HD
ATOM     26  H   SGN d  66      15.952  38.138  55.622  0.00  0.00     0.090 H 
ATOM     27  H   SGN d  66      11.835  32.383  56.342  0.00  0.00     0.231 HD
ATOM     28  H   SGN d  66      13.623  36.408  57.843  0.00  0.00     0.131 H 
ATOM     29  H   SGN d  66      14.495  34.684  58.140  0.00  0.00     0.231 HD
ATOM     30  H   SGN d  66      14.910  36.086  54.319  0.00  0.00     0.089 H 
ATOM     31  H   SGN d  66      12.269  36.697  53.400  0.00  0.00     0.210 HD
ATOM     32  H   SGN d  66      12.307  36.713  55.765  0.00  0.00     0.076 H 
ATOM     33  H   SGN d  66      12.133  34.610  55.227  0.00  0.00     0.140 HD
ATOM     34  O61 IDS d  65      16.127  34.185  51.249  0.00  0.00    -0.646 OA
ATOM     35  O3  IDS d  65      18.578  38.870  51.034  0.00  0.00    -0.390 OA
ATOM     36  C5  IDS d  65      15.756  36.513  51.643  0.00  0.00     0.152 C 
ATOM     37  C6  IDS d  65      15.287  35.115  51.160  0.00  0.00     0.206 C 
ATOM     38  O5  IDS d  65      14.680  37.465  51.376  0.00  0.00    -0.340 OA
ATOM     39  C1  IDS d  65      14.933  38.845  51.751  0.00  0.00     0.161 C 
ATOM     40  O1S IDS d  65      19.075  41.684  51.761  0.00  0.00    -0.572 OA
ATOM     41  C4  IDS d  65      17.119  36.985  51.025  0.00  0.00     0.103 C 
ATOM     42  O4  IDS d  65      17.421  35.916  50.125  0.00  0.00    -0.348 OA
ATOM     43  C2  IDS d  65      16.438  39.202  51.936  0.00  0.00     0.134 C 
ATOM     44  O62 IDS d  65      14.102  34.971  50.732  0.00  0.00    -0.646 OA
ATOM     45  C3  IDS d  65      17.240  38.519  50.875  0.00  0.00     0.094 C 
ATOM     46  O2S IDS d  65      18.471  40.246  53.565  0.00  0.00    -0.572 OA
ATOM     47  O3S IDS d  65      17.559  42.436  53.464  0.00  0.00    -0.572 OA
ATOM     48  O2  IDS d  65      16.642  40.595  51.757  0.00  0.00    -0.244 OA
ATOM     49  S   IDS d  65      18.004  41.291  52.675  0.00  0.00     0.252 S 
ATOM     50  H   IDS d  65      19.111  38.433  50.352  0.00  0.00     0.210 HD
ATOM     51  H   IDS d  65      15.957  36.453  52.691  0.00  0.00     0.104 H 
ATOM     52  H   IDS d  65      14.362  39.514  51.141  0.00  0.00     0.133 H 
ATOM     53  H   IDS d  65      18.043  37.075  51.556  0.00  0.00     0.092 H 
ATOM     54  H   IDS d  65      16.732  38.899  52.919  0.00  0.00     0.097 H 
ATOM     55  H   IDS d  65      16.878  38.814  49.912  0.00  0.00     0.091 H 
ATOM     56  O3S SGN d  62      14.573  33.285  41.832  0.00  0.00    -0.296 OA
ATOM     57  C1  SGN d  62      17.843  34.159  41.046  0.00  0.00     0.150 C 
ATOM     58  S2  SGN d  62      22.873  35.916  38.405  0.00  0.00     0.251 S 
ATOM     59  C5  SGN d  62      19.632  34.273  39.318  0.00  0.00     0.091 C 
ATOM     60  O5  SGN d  62      18.611  34.963  40.094  0.00  0.00    -0.349 OA
ATOM     61  O4S SGN d  62      22.821  36.968  37.445  0.00  0.00    -0.572 OA
ATOM     62  O6  SGN d  62      21.579  34.778  38.118  0.00  0.00    -0.254 OA
ATOM     63  O3  SGN d  62      17.835  31.048  38.982  0.00  0.00    -0.391 OA
ATOM     64  S1  SGN d  62      15.077  31.976  41.487  0.00  0.00     0.156 S 
ATOM     65  O6S SGN d  62      22.793  36.397  39.782  0.00  0.00    -0.572 OA
ATOM     66  O4  SGN d  62      20.026  32.483  37.770  0.00  0.00    -0.348 OA
ATOM     67  C6  SGN d  62      20.284  35.278  38.398  0.00  0.00     0.067 C 
ATOM     68  O5S SGN d  62      24.090  35.165  38.258  0.00  0.00    -0.572 OA
ATOM     69  O1S SGN d  62      14.761  30.991  42.500  0.00  0.00    -0.296 OA
ATOM     70  O2S SGN d  62      14.549  31.625  40.200  0.00  0.00    -0.296 OA
ATOM     71  C2  SGN d  62      17.319  32.922  40.329  0.00  0.00     0.081 C 
ATOM     72  C4  SGN d  62      18.997  33.120  38.522  0.00  0.00     0.095 C 
ATOM     73  N   SGN d  62      16.813  32.012  41.307  0.00  0.00    -0.210 NA
ATOM     74  C3  SGN d  62      18.424  32.168  39.584  0.00  0.00     0.083 C 
ATOM     75  H   SGN d  62      14.917  33.545  42.701  0.00  0.00     0.231 HD
ATOM     76  H   SGN d  62      17.059  34.791  41.409  0.00  0.00     0.131 H 
ATOM     77  H   SGN d  62      20.375  33.851  39.962  0.00  0.00     0.090 H 
ATOM     78  H   SGN d  62      17.480  30.461  39.668  0.00  0.00     0.210 HD
ATOM     79  H   SGN d  62      20.350  36.232  38.878  0.00  0.00     0.080 H 
ATOM     80  H   SGN d  62      19.715  35.411  37.501  0.00  0.00     0.080 H 
ATOM     81  H   SGN d  62      15.136  31.270  43.350  0.00  0.00     0.231 HD
ATOM     82  H   SGN d  62      14.785  32.311  39.555  0.00  0.00     0.231 HD
ATOM     83  H   SGN d  62      16.577  33.253  39.633  0.00  0.00     0.076 H 
ATOM     84  H   SGN d  62      18.233  33.437  37.842  0.00  0.00     0.091 H 
ATOM     85  H   SGN d  62      17.120  31.073  41.049  0.00  0.00     0.140 HD
ATOM     86  H   SGN d  62      19.212  31.848  40.234  0.00  0.00     0.089 H 
ATOM     87  O4  IDS d  63      18.596  33.720  42.184  0.00  0.00    -0.348 OA
ATOM     88  O62 IDS d  63      21.590  34.387  44.229  0.00  0.00    -0.646 OA
ATOM     89  C2  IDS d  63      17.278  32.170  44.532  0.00  0.00     0.134 C 
ATOM     90  O2S IDS d  63      17.241  29.065  44.548  0.00  0.00    -0.572 OA
ATOM     91  O61 IDS d  63      20.518  36.128  43.518  0.00  0.00    -0.646 OA
ATOM     92  C3  IDS d  63      16.838  33.536  43.989  0.00  0.00     0.094 C 
ATOM     93  C1  IDS d  63      18.382  32.357  45.609  0.00  0.00     0.161 C 
ATOM     94  O5  IDS d  63      19.527  32.975  44.968  0.00  0.00    -0.340 OA
ATOM     95  C4  IDS d  63      18.092  34.300  43.381  0.00  0.00     0.103 C 
ATOM     96  C6  IDS d  63      20.544  35.001  44.010  0.00  0.00     0.206 C 
ATOM     97  S   IDS d  63      18.309  29.757  43.838  0.00  0.00     0.252 S 
ATOM     98  O3  IDS d  63      16.338  34.229  45.111  0.00  0.00    -0.390 OA
ATOM     99  C5  IDS d  63      19.238  34.331  44.428  0.00  0.00     0.152 C 
ATOM    100  O2  IDS d  63      17.692  31.370  43.456  0.00  0.00    -0.244 OA
ATOM    101  O1S IDS d  63      18.616  29.143  42.559  0.00  0.00    -0.572 OA
ATOM    102  O3S IDS d  63      19.457  29.742  44.698  0.00  0.00    -0.572 OA
ATOM    103  H   IDS d  63      16.465  31.671  45.016  0.00  0.00     0.097 H 
ATOM    104  H   IDS d  63      16.107  33.453  43.211  0.00  0.00     0.091 H 
ATOM    105  H   IDS d  63      18.731  31.448  46.051  0.00  0.00     0.133 H 
ATOM    106  H   IDS d  63      17.749  35.284  43.137  0.00  0.00     0.092 H 
ATOM    107  H   IDS d  63      17.027  34.284  45.791  0.00  0.00     0.210 HD
ATOM    108  H   IDS d  63      18.834  34.970  45.185  0.00  0.00     0.104 H 
ATOM    109  O4  SGN d  64      17.777  33.188  46.647  0.00  0.00    -0.348 OA
ATOM    110  O6  SGN d  64      17.956  31.236  50.304  0.00  0.00    -0.254 OA
ATOM    111  C3  SGN d  64      18.729  35.132  47.787  0.00  0.00     0.083 C 
ATOM    112  S2  SGN d  64      19.717  30.956  50.300  0.00  0.00     0.251 S 
ATOM    113  C5  SGN d  64      17.631  33.281  49.048  0.00  0.00     0.091 C 
ATOM    114  O1S SGN d  64      22.265  37.548  49.244  0.00  0.00    -0.296 OA
ATOM    115  C2  SGN d  64      19.471  35.531  49.025  0.00  0.00     0.081 C 
ATOM    116  O4S SGN d  64      20.016  30.049  49.222  0.00  0.00    -0.572 OA
ATOM    117  O3S SGN d  64      21.497  36.984  47.072  0.00  0.00    -0.296 OA
ATOM    118  S1  SGN d  64      21.149  37.645  48.317  0.00  0.00     0.156 S 
ATOM    119  O6S SGN d  64      20.447  32.194  50.115  0.00  0.00    -0.572 OA
ATOM    120  O5S SGN d  64      20.090  30.374  51.561  0.00  0.00    -0.572 OA
ATOM    121  O3  SGN d  64      19.530  35.497  46.721  0.00  0.00    -0.391 OA
ATOM    122  C1  SGN d  64      18.636  35.171  50.226  0.00  0.00     0.150 C 
ATOM    123  O2S SGN d  64      20.819  39.018  48.051  0.00  0.00    -0.296 OA
ATOM    124  C4  SGN d  64      18.500  33.599  47.818  0.00  0.00     0.095 C 
ATOM    125  O5  SGN d  64      18.373  33.752  50.210  0.00  0.00    -0.349 OA
ATOM    126  C6  SGN d  64      17.374  31.791  49.133  0.00  0.00     0.067 C 
ATOM    127  N   SGN d  64      19.677  36.958  49.022  0.00  0.00    -0.210 NA
ATOM    128  H   SGN d  64      17.773  35.606  47.709  0.00  0.00     0.089 H 
ATOM    129  H   SGN d  64      16.676  33.761  48.990  0.00  0.00     0.090 H 
ATOM    130  H   SGN d  64      22.470  36.614  49.408  0.00  0.00     0.231 HD
ATOM    131  H   SGN d  64      20.414  35.027  49.057  0.00  0.00     0.076 H 
ATOM    132  H   SGN d  64      21.721  36.057  47.250  0.00  0.00     0.231 HD
ATOM    133  H   SGN d  64      20.394  35.063  46.802  0.00  0.00     0.210 HD
ATOM    134  H   SGN d  64      19.134  35.404  51.143  0.00  0.00     0.131 H 
ATOM    135  H   SGN d  64      21.585  39.465  47.659  0.00  0.00     0.231 HD
ATOM    136  H   SGN d  64      19.442  33.091  47.854  0.00  0.00     0.091 H 
ATOM    137  H   SGN d  64      16.318  31.620  49.153  0.00  0.00     0.080 H 
ATOM    138  H   SGN d  64      17.817  31.322  48.280  0.00  0.00     0.080 H 
ATOM    139  H   SGN d  64      19.648  37.261  49.996  0.00  0.00     0.140 HD
ATOM    140  C1  IDS d  61      19.713  32.308  36.373  0.00  0.00     0.167 C 
ATOM    141  O5  IDS d  61      18.601  31.383  36.245  0.00  0.00    -0.311 OA
ATOM    142  C5  IDS d  61      18.807  30.021  36.417  0.00  0.00     0.147 C 
ATOM    143  C6  IDS d  61      17.529  29.096  36.389  0.00  0.00     0.233 C 
ATOM    144  C2  IDS d  61      20.930  31.691  35.692  0.00  0.00     0.135 C 
ATOM    145  O1S IDS d  61      18.137  31.932  33.900  0.00  0.00    -0.572 OA
ATOM    146  O3S IDS d  61      19.606  33.824  33.632  0.00  0.00    -0.572 OA
ATOM    147  O3  IDS d  61      22.049  30.489  37.335  0.00  0.00    -0.389 OA
ATOM    148  C4  IDS d  61      20.055  29.478  36.487  0.00  0.00    -0.034 C 
ATOM    149  C3  IDS d  61      21.271  30.293  36.207  0.00  0.00     0.086 C 
ATOM    150  O61 IDS d  61      17.654  27.874  36.482  0.00  0.00    -0.642 OA
ATOM    151  O62 IDS d  61      16.391  29.604  36.237  0.00  0.00    -0.642 OA
ATOM    152  O2S IDS d  61      19.438  32.058  32.026  0.00  0.00    -0.572 OA
ATOM    153  S   IDS d  61      19.405  32.401  33.407  0.00  0.00     0.252 S 
ATOM    154  O2  IDS d  61      20.696  31.535  34.282  0.00  0.00    -0.244 OA
ATOM    155  H   IDS d  61      19.457  33.248  35.930  0.00  0.00     0.134 H 
ATOM    156  H   IDS d  61      21.733  32.365  35.907  0.00  0.00     0.097 H 
ATOM    157  H   IDS d  61      22.826  31.022  37.103  0.00  0.00     0.210 HD
ATOM    158  H   IDS d  61      20.160  28.483  36.740  0.00  0.00     0.085 H 
ATOM    159  H   IDS d  61      21.800  29.728  35.469  0.00  0.00     0.093 H 
ENDROOT
TORSDOF 50
ENDMDL
MODEL 57
REMARK VINA RESULT:      -5.2      3.005      5.935
REMARK  0 active torsions:
REMARK  status: ('A' for Active; 'I' for Inactive)
REMARK       I    between atoms: O3S_3  and  S1_55 
REMARK       I    between atoms: O3_4  and  C3_87 
REMARK       I    between atoms: O4_5  and  C1_15 
REMARK       I    between atoms: O4_5  and  C4_57 
REMARK       I    between atoms: O4_7  and  C1_36 
REMARK       I    between atoms: O4_7  and  C4_89 
REMARK       I    between atoms: C4_8  and  O4_18 
REMARK       I    between atoms: C2_9  and  O2_84 
REMARK       I    between atoms: C6_10  and  C5_32 
REMARK       I    between atoms: C6_10  and  O6_102 
REMARK       I    between atoms: O6_11  and  C6_93 
REMARK       I    between atoms: O6_11  and  S2_25 
REMARK       I    between atoms: C1_13  and  O4_74 
REMARK       I    between atoms: C3_14  and  O3_71 
REMARK       I    between atoms: O4_18  and  C1_54 
REMARK       I    between atoms: S2_19  and  O6_39 
REMARK       I    between atoms: O2S_21  and  S1_45 
REMARK       I    between atoms: C5_22  and  C6_23 
REMARK       I    between atoms: C5_24  and  C6_77 
REMARK       I    between atoms: O1_27  and  C1_48 
REMARK       I    between atoms: C5_28  and  C6_30 
REMARK       I    between atoms: C5_29  and  C6_93 
REMARK       I    between atoms: O1S_31  and  S1_44 
REMARK       I    between atoms: C3_33  and  O3_69 
REMARK       I    between atoms: C2_37  and  N_99 
REMARK       I    between atoms: S2_38  and  O6_102 
REMARK       I    between atoms: O6_39  and  C6_77 
REMARK       I    between atoms: C2_40  and  O2_103 
REMARK       I    between atoms: O3S_42  and  S1_44 
REMARK       I    between atoms: S1_44  and  N_99 
REMARK       I    between atoms: S1_44  and  O2S_81 
REMARK       I    between atoms: S1_45  and  N_94 
REMARK       I    between atoms: S1_45  and  O1S_46 
REMARK       I    between atoms: S1_45  and  O3S_58 
REMARK       I    between atoms: O3_52  and  C3_105 
REMARK       I    between atoms: S1_55  and  N_100 
REMARK       I    between atoms: S1_55  and  O1S_79 
REMARK       I    between atoms: S1_55  and  O2S_83 
REMARK       I    between atoms: O3_56  and  C3_64 
REMARK       I    between atoms: C4_60  and  O4_61 
REMARK       I    between atoms: O4_61  and  C1_73 
REMARK       I    between atoms: C6_63  and  C5_80 
REMARK       I    between atoms: C3_65  and  O3_82 
REMARK       I    between atoms: S_67  and  O2_84 
REMARK       I    between atoms: C2_68  and  O2_98 
REMARK       I    between atoms: O4_74  and  C4_97 
REMARK       I    between atoms: C2_85  and  N_94 
REMARK       I    between atoms: C2_95  and  N_100 
REMARK       I    between atoms: O2_98  and  S_104 
REMARK       I    between atoms: S_101  and  O2_103 
ROOT
ATOM      1  O6S SGN d  66      14.227  43.057  54.292  0.00  0.00    -0.572 OA
ATOM      2  C4  SGN d  66      15.906  38.720  53.166  0.00  0.00     0.095 C 
ATOM      3  C6  SGN d  66      17.122  40.378  54.630  0.00  0.00     0.067 C 
ATOM      4  O4  SGN d  66      16.565  39.309  51.948  0.00  0.00    -0.348 OA
ATOM      5  O5S SGN d  66      16.519  43.412  53.766  0.00  0.00    -0.572 OA
ATOM      6  O2S SGN d  66      13.581  34.606  56.351  0.00  0.00    -0.296 OA
ATOM      7  O5  SGN d  66      16.175  38.286  55.568  0.00  0.00    -0.350 OA
ATOM      8  O1  SGN d  66      17.028  36.081  55.118  0.00  0.00    -0.369 OA
ATOM      9  C5  SGN d  66      16.817  38.888  54.392  0.00  0.00     0.091 C 
ATOM     10  S2  SGN d  66      15.433  42.436  53.781  0.00  0.00     0.251 S 
ATOM     11  S1  SGN d  66      14.489  34.106  55.337  0.00  0.00     0.156 S 
ATOM     12  O1S SGN d  66      14.021  32.848  54.776  0.00  0.00    -0.296 OA
ATOM     13  C1  SGN d  66      15.856  36.862  55.424  0.00  0.00     0.147 C 
ATOM     14  O3S SGN d  66      15.814  33.871  55.891  0.00  0.00    -0.296 OA
ATOM     15  C3  SGN d  66      15.521  37.245  52.958  0.00  0.00     0.083 C 
ATOM     16  O3  SGN d  66      14.549  37.153  51.918  0.00  0.00    -0.391 OA
ATOM     17  C2  SGN d  66      14.876  36.716  54.242  0.00  0.00     0.081 C 
ATOM     18  O4S SGN d  66      15.174  41.922  52.443  0.00  0.00    -0.572 OA
ATOM     19  N   SGN d  66      14.510  35.310  54.022  0.00  0.00    -0.210 NA
ATOM     20  O6  SGN d  66      15.904  41.117  54.879  0.00  0.00    -0.254 OA
ATOM     21  H   SGN d  66      14.994  39.254  53.335  0.00  0.00     0.091 H 
ATOM     22  H   SGN d  66      17.605  40.780  53.764  0.00  0.00     0.080 H 
ATOM     23  H   SGN d  66      17.759  40.466  55.485  0.00  0.00     0.080 H 
ATOM     24  H   SGN d  66      12.708  34.755  55.958  0.00  0.00     0.231 HD
ATOM     25  H   SGN d  66      17.664  36.153  55.847  0.00  0.00     0.212 HD
ATOM     26  H   SGN d  66      17.745  38.386  54.216  0.00  0.00     0.090 H 
ATOM     27  H   SGN d  66      13.136  32.972  54.398  0.00  0.00     0.231 HD
ATOM     28  H   SGN d  66      15.442  36.512  56.346  0.00  0.00     0.131 H 
ATOM     29  H   SGN d  66      16.155  34.694  56.274  0.00  0.00     0.231 HD
ATOM     30  H   SGN d  66      16.395  36.683  52.707  0.00  0.00     0.089 H 
ATOM     31  H   SGN d  66      13.765  37.669  52.162  0.00  0.00     0.210 HD
ATOM     32  H   SGN d  66      13.998  37.279  54.483  0.00  0.00     0.076 H 
ATOM     33  H   SGN d  66      13.567  35.321  53.633  0.00  0.00     0.140 HD
ATOM     34  O61 IDS d  65      17.156  35.234  49.266  0.00  0.00    -0.646 OA
ATOM     35  O3  IDS d  65      20.046  39.656  49.571  0.00  0.00    -0.390 OA
ATOM     36  C5  IDS d  65      17.058  37.484  50.065  0.00  0.00     0.152 C 
ATOM     37  C6  IDS d  65      16.411  36.234  49.412  0.00  0.00     0.206 C 
ATOM     38  O5  IDS d  65      16.067  38.557  50.063  0.00  0.00    -0.340 OA
ATOM     39  C1  IDS d  65      16.488  39.826  50.628  0.00  0.00     0.161 C 
ATOM     40  O1S IDS d  65      20.886  42.251  50.691  0.00  0.00    -0.572 OA
ATOM     41  C4  IDS d  65      18.407  37.934  49.401  0.00  0.00     0.103 C 
ATOM     42  O4  IDS d  65      18.523  37.011  48.315  0.00  0.00    -0.348 OA
ATOM     43  C2  IDS d  65      18.033  40.015  50.720  0.00  0.00     0.134 C 
ATOM     44  O62 IDS d  65      15.187  36.268  49.084  0.00  0.00    -0.646 OA
ATOM     45  C3  IDS d  65      18.670  39.454  49.489  0.00  0.00     0.094 C 
ATOM     46  O2S IDS d  65      20.288  40.586  52.290  0.00  0.00    -0.572 OA
ATOM     47  O3S IDS d  65      19.600  42.831  52.633  0.00  0.00    -0.572 OA
ATOM     48  O2  IDS d  65      18.362  41.395  50.749  0.00  0.00    -0.244 OA
ATOM     49  S   IDS d  65      19.859  41.803  51.630  0.00  0.00     0.252 S 
ATOM     50  H   IDS d  65      20.474  39.297  48.778  0.00  0.00     0.210 HD
ATOM     51  H   IDS d  65      17.337  37.229  51.065  0.00  0.00     0.104 H 
ATOM     52  H   IDS d  65      15.941  40.636  50.193  0.00  0.00     0.133 H 
ATOM     53  H   IDS d  65      19.376  37.851  49.847  0.00  0.00     0.092 H 
ATOM     54  H   IDS d  65      18.374  39.524  51.607  0.00  0.00     0.097 H 
ATOM     55  H   IDS d  65      18.263  39.939  48.627  0.00  0.00     0.091 H 
ATOM     56  O3S SGN d  62      14.749  36.085  40.026  0.00  0.00    -0.296 OA
ATOM     57  C1  SGN d  62      18.016  36.793  39.074  0.00  0.00     0.150 C 
ATOM     58  S2  SGN d  62      22.965  38.530  36.271  0.00  0.00     0.251 S 
ATOM     59  C5  SGN d  62      19.660  37.043  37.220  0.00  0.00     0.091 C 
ATOM     60  O5  SGN d  62      18.781  37.677  38.194  0.00  0.00    -0.349 OA
ATOM     61  O4S SGN d  62      22.942  39.730  35.503  0.00  0.00    -0.572 OA
ATOM     62  O6  SGN d  62      21.542  37.573  35.933  0.00  0.00    -0.254 OA
ATOM     63  O3  SGN d  62      17.521  34.090  36.547  0.00  0.00    -0.391 OA
ATOM     64  S1  SGN d  62      15.087  34.815  39.426  0.00  0.00     0.156 S 
ATOM     65  O6S SGN d  62      23.048  38.774  37.709  0.00  0.00    -0.572 OA
ATOM     66  O4  SGN d  62      19.740  35.515  35.373  0.00  0.00    -0.348 OA
ATOM     67  C6  SGN d  62      20.332  38.130  36.415  0.00  0.00     0.067 C 
ATOM     68  O5S SGN d  62      24.083  37.712  35.887  0.00  0.00    -0.572 OA
ATOM     69  O1S SGN d  62      14.757  33.704  40.293  0.00  0.00    -0.296 OA
ATOM     70  O2S SGN d  62      14.423  34.736  38.157  0.00  0.00    -0.296 OA
ATOM     71  C2  SGN d  62      17.311  35.746  38.223  0.00  0.00     0.081 C 
ATOM     72  C4  SGN d  62      18.846  36.102  36.315  0.00  0.00     0.095 C 
ATOM     73  N   SGN d  62      16.797  34.730  39.085  0.00  0.00    -0.210 NA
ATOM     74  C3  SGN d  62      18.269  35.037  37.261  0.00  0.00     0.083 C 
ATOM     75  H   SGN d  62      15.189  36.163  40.887  0.00  0.00     0.231 HD
ATOM     76  H   SGN d  62      17.333  37.420  39.609  0.00  0.00     0.131 H 
ATOM     77  H   SGN d  62      20.406  36.455  37.712  0.00  0.00     0.090 H 
ATOM     78  H   SGN d  62      17.166  33.428  37.160  0.00  0.00     0.210 HD
ATOM     79  H   SGN d  62      20.535  38.979  37.034  0.00  0.00     0.080 H 
ATOM     80  H   SGN d  62      19.708  38.462  35.612  0.00  0.00     0.080 H 
ATOM     81  H   SGN d  62      15.227  33.800  41.136  0.00  0.00     0.231 HD
ATOM     82  H   SGN d  62      14.674  35.498  37.612  0.00  0.00     0.231 HD
ATOM     83  H   SGN d  62      16.553  36.254  37.665  0.00  0.00     0.076 H 
ATOM     84  H   SGN d  62      18.066  36.595  35.773  0.00  0.00     0.091 H 
ATOM     85  H   SGN d  62      16.985  33.827  38.650  0.00  0.00     0.140 HD
ATOM     86  H   SGN d  62      19.071  34.544  37.770  0.00  0.00     0.089 H 
ATOM     87  O4  IDS d  63      18.811  36.104  40.047  0.00  0.00    -0.348 OA
ATOM     88  O62 IDS d  63      22.016  36.150  41.869  0.00  0.00    -0.646 OA
ATOM     89  C2  IDS d  63      17.540  34.297  42.232  0.00  0.00     0.134 C 
ATOM     90  O2S IDS d  63      17.187  31.250  41.750  0.00  0.00    -0.572 OA
ATOM     91  O61 IDS d  63      21.072  38.073  41.557  0.00  0.00    -0.646 OA
ATOM     92  C3  IDS d  63      17.198  35.768  41.962  0.00  0.00     0.094 C 
ATOM     93  C1  IDS d  63      18.742  34.202  43.212  0.00  0.00     0.161 C 
ATOM     94  O5  IDS d  63      19.887  34.818  42.569  0.00  0.00    -0.340 OA
ATOM     95  C4  IDS d  63      18.469  36.513  41.366  0.00  0.00     0.103 C 
ATOM     96  C6  IDS d  63      21.024  36.881  41.857  0.00  0.00     0.206 C 
ATOM     97  S   IDS d  63      18.259  31.957  41.061  0.00  0.00     0.252 S 
ATOM     98  O3  IDS d  63      16.865  36.301  43.225  0.00  0.00    -0.390 OA
ATOM     99  C5  IDS d  63      19.694  36.266  42.287  0.00  0.00     0.152 C 
ATOM    100  O2  IDS d  63      17.780  33.659  41.006  0.00  0.00    -0.244 OA
ATOM    101  O1S IDS d  63      18.395  31.545  39.675  0.00  0.00    -0.572 OA
ATOM    102  O3S IDS d  63      19.466  31.697  41.790  0.00  0.00    -0.572 OA
ATOM    103  H   IDS d  63      16.722  33.796  42.707  0.00  0.00     0.097 H 
ATOM    104  H   IDS d  63      16.401  35.883  41.257  0.00  0.00     0.091 H 
ATOM    105  H   IDS d  63      19.032  33.203  43.465  0.00  0.00     0.133 H 
ATOM    106  H   IDS d  63      18.209  37.550  41.319  0.00  0.00     0.092 H 
ATOM    107  H   IDS d  63      17.610  36.180  43.834  0.00  0.00     0.210 HD
ATOM    108  H   IDS d  63      19.421  36.799  43.173  0.00  0.00     0.104 H 
ATOM    109  O4  SGN d  64      18.312  34.894  44.425  0.00  0.00    -0.348 OA
ATOM    110  O6  SGN d  64      18.590  32.340  47.683  0.00  0.00    -0.254 OA
ATOM    111  C3  SGN d  64      19.548  36.526  45.764  0.00  0.00     0.083 C 
ATOM    112  S2  SGN d  64      20.308  31.914  47.461  0.00  0.00     0.251 S 
ATOM    113  C5  SGN d  64      18.374  34.589  46.811  0.00  0.00     0.091 C 
ATOM    114  O1S SGN d  64      23.420  38.342  47.239  0.00  0.00    -0.296 OA
ATOM    115  C2  SGN d  64      20.426  36.642  46.971  0.00  0.00     0.081 C 
ATOM    116  O4S SGN d  64      20.423  31.180  46.227  0.00  0.00    -0.572 OA
ATOM    117  O3S SGN d  64      22.422  38.224  45.090  0.00  0.00    -0.296 OA
ATOM    118  S1  SGN d  64      22.247  38.692  46.453  0.00  0.00     0.156 S 
ATOM    119  O6S SGN d  64      21.142  33.096  47.408  0.00  0.00    -0.572 OA
ATOM    120  O5S SGN d  64      20.722  31.095  48.569  0.00  0.00    -0.572 OA
ATOM    121  O3  SGN d  64      20.291  36.995  44.698  0.00  0.00    -0.391 OA
ATOM    122  C1  SGN d  64      19.660  36.157  48.175  0.00  0.00     0.150 C 
ATOM    123  O2S SGN d  64      22.037  40.113  46.446  0.00  0.00    -0.296 OA
ATOM    124  C4  SGN d  64      19.167  35.035  45.569  0.00  0.00     0.095 C 
ATOM    125  O5  SGN d  64      19.254  34.789  47.956  0.00  0.00    -0.349 OA
ATOM    126  C6  SGN d  64      17.974  33.135  46.680  0.00  0.00     0.067 C 
ATOM    127  N   SGN d  64      20.775  38.026  47.179  0.00  0.00    -0.210 NA
ATOM    128  H   SGN d  64      18.642  37.087  45.858  0.00  0.00     0.089 H 
ATOM    129  H   SGN d  64      17.471  35.153  46.926  0.00  0.00     0.090 H 
ATOM    130  H   SGN d  64      23.540  37.380  47.228  0.00  0.00     0.231 HD
ATOM    131  H   SGN d  64      21.312  36.060  46.830  0.00  0.00     0.076 H 
ATOM    132  H   SGN d  64      22.564  37.264  45.093  0.00  0.00     0.231 HD
ATOM    133  H   SGN d  64      21.110  36.480  44.623  0.00  0.00     0.210 HD
ATOM    134  H   SGN d  64      20.253  36.187  49.064  0.00  0.00     0.131 H 
ATOM    135  H   SGN d  64      22.811  40.552  46.058  0.00  0.00     0.231 HD
ATOM    136  H   SGN d  64      20.052  34.449  45.431  0.00  0.00     0.091 H 
ATOM    137  H   SGN d  64      16.912  33.055  46.775  0.00  0.00     0.080 H 
ATOM    138  H   SGN d  64      18.296  32.781  45.723  0.00  0.00     0.080 H 
ATOM    139  H   SGN d  64      20.858  38.160  48.187  0.00  0.00     0.140 HD
ATOM    140  C1  IDS d  61      19.297  35.608  34.003  0.00  0.00     0.167 C 
ATOM    141  O5  IDS d  61      18.090  34.819  33.837  0.00  0.00    -0.311 OA
ATOM    142  C5  IDS d  61      18.169  33.434  33.766  0.00  0.00     0.147 C 
ATOM    143  C6  IDS d  61      16.805  32.642  33.715  0.00  0.00     0.233 C 
ATOM    144  C2  IDS d  61      20.385  35.012  33.116  0.00  0.00     0.135 C 
ATOM    145  O1S IDS d  61      17.493  35.796  31.669  0.00  0.00    -0.572 OA
ATOM    146  O3S IDS d  61      19.120  37.572  31.567  0.00  0.00    -0.572 OA
ATOM    147  O3  IDS d  61      21.506  33.456  34.425  0.00  0.00    -0.389 OA
ATOM    148  C4  IDS d  61      19.356  32.781  33.626  0.00  0.00    -0.034 C 
ATOM    149  C3  IDS d  61      20.623  33.523  33.362  0.00  0.00     0.086 C 
ATOM    150  O61 IDS d  61      16.813  31.416  33.597  0.00  0.00    -0.642 OA
ATOM    151  O62 IDS d  61      15.716  33.266  33.759  0.00  0.00    -0.642 OA
ATOM    152  O2S IDS d  61      18.642  36.125  29.721  0.00  0.00    -0.572 OA
ATOM    153  S   IDS d  61      18.758  36.230  31.136  0.00  0.00     0.252 S 
ATOM    154  O2  IDS d  61      20.021  35.119  31.729  0.00  0.00    -0.244 OA
ATOM    155  H   IDS d  61      19.103  36.628  33.745  0.00  0.00     0.134 H 
ATOM    156  H   IDS d  61      21.268  35.567  33.357  0.00  0.00     0.097 H 
ATOM    157  H   IDS d  61      22.312  33.951  34.208  0.00  0.00     0.210 HD
ATOM    158  H   IDS d  61      19.380  31.752  33.703  0.00  0.00     0.085 H 
ATOM    159  H   IDS d  61      21.029  33.047  32.495  0.00  0.00     0.093 H 
ENDROOT
TORSDOF 50
ENDMDL
MODEL 58
REMARK VINA RESULT:      -5.2      6.725     11.047
REMARK  0 active torsions:
REMARK  status: ('A' for Active; 'I' for Inactive)
REMARK       I    between atoms: O3S_3  and  S1_55 
REMARK       I    between atoms: O3_4  and  C3_87 
REMARK       I    between atoms: O4_5  and  C1_15 
REMARK       I    between atoms: O4_5  and  C4_57 
REMARK       I    between atoms: O4_7  and  C1_36 
REMARK       I    between atoms: O4_7  and  C4_89 
REMARK       I    between atoms: C4_8  and  O4_18 
REMARK       I    between atoms: C2_9  and  O2_84 
REMARK       I    between atoms: C6_10  and  C5_32 
REMARK       I    between atoms: C6_10  and  O6_102 
REMARK       I    between atoms: O6_11  and  C6_93 
REMARK       I    between atoms: O6_11  and  S2_25 
REMARK       I    between atoms: C1_13  and  O4_74 
REMARK       I    between atoms: C3_14  and  O3_71 
REMARK       I    between atoms: O4_18  and  C1_54 
REMARK       I    between atoms: S2_19  and  O6_39 
REMARK       I    between atoms: O2S_21  and  S1_45 
REMARK       I    between atoms: C5_22  and  C6_23 
REMARK       I    between atoms: C5_24  and  C6_77 
REMARK       I    between atoms: O1_27  and  C1_48 
REMARK       I    between atoms: C5_28  and  C6_30 
REMARK       I    between atoms: C5_29  and  C6_93 
REMARK       I    between atoms: O1S_31  and  S1_44 
REMARK       I    between atoms: C3_33  and  O3_69 
REMARK       I    between atoms: C2_37  and  N_99 
REMARK       I    between atoms: S2_38  and  O6_102 
REMARK       I    between atoms: O6_39  and  C6_77 
REMARK       I    between atoms: C2_40  and  O2_103 
REMARK       I    between atoms: O3S_42  and  S1_44 
REMARK       I    between atoms: S1_44  and  N_99 
REMARK       I    between atoms: S1_44  and  O2S_81 
REMARK       I    between atoms: S1_45  and  N_94 
REMARK       I    between atoms: S1_45  and  O1S_46 
REMARK       I    between atoms: S1_45  and  O3S_58 
REMARK       I    between atoms: O3_52  and  C3_105 
REMARK       I    between atoms: S1_55  and  N_100 
REMARK       I    between atoms: S1_55  and  O1S_79 
REMARK       I    between atoms: S1_55  and  O2S_83 
REMARK       I    between atoms: O3_56  and  C3_64 
REMARK       I    between atoms: C4_60  and  O4_61 
REMARK       I    between atoms: O4_61  and  C1_73 
REMARK       I    between atoms: C6_63  and  C5_80 
REMARK       I    between atoms: C3_65  and  O3_82 
REMARK       I    between atoms: S_67  and  O2_84 
REMARK       I    between atoms: C2_68  and  O2_98 
REMARK       I    between atoms: O4_74  and  C4_97 
REMARK       I    between atoms: C2_85  and  N_94 
REMARK       I    between atoms: C2_95  and  N_100 
REMARK       I    between atoms: O2_98  and  S_104 
REMARK       I    between atoms: S_101  and  O2_103 
ROOT
ATOM      1  O6S SGN d  66      28.007  27.843  44.835  0.00  0.00    -0.572 OA
ATOM      2  C4  SGN d  66      23.265  28.487  44.855  0.00  0.00     0.095 C 
ATOM      3  C6  SGN d  66      24.410  26.384  44.054  0.00  0.00     0.067 C 
ATOM      4  O4  SGN d  66      23.354  29.065  43.469  0.00  0.00    -0.348 OA
ATOM      5  O5S SGN d  66      27.272  27.002  42.735  0.00  0.00    -0.572 OA
ATOM      6  O2S SGN d  66      20.991  27.655  50.014  0.00  0.00    -0.296 OA
ATOM      7  O5  SGN d  66      23.066  26.402  46.139  0.00  0.00    -0.350 OA
ATOM      8  O1  SGN d  66      20.671  26.628  46.216  0.00  0.00    -0.369 OA
ATOM      9  C5  SGN d  66      23.179  26.954  44.783  0.00  0.00     0.091 C 
ATOM     10  S2  SGN d  66      26.869  27.709  43.947  0.00  0.00     0.251 S 
ATOM     11  S1  SGN d  66      20.026  28.082  49.020  0.00  0.00     0.156 S 
ATOM     12  O1S SGN d  66      19.030  28.976  49.594  0.00  0.00    -0.296 OA
ATOM     13  C1  SGN d  66      21.912  26.892  46.900  0.00  0.00     0.147 C 
ATOM     14  O3S SGN d  66      19.316  26.944  48.456  0.00  0.00    -0.296 OA
ATOM     15  C3  SGN d  66      22.086  29.072  45.651  0.00  0.00     0.083 C 
ATOM     16  O3  SGN d  66      22.290  30.472  45.836  0.00  0.00    -0.391 OA
ATOM     17  C2  SGN d  66      22.053  28.422  47.037  0.00  0.00     0.081 C 
ATOM     18  O4S SGN d  66      26.351  29.033  43.633  0.00  0.00    -0.572 OA
ATOM     19  N   SGN d  66      20.926  28.998  47.783  0.00  0.00    -0.210 NA
ATOM     20  O6  SGN d  66      25.626  26.726  44.760  0.00  0.00    -0.254 OA
ATOM     21  H   SGN d  66      24.156  28.759  45.381  0.00  0.00     0.091 H 
ATOM     22  H   SGN d  66      24.452  26.790  43.065  0.00  0.00     0.080 H 
ATOM     23  H   SGN d  66      24.324  25.318  44.015  0.00  0.00     0.080 H 
ATOM     24  H   SGN d  66      21.450  28.429  50.373  0.00  0.00     0.231 HD
ATOM     25  H   SGN d  66      20.555  25.671  46.116  0.00  0.00     0.212 HD
ATOM     26  H   SGN d  66      22.309  26.673  44.227  0.00  0.00     0.090 H 
ATOM     27  H   SGN d  66      19.473  29.748  49.980  0.00  0.00     0.231 HD
ATOM     28  H   SGN d  66      21.894  26.395  47.847  0.00  0.00     0.131 H 
ATOM     29  H   SGN d  66      19.953  26.327  48.065  0.00  0.00     0.231 HD
ATOM     30  H   SGN d  66      21.176  28.891  45.120  0.00  0.00     0.089 H 
ATOM     31  H   SGN d  66      23.119  30.616  46.318  0.00  0.00     0.210 HD
ATOM     32  H   SGN d  66      22.964  28.613  47.566  0.00  0.00     0.076 H 
ATOM     33  H   SGN d  66      21.292  29.825  48.254  0.00  0.00     0.140 HD
ATOM     34  O61 IDS d  65      19.117  31.550  43.329  0.00  0.00    -0.646 OA
ATOM     35  O3  IDS d  65      21.867  29.130  39.510  0.00  0.00    -0.390 OA
ATOM     36  C5  IDS d  65      21.272  30.624  42.873  0.00  0.00     0.152 C 
ATOM     37  C6  IDS d  65      20.350  31.689  43.523  0.00  0.00     0.206 C 
ATOM     38  O5  IDS d  65      22.657  31.007  43.135  0.00  0.00    -0.340 OA
ATOM     39  C1  IDS d  65      23.682  30.133  42.593  0.00  0.00     0.161 C 
ATOM     40  O1S IDS d  65      23.967  27.386  38.398  0.00  0.00    -0.572 OA
ATOM     41  C4  IDS d  65      21.010  30.391  41.343  0.00  0.00     0.103 C 
ATOM     42  O4  IDS d  65      19.998  31.362  41.066  0.00  0.00    -0.348 OA
ATOM     43  C2  IDS d  65      23.198  29.203  41.440  0.00  0.00     0.134 C 
ATOM     44  O62 IDS d  65      20.866  32.613  44.222  0.00  0.00    -0.646 OA
ATOM     45  C3  IDS d  65      22.267  29.964  40.551  0.00  0.00     0.094 C 
ATOM     46  O2S IDS d  65      22.938  26.607  40.404  0.00  0.00    -0.572 OA
ATOM     47  O3S IDS d  65      25.285  26.377  40.133  0.00  0.00    -0.572 OA
ATOM     48  O2  IDS d  65      24.294  28.809  40.628  0.00  0.00    -0.244 OA
ATOM     49  S   IDS d  65      24.127  27.217  39.842  0.00  0.00     0.252 S 
ATOM     50  H   IDS d  65      21.261  29.612  38.925  0.00  0.00     0.210 HD
ATOM     51  H   IDS d  65      21.051  29.677  43.318  0.00  0.00     0.104 H 
ATOM     52  H   IDS d  65      24.586  30.675  42.411  0.00  0.00     0.133 H 
ATOM     53  H   IDS d  65      20.576  29.512  40.914  0.00  0.00     0.092 H 
ATOM     54  H   IDS d  65      22.725  28.349  41.879  0.00  0.00     0.097 H 
ATOM     55  H   IDS d  65      22.767  30.833  40.176  0.00  0.00     0.091 H 
ATOM     56  O3S SGN d  62      19.742  40.415  39.734  0.00  0.00    -0.296 OA
ATOM     57  C1  SGN d  62      18.850  39.359  36.546  0.00  0.00     0.150 C 
ATOM     58  S2  SGN d  62      17.919  38.798  30.699  0.00  0.00     0.251 S 
ATOM     59  C5  SGN d  62      18.132  39.986  34.246  0.00  0.00     0.091 C 
ATOM     60  O5  SGN d  62      19.199  39.558  35.139  0.00  0.00    -0.349 OA
ATOM     61  O4S SGN d  62      18.905  39.282  29.791  0.00  0.00    -0.572 OA
ATOM     62  O6  SGN d  62      17.633  39.976  31.958  0.00  0.00    -0.254 OA
ATOM     63  O3  SGN d  62      16.326  42.106  36.694  0.00  0.00    -0.391 OA
ATOM     64  S1  SGN d  62      18.385  40.911  39.706  0.00  0.00     0.156 S 
ATOM     65  O6S SGN d  62      18.284  37.522  31.310  0.00  0.00    -0.572 OA
ATOM     66  O4  SGN d  62      16.497  41.695  33.842  0.00  0.00    -0.348 OA
ATOM     67  C6  SGN d  62      18.712  40.144  32.860  0.00  0.00     0.067 C 
ATOM     68  O5S SGN d  62      16.658  38.633  30.028  0.00  0.00    -0.572 OA
ATOM     69  O1S SGN d  62      17.644  40.521  40.887  0.00  0.00    -0.296 OA
ATOM     70  O2S SGN d  62      18.439  42.335  39.539  0.00  0.00    -0.296 OA
ATOM     71  C2  SGN d  62      18.109  40.591  37.045  0.00  0.00     0.081 C 
ATOM     72  C4  SGN d  62      17.525  41.307  34.750  0.00  0.00     0.095 C 
ATOM     73  N   SGN d  62      17.531  40.291  38.316  0.00  0.00    -0.210 NA
ATOM     74  C3  SGN d  62      16.941  40.978  36.133  0.00  0.00     0.083 C 
ATOM     75  H   SGN d  62      19.732  39.452  39.846  0.00  0.00     0.231 HD
ATOM     76  H   SGN d  62      19.771  39.191  37.063  0.00  0.00     0.131 H 
ATOM     77  H   SGN d  62      17.347  39.259  34.219  0.00  0.00     0.090 H 
ATOM     78  H   SGN d  62      15.965  41.878  37.565  0.00  0.00     0.210 HD
ATOM     79  H   SGN d  62      19.462  39.402  32.685  0.00  0.00     0.080 H 
ATOM     80  H   SGN d  62      19.175  41.102  32.739  0.00  0.00     0.080 H 
ATOM     81  H   SGN d  62      17.634  39.554  40.959  0.00  0.00     0.231 HD
ATOM     82  H   SGN d  62      18.944  42.548  38.738  0.00  0.00     0.231 HD
ATOM     83  H   SGN d  62      18.818  41.392  37.079  0.00  0.00     0.076 H 
ATOM     84  H   SGN d  62      18.233  42.108  34.814  0.00  0.00     0.091 H 
ATOM     85  H   SGN d  62      16.587  40.679  38.330  0.00  0.00     0.140 HD
ATOM     86  H   SGN d  62      16.220  40.193  36.034  0.00  0.00     0.089 H 
ATOM     87  O4  IDS d  63      18.015  38.219  36.786  0.00  0.00    -0.348 OA
ATOM     88  O62 IDS d  63      16.909  34.977  35.420  0.00  0.00    -0.646 OA
ATOM     89  C2  IDS d  63      17.223  37.333  39.657  0.00  0.00     0.134 C 
ATOM     90  O2S IDS d  63      14.590  38.348  40.951  0.00  0.00    -0.572 OA
ATOM     91  O61 IDS d  63      18.994  35.474  35.119  0.00  0.00    -0.646 OA
ATOM     92  C3  IDS d  63      18.651  37.535  39.134  0.00  0.00     0.094 C 
ATOM     93  C1  IDS d  63      16.746  35.886  39.353  0.00  0.00     0.161 C 
ATOM     94  O5  IDS d  63      16.723  35.721  37.912  0.00  0.00    -0.340 OA
ATOM     95  C4  IDS d  63      18.695  37.247  37.571  0.00  0.00     0.103 C 
ATOM     96  C6  IDS d  63      17.987  35.417  35.823  0.00  0.00     0.206 C 
ATOM     97  S   IDS d  63      14.674  38.250  39.500  0.00  0.00     0.252 S 
ATOM     98  O3  IDS d  63      19.431  36.588  39.829  0.00  0.00    -0.390 OA
ATOM     99  C5  IDS d  63      18.064  35.857  37.283  0.00  0.00     0.152 C 
ATOM    100  O2  IDS d  63      16.394  38.314  39.094  0.00  0.00    -0.244 OA
ATOM    101  O1S IDS d  63      14.071  39.388  38.830  0.00  0.00    -0.572 OA
ATOM    102  O3S IDS d  63      14.014  37.032  39.127  0.00  0.00    -0.572 OA
ATOM    103  H   IDS d  63      17.187  37.446  40.721  0.00  0.00     0.097 H 
ATOM    104  H   IDS d  63      19.007  38.533  39.284  0.00  0.00     0.091 H 
ATOM    105  H   IDS d  63      15.761  35.659  39.704  0.00  0.00     0.133 H 
ATOM    106  H   IDS d  63      19.728  37.280  37.293  0.00  0.00     0.092 H 
ATOM    107  H   IDS d  63      19.079  35.698  39.668  0.00  0.00     0.210 HD
ATOM    108  H   IDS d  63      18.770  35.192  37.732  0.00  0.00     0.104 H 
ATOM    109  O4  SGN d  64      17.703  35.010  40.025  0.00  0.00    -0.348 OA
ATOM    110  O6  SGN d  64      15.713  32.504  42.666  0.00  0.00    -0.254 OA
ATOM    111  C3  SGN d  64      18.800  33.004  39.153  0.00  0.00     0.083 C 
ATOM    112  S2  SGN d  64      14.565  31.828  41.480  0.00  0.00     0.251 S 
ATOM    113  C5  SGN d  64      17.706  33.032  41.395  0.00  0.00     0.091 C 
ATOM    114  O1S SGN d  64      18.945  29.448  36.361  0.00  0.00    -0.296 OA
ATOM    115  C2  SGN d  64      18.679  31.512  39.116  0.00  0.00     0.081 C 
ATOM    116  O4S SGN d  64      13.704  32.896  41.044  0.00  0.00    -0.572 OA
ATOM    117  O3S SGN d  64      18.997  31.788  35.978  0.00  0.00    -0.296 OA
ATOM    118  S1  SGN d  64      19.663  30.681  36.641  0.00  0.00     0.156 S 
ATOM    119  O6S SGN d  64      15.257  31.260  40.342  0.00  0.00    -0.572 OA
ATOM    120  O5S SGN d  64      13.796  30.798  42.125  0.00  0.00    -0.572 OA
ATOM    121  O3  SGN d  64      18.764  33.428  37.838  0.00  0.00    -0.391 OA
ATOM    122  C1  SGN d  64      18.728  30.989  40.528  0.00  0.00     0.150 C 
ATOM    123  O2S SGN d  64      21.023  30.601  36.184  0.00  0.00    -0.296 OA
ATOM    124  C4  SGN d  64      17.606  33.579  39.960  0.00  0.00     0.095 C 
ATOM    125  O5  SGN d  64      17.652  31.579  41.288  0.00  0.00    -0.349 OA
ATOM    126  C6  SGN d  64      16.561  33.558  42.234  0.00  0.00     0.067 C 
ATOM    127  N   SGN d  64      19.793  30.959  38.385  0.00  0.00    -0.210 NA
ATOM    128  H   SGN d  64      19.703  33.334  39.623  0.00  0.00     0.089 H 
ATOM    129  H   SGN d  64      18.613  33.342  41.873  0.00  0.00     0.090 H 
ATOM    130  H   SGN d  64      18.032  29.526  36.678  0.00  0.00     0.231 HD
ATOM    131  H   SGN d  64      17.760  31.237  38.644  0.00  0.00     0.076 H 
ATOM    132  H   SGN d  64      18.078  31.844  36.285  0.00  0.00     0.231 HD
ATOM    133  H   SGN d  64      17.943  33.124  37.422  0.00  0.00     0.210 HD
ATOM    134  H   SGN d  64      18.612  29.926  40.564  0.00  0.00     0.131 H 
ATOM    135  H   SGN d  64      21.034  30.449  35.226  0.00  0.00     0.231 HD
ATOM    136  H   SGN d  64      16.684  33.302  39.492  0.00  0.00     0.091 H 
ATOM    137  H   SGN d  64      16.959  34.060  43.092  0.00  0.00     0.080 H 
ATOM    138  H   SGN d  64      15.985  34.233  41.636  0.00  0.00     0.080 H 
ATOM    139  H   SGN d  64      20.004  30.057  38.812  0.00  0.00     0.140 HD
ATOM    140  C1  IDS d  61      16.597  43.060  33.386  0.00  0.00     0.167 C 
ATOM    141  O5  IDS d  61      16.389  43.955  34.510  0.00  0.00    -0.311 OA
ATOM    142  C5  IDS d  61      15.108  44.165  35.004  0.00  0.00     0.147 C 
ATOM    143  C6  IDS d  61      14.980  45.050  36.304  0.00  0.00     0.233 C 
ATOM    144  C2  IDS d  61      15.484  43.299  32.371  0.00  0.00     0.135 C 
ATOM    145  O1S IDS d  61      17.244  45.944  33.358  0.00  0.00    -0.572 OA
ATOM    146  O3S IDS d  61      18.119  44.909  31.365  0.00  0.00    -0.572 OA
ATOM    147  O3  IDS d  61      13.777  41.825  32.925  0.00  0.00    -0.389 OA
ATOM    148  C4  IDS d  61      13.996  43.737  34.344  0.00  0.00    -0.034 C 
ATOM    149  C3  IDS d  61      14.081  43.174  32.965  0.00  0.00     0.086 C 
ATOM    150  O61 IDS d  61      13.866  45.315  36.758  0.00  0.00    -0.642 OA
ATOM    151  O62 IDS d  61      16.011  45.509  36.854  0.00  0.00    -0.642 OA
ATOM    152  O2S IDS d  61      16.798  46.904  31.334  0.00  0.00    -0.572 OA
ATOM    153  S   IDS d  61      17.021  45.649  31.968  0.00  0.00     0.252 S 
ATOM    154  O2  IDS d  61      15.560  44.634  31.842  0.00  0.00    -0.244 OA
ATOM    155  H   IDS d  61      17.559  43.236  32.953  0.00  0.00     0.134 H 
ATOM    156  H   IDS d  61      15.631  42.548  31.623  0.00  0.00     0.097 H 
ATOM    157  H   IDS d  61      13.845  41.505  32.011  0.00  0.00     0.210 HD
ATOM    158  H   IDS d  61      13.076  43.804  34.806  0.00  0.00     0.085 H 
ATOM    159  H   IDS d  61      13.372  43.745  32.405  0.00  0.00     0.093 H 
ENDROOT
TORSDOF 50
ENDMDL
MODEL 59
REMARK VINA RESULT:      -5.2      4.354      7.452
REMARK  0 active torsions:
REMARK  status: ('A' for Active; 'I' for Inactive)
REMARK       I    between atoms: O3S_3  and  S1_55 
REMARK       I    between atoms: O3_4  and  C3_87 
REMARK       I    between atoms: O4_5  and  C1_15 
REMARK       I    between atoms: O4_5  and  C4_57 
REMARK       I    between atoms: O4_7  and  C1_36 
REMARK       I    between atoms: O4_7  and  C4_89 
REMARK       I    between atoms: C4_8  and  O4_18 
REMARK       I    between atoms: C2_9  and  O2_84 
REMARK       I    between atoms: C6_10  and  C5_32 
REMARK       I    between atoms: C6_10  and  O6_102 
REMARK       I    between atoms: O6_11  and  C6_93 
REMARK       I    between atoms: O6_11  and  S2_25 
REMARK       I    between atoms: C1_13  and  O4_74 
REMARK       I    between atoms: C3_14  and  O3_71 
REMARK       I    between atoms: O4_18  and  C1_54 
REMARK       I    between atoms: S2_19  and  O6_39 
REMARK       I    between atoms: O2S_21  and  S1_45 
REMARK       I    between atoms: C5_22  and  C6_23 
REMARK       I    between atoms: C5_24  and  C6_77 
REMARK       I    between atoms: O1_27  and  C1_48 
REMARK       I    between atoms: C5_28  and  C6_30 
REMARK       I    between atoms: C5_29  and  C6_93 
REMARK       I    between atoms: O1S_31  and  S1_44 
REMARK       I    between atoms: C3_33  and  O3_69 
REMARK       I    between atoms: C2_37  and  N_99 
REMARK       I    between atoms: S2_38  and  O6_102 
REMARK       I    between atoms: O6_39  and  C6_77 
REMARK       I    between atoms: C2_40  and  O2_103 
REMARK       I    between atoms: O3S_42  and  S1_44 
REMARK       I    between atoms: S1_44  and  N_99 
REMARK       I    between atoms: S1_44  and  O2S_81 
REMARK       I    between atoms: S1_45  and  N_94 
REMARK       I    between atoms: S1_45  and  O1S_46 
REMARK       I    between atoms: S1_45  and  O3S_58 
REMARK       I    between atoms: O3_52  and  C3_105 
REMARK       I    between atoms: S1_55  and  N_100 
REMARK       I    between atoms: S1_55  and  O1S_79 
REMARK       I    between atoms: S1_55  and  O2S_83 
REMARK       I    between atoms: O3_56  and  C3_64 
REMARK       I    between atoms: C4_60  and  O4_61 
REMARK       I    between atoms: O4_61  and  C1_73 
REMARK       I    between atoms: C6_63  and  C5_80 
REMARK       I    between atoms: C3_65  and  O3_82 
REMARK       I    between atoms: S_67  and  O2_84 
REMARK       I    between atoms: C2_68  and  O2_98 
REMARK       I    between atoms: O4_74  and  C4_97 
REMARK       I    between atoms: C2_85  and  N_94 
REMARK       I    between atoms: C2_95  and  N_100 
REMARK       I    between atoms: O2_98  and  S_104 
REMARK       I    between atoms: S_101  and  O2_103 
ROOT
ATOM      1  O6S SGN d  66      11.938  36.274  57.647  0.00  0.00    -0.572 OA
ATOM      2  C4  SGN d  66      14.312  32.646  55.625  0.00  0.00     0.095 C 
ATOM      3  C6  SGN d  66      15.158  33.973  57.599  0.00  0.00     0.067 C 
ATOM      4  O4  SGN d  66      14.970  33.621  54.686  0.00  0.00    -0.348 OA
ATOM      5  O5S SGN d  66      14.187  37.032  57.495  0.00  0.00    -0.572 OA
ATOM      6  O2S SGN d  66      12.376  27.569  57.341  0.00  0.00    -0.296 OA
ATOM      7  O5  SGN d  66      14.458  31.606  57.845  0.00  0.00    -0.350 OA
ATOM      8  O1  SGN d  66      15.655  29.727  56.934  0.00  0.00    -0.369 OA
ATOM      9  C5  SGN d  66      15.093  32.579  56.947  0.00  0.00     0.091 C 
ATOM     10  S2  SGN d  66      13.257  35.967  57.131  0.00  0.00     0.251 S 
ATOM     11  S1  SGN d  66      13.422  27.479  56.341  0.00  0.00     0.156 S 
ATOM     12  O1S SGN d  66      13.187  26.375  55.422  0.00  0.00    -0.296 OA
ATOM     13  C1  SGN d  66      14.362  30.248  57.299  0.00  0.00     0.147 C 
ATOM     14  O3S SGN d  66      14.720  27.261  56.960  0.00  0.00    -0.296 OA
ATOM     15  C3  SGN d  66      14.164  31.250  54.997  0.00  0.00     0.083 C 
ATOM     16  O3  SGN d  66      13.298  31.330  53.866  0.00  0.00    -0.391 OA
ATOM     17  C2  SGN d  66      13.507  30.316  56.017  0.00  0.00     0.081 C 
ATOM     18  O4S SGN d  66      13.179  35.812  55.685  0.00  0.00    -0.572 OA
ATOM     19  N   SGN d  66      13.368  28.990  55.397  0.00  0.00    -0.210 NA
ATOM     20  O6  SGN d  66      13.829  34.463  57.893  0.00  0.00    -0.254 OA
ATOM     21  H   SGN d  66      13.323  33.000  55.824  0.00  0.00     0.091 H 
ATOM     22  H   SGN d  66      15.642  34.651  56.928  0.00  0.00     0.080 H 
ATOM     23  H   SGN d  66      15.708  33.899  58.514  0.00  0.00     0.080 H 
ATOM     24  H   SGN d  66      11.523  27.714  56.904  0.00  0.00     0.231 HD
ATOM     25  H   SGN d  66      16.216  29.673  57.723  0.00  0.00     0.212 HD
ATOM     26  H   SGN d  66      16.095  32.260  56.752  0.00  0.00     0.090 H 
ATOM     27  H   SGN d  66      12.325  26.491  54.991  0.00  0.00     0.231 HD
ATOM     28  H   SGN d  66      13.934  29.612  58.044  0.00  0.00     0.131 H 
ATOM     29  H   SGN d  66      14.908  27.982  57.581  0.00  0.00     0.231 HD
ATOM     30  H   SGN d  66      15.128  30.886  54.708  0.00  0.00     0.089 H 
ATOM     31  H   SGN d  66      12.431  31.661  54.146  0.00  0.00     0.210 HD
ATOM     32  H   SGN d  66      12.540  30.681  56.296  0.00  0.00     0.076 H 
ATOM     33  H   SGN d  66      12.466  28.994  54.921  0.00  0.00     0.140 HD
ATOM     34  O61 IDS d  65      16.353  30.538  51.117  0.00  0.00    -0.646 OA
ATOM     35  O3  IDS d  65      18.535  35.021  52.891  0.00  0.00    -0.390 OA
ATOM     36  C5  IDS d  65      15.867  32.455  52.460  0.00  0.00     0.152 C 
ATOM     37  C6  IDS d  65      15.461  31.363  51.434  0.00  0.00     0.206 C 
ATOM     38  O5  IDS d  65      14.733  33.360  52.625  0.00  0.00    -0.340 OA
ATOM     39  C1  IDS d  65      14.920  34.466  53.546  0.00  0.00     0.161 C 
ATOM     40  O1S IDS d  65      18.899  37.290  54.737  0.00  0.00    -0.572 OA
ATOM     41  C4  IDS d  65      17.182  33.227  52.093  0.00  0.00     0.103 C 
ATOM     42  O4  IDS d  65      17.515  32.659  50.824  0.00  0.00    -0.348 OA
ATOM     43  C2  IDS d  65      16.408  34.806  53.859  0.00  0.00     0.134 C 
ATOM     44  O62 IDS d  65      14.273  31.339  50.990  0.00  0.00    -0.646 OA
ATOM     45  C3  IDS d  65      17.214  34.686  52.604  0.00  0.00     0.094 C 
ATOM     46  O2S IDS d  65      18.430  35.192  55.767  0.00  0.00    -0.572 OA
ATOM     47  O3S IDS d  65      17.397  37.158  56.605  0.00  0.00    -0.572 OA
ATOM     48  O2  IDS d  65      16.530  36.155  54.284  0.00  0.00    -0.244 OA
ATOM     49  S   IDS d  65      17.879  36.482  55.404  0.00  0.00     0.252 S 
ATOM     50  H   IDS d  65      19.070  34.946  52.085  0.00  0.00     0.210 HD
ATOM     51  H   IDS d  65      16.103  31.971  53.384  0.00  0.00     0.104 H 
ATOM     52  H   IDS d  65      14.295  35.293  53.279  0.00  0.00     0.133 H 
ATOM     53  H   IDS d  65      18.116  33.143  52.608  0.00  0.00     0.092 H 
ATOM     54  H   IDS d  65      16.749  34.136  54.620  0.00  0.00     0.097 H 
ATOM     55  H   IDS d  65      16.807  35.336  51.858  0.00  0.00     0.091 H 
ATOM     56  O3S SGN d  62      14.563  33.595  42.209  0.00  0.00    -0.296 OA
ATOM     57  C1  SGN d  62      17.754  34.923  41.851  0.00  0.00     0.150 C 
ATOM     58  S2  SGN d  62      22.596  37.941  40.177  0.00  0.00     0.251 S 
ATOM     59  C5  SGN d  62      19.481  35.866  40.325  0.00  0.00     0.091 C 
ATOM     60  O5  SGN d  62      18.447  36.099  41.324  0.00  0.00    -0.349 OA
ATOM     61  O4S SGN d  62      22.457  39.294  39.752  0.00  0.00    -0.572 OA
ATOM     62  O6  SGN d  62      21.359  36.951  39.442  0.00  0.00    -0.254 OA
ATOM     63  O3  SGN d  62      17.854  32.977  38.666  0.00  0.00    -0.391 OA
ATOM     64  S1  SGN d  62      15.127  32.588  41.341  0.00  0.00     0.156 S 
ATOM     65  O6S SGN d  62      22.533  37.790  41.628  0.00  0.00    -0.572 OA
ATOM     66  O4  SGN d  62      19.925  34.924  38.164  0.00  0.00    -0.348 OA
ATOM     67  C6  SGN d  62      20.047  37.204  39.913  0.00  0.00     0.067 C 
ATOM     68  O5S SGN d  62      23.848  37.400  39.721  0.00  0.00    -0.572 OA
ATOM     69  O1S SGN d  62      14.897  31.250  41.845  0.00  0.00    -0.296 OA
ATOM     70  O2S SGN d  62      14.581  32.780  40.028  0.00  0.00    -0.296 OA
ATOM     71  C2  SGN d  62      17.277  34.072  40.682  0.00  0.00     0.081 C 
ATOM     72  C4  SGN d  62      18.885  35.119  39.120  0.00  0.00     0.095 C 
ATOM     73  N   SGN d  62      16.852  32.805  41.185  0.00  0.00    -0.210 NA
ATOM     74  C3  SGN d  62      18.399  33.774  39.683  0.00  0.00     0.083 C 
ATOM     75  H   SGN d  62      14.918  33.485  43.105  0.00  0.00     0.231 HD
ATOM     76  H   SGN d  62      16.948  35.292  42.451  0.00  0.00     0.131 H 
ATOM     77  H   SGN d  62      20.265  35.259  40.727  0.00  0.00     0.090 H 
ATOM     78  H   SGN d  62      17.553  32.134  39.041  0.00  0.00     0.210 HD
ATOM     79  H   SGN d  62      20.076  37.869  40.751  0.00  0.00     0.080 H 
ATOM     80  H   SGN d  62      19.444  37.667  39.159  0.00  0.00     0.080 H 
ATOM     81  H   SGN d  62      15.282  31.167  42.731  0.00  0.00     0.231 HD
ATOM     82  H   SGN d  62      14.758  33.687  39.734  0.00  0.00     0.231 HD
ATOM     83  H   SGN d  62      16.497  34.619  40.193  0.00  0.00     0.076 H 
ATOM     84  H   SGN d  62      18.085  35.644  38.641  0.00  0.00     0.091 H 
ATOM     85  H   SGN d  62      17.202  32.084  40.553  0.00  0.00     0.140 HD
ATOM     86  H   SGN d  62      19.222  33.260  40.133  0.00  0.00     0.089 H 
ATOM     87  O4  IDS d  63      18.564  34.093  42.694  0.00  0.00    -0.348 OA
ATOM     88  O62 IDS d  63      21.579  34.022  44.815  0.00  0.00    -0.646 OA
ATOM     89  C2  IDS d  63      17.407  31.618  44.173  0.00  0.00     0.134 C 
ATOM     90  O2S IDS d  63      17.541  28.800  42.875  0.00  0.00    -0.572 OA
ATOM     91  O61 IDS d  63      20.392  35.829  44.911  0.00  0.00    -0.646 OA
ATOM     92  C3  IDS d  63      16.875  33.055  44.259  0.00  0.00     0.094 C 
ATOM     93  C1  IDS d  63      18.531  31.403  45.223  0.00  0.00     0.161 C 
ATOM     94  O5  IDS d  63      19.620  32.304  44.898  0.00  0.00    -0.340 OA
ATOM     95  C4  IDS d  63      18.067  34.081  44.026  0.00  0.00     0.103 C 
ATOM     96  C6  IDS d  63      20.495  34.604  44.881  0.00  0.00     0.206 C 
ATOM     97  S   IDS d  63      18.547  29.792  42.520  0.00  0.00     0.252 S 
ATOM     98  O3  IDS d  63      16.373  33.178  45.572  0.00  0.00    -0.390 OA
ATOM     99  C5  IDS d  63      19.240  33.740  44.983  0.00  0.00     0.152 C 
ATOM    100  O2  IDS d  63      17.831  31.374  42.858  0.00  0.00    -0.244 OA
ATOM    101  O1S IDS d  63      18.847  29.795  41.100  0.00  0.00    -0.572 OA
ATOM    102  O3S IDS d  63      19.720  29.489  43.288  0.00  0.00    -0.572 OA
ATOM    103  H   IDS d  63      16.637  30.912  44.404  0.00  0.00     0.097 H 
ATOM    104  H   IDS d  63      16.127  33.262  43.523  0.00  0.00     0.091 H 
ATOM    105  H   IDS d  63      18.943  30.415  45.238  0.00  0.00     0.133 H 
ATOM    106  H   IDS d  63      17.662  35.052  44.223  0.00  0.00     0.092 H 
ATOM    107  H   IDS d  63      17.079  32.984  46.208  0.00  0.00     0.210 HD
ATOM    108  H   IDS d  63      18.825  33.973  45.941  0.00  0.00     0.104 H 
ATOM    109  O4  SGN d  64      17.913  31.679  46.518  0.00  0.00    -0.348 OA
ATOM    110  O6  SGN d  64      18.311  28.382  49.006  0.00  0.00    -0.254 OA
ATOM    111  C3  SGN d  64      18.792  33.017  48.368  0.00  0.00     0.083 C 
ATOM    112  S2  SGN d  64      20.084  28.242  48.876  0.00  0.00     0.251 S 
ATOM    113  C5  SGN d  64      17.836  30.742  48.733  0.00  0.00     0.091 C 
ATOM    114  O1S SGN d  64      22.233  34.810  50.694  0.00  0.00    -0.296 OA
ATOM    115  C2  SGN d  64      19.548  32.903  49.655  0.00  0.00     0.081 C 
ATOM    116  O4S SGN d  64      20.399  27.894  47.515  0.00  0.00    -0.572 OA
ATOM    117  O3S SGN d  64      21.430  35.167  48.490  0.00  0.00    -0.296 OA
ATOM    118  S1  SGN d  64      21.085  35.219  49.899  0.00  0.00     0.156 S 
ATOM    119  O6S SGN d  64      20.739  29.486  49.229  0.00  0.00    -0.572 OA
ATOM    120  O5S SGN d  64      20.528  27.208  49.771  0.00  0.00    -0.572 OA
ATOM    121  O3  SGN d  64      19.538  33.846  47.552  0.00  0.00    -0.391 OA
ATOM    122  C1  SGN d  64      18.771  32.019  50.595  0.00  0.00     0.150 C 
ATOM    123  O2S SGN d  64      20.671  36.552  50.240  0.00  0.00    -0.296 OA
ATOM    124  C4  SGN d  64      18.648  31.602  47.749  0.00  0.00     0.095 C 
ATOM    125  O5  SGN d  64      18.587  30.724  49.983  0.00  0.00    -0.349 OA
ATOM    126  C6  SGN d  64      17.665  29.342  48.183  0.00  0.00     0.067 C 
ATOM    127  N   SGN d  64      19.675  34.208  50.255  0.00  0.00    -0.210 NA
ATOM    128  H   SGN d  64      17.809  33.418  48.502  0.00  0.00     0.089 H 
ATOM    129  H   SGN d  64      16.855  31.140  48.888  0.00  0.00     0.090 H 
ATOM    130  H   SGN d  64      22.493  33.909  50.446  0.00  0.00     0.231 HD
ATOM    131  H   SGN d  64      20.518  32.492  49.467  0.00  0.00     0.076 H 
ATOM    132  H   SGN d  64      21.711  34.268  48.258  0.00  0.00     0.231 HD
ATOM    133  H   SGN d  64      20.427  33.474  47.438  0.00  0.00     0.210 HD
ATOM    134  H   SGN d  64      19.284  31.874  51.523  0.00  0.00     0.131 H 
ATOM    135  H   SGN d  64      21.400  37.170  50.070  0.00  0.00     0.231 HD
ATOM    136  H   SGN d  64      19.617  31.187  47.563  0.00  0.00     0.091 H 
ATOM    137  H   SGN d  64      16.621  29.112  48.133  0.00  0.00     0.080 H 
ATOM    138  H   SGN d  64      18.106  29.305  47.209  0.00  0.00     0.080 H 
ATOM    139  H   SGN d  64      19.660  34.069  51.265  0.00  0.00     0.140 HD
ATOM    140  C1  IDS d  61      19.579  35.335  36.825  0.00  0.00     0.167 C 
ATOM    141  O5  IDS d  61      18.516  34.482  36.324  0.00  0.00    -0.311 OA
ATOM    142  C5  IDS d  61      18.802  33.190  35.903  0.00  0.00     0.147 C 
ATOM    143  C6  IDS d  61      17.576  32.285  35.492  0.00  0.00     0.233 C 
ATOM    144  C2  IDS d  61      20.806  35.140  35.942  0.00  0.00     0.135 C 
ATOM    145  O1S IDS d  61      17.951  35.938  34.433  0.00  0.00    -0.572 OA
ATOM    146  O3S IDS d  61      19.304  37.855  34.982  0.00  0.00    -0.572 OA
ATOM    147  O3  IDS d  61      22.040  33.431  36.918  0.00  0.00    -0.389 OA
ATOM    148  C4  IDS d  61      20.079  32.748  35.731  0.00  0.00    -0.034 C 
ATOM    149  C3  IDS d  61      21.240  33.680  35.816  0.00  0.00     0.086 C 
ATOM    150  O61 IDS d  61      17.771  31.148  35.060  0.00  0.00    -0.642 OA
ATOM    151  O62 IDS d  61      16.408  32.737  35.575  0.00  0.00    -0.642 OA
ATOM    152  O2S IDS d  61      19.185  36.923  32.781  0.00  0.00    -0.572 OA
ATOM    153  S   IDS d  61      19.176  36.649  34.178  0.00  0.00     0.252 S 
ATOM    154  O2  IDS d  61      20.538  35.578  34.599  0.00  0.00    -0.244 OA
ATOM    155  H   IDS d  61      19.258  36.356  36.823  0.00  0.00     0.134 H 
ATOM    156  H   IDS d  61      21.578  35.709  36.418  0.00  0.00     0.097 H 
ATOM    157  H   IDS d  61      22.779  34.059  36.930  0.00  0.00     0.210 HD
ATOM    158  H   IDS d  61      20.247  31.747  35.540  0.00  0.00     0.085 H 
ATOM    159  H   IDS d  61      21.776  33.513  34.906  0.00  0.00     0.093 H 
ENDROOT
TORSDOF 50
ENDMDL
MODEL 60
REMARK VINA RESULT:      -5.2      3.063     15.557
REMARK  0 active torsions:
REMARK  status: ('A' for Active; 'I' for Inactive)
REMARK       I    between atoms: O3S_3  and  S1_55 
REMARK       I    between atoms: O3_4  and  C3_87 
REMARK       I    between atoms: O4_5  and  C1_15 
REMARK       I    between atoms: O4_5  and  C4_57 
REMARK       I    between atoms: O4_7  and  C1_36 
REMARK       I    between atoms: O4_7  and  C4_89 
REMARK       I    between atoms: C4_8  and  O4_18 
REMARK       I    between atoms: C2_9  and  O2_84 
REMARK       I    between atoms: C6_10  and  C5_32 
REMARK       I    between atoms: C6_10  and  O6_102 
REMARK       I    between atoms: O6_11  and  C6_93 
REMARK       I    between atoms: O6_11  and  S2_25 
REMARK       I    between atoms: C1_13  and  O4_74 
REMARK       I    between atoms: C3_14  and  O3_71 
REMARK       I    between atoms: O4_18  and  C1_54 
REMARK       I    between atoms: S2_19  and  O6_39 
REMARK       I    between atoms: O2S_21  and  S1_45 
REMARK       I    between atoms: C5_22  and  C6_23 
REMARK       I    between atoms: C5_24  and  C6_77 
REMARK       I    between atoms: O1_27  and  C1_48 
REMARK       I    between atoms: C5_28  and  C6_30 
REMARK       I    between atoms: C5_29  and  C6_93 
REMARK       I    between atoms: O1S_31  and  S1_44 
REMARK       I    between atoms: C3_33  and  O3_69 
REMARK       I    between atoms: C2_37  and  N_99 
REMARK       I    between atoms: S2_38  and  O6_102 
REMARK       I    between atoms: O6_39  and  C6_77 
REMARK       I    between atoms: C2_40  and  O2_103 
REMARK       I    between atoms: O3S_42  and  S1_44 
REMARK       I    between atoms: S1_44  and  N_99 
REMARK       I    between atoms: S1_44  and  O2S_81 
REMARK       I    between atoms: S1_45  and  N_94 
REMARK       I    between atoms: S1_45  and  O1S_46 
REMARK       I    between atoms: S1_45  and  O3S_58 
REMARK       I    between atoms: O3_52  and  C3_105 
REMARK       I    between atoms: S1_55  and  N_100 
REMARK       I    between atoms: S1_55  and  O1S_79 
REMARK       I    between atoms: S1_55  and  O2S_83 
REMARK       I    between atoms: O3_56  and  C3_64 
REMARK       I    between atoms: C4_60  and  O4_61 
REMARK       I    between atoms: O4_61  and  C1_73 
REMARK       I    between atoms: C6_63  and  C5_80 
REMARK       I    between atoms: C3_65  and  O3_82 
REMARK       I    between atoms: S_67  and  O2_84 
REMARK       I    between atoms: C2_68  and  O2_98 
REMARK       I    between atoms: O4_74  and  C4_97 
REMARK       I    between atoms: C2_85  and  N_94 
REMARK       I    between atoms: C2_95  and  N_100 
REMARK       I    between atoms: O2_98  and  S_104 
REMARK       I    between atoms: S_101  and  O2_103 
ROOT
ATOM      1  O6S SGN d  66      19.062  28.962  31.625  0.00  0.00    -0.572 OA
ATOM      2  C4  SGN d  66      19.328  33.437  33.298  0.00  0.00     0.095 C 
ATOM      3  C6  SGN d  66      21.258  32.198  32.242  0.00  0.00     0.067 C 
ATOM      4  O4  SGN d  66      19.714  32.892  34.647  0.00  0.00    -0.348 OA
ATOM      5  O5S SGN d  66      21.118  29.042  32.818  0.00  0.00    -0.572 OA
ATOM      6  O2S SGN d  66      17.187  37.245  29.639  0.00  0.00    -0.296 OA
ATOM      7  O5  SGN d  66      20.188  34.124  31.102  0.00  0.00    -0.350 OA
ATOM      8  O1  SGN d  66      20.358  36.410  31.836  0.00  0.00    -0.369 OA
ATOM      9  C5  SGN d  66      20.572  33.567  32.406  0.00  0.00     0.091 C 
ATOM     10  S2  SGN d  66      19.896  29.771  32.492  0.00  0.00     0.251 S 
ATOM     11  S1  SGN d  66      17.622  37.831  30.892  0.00  0.00     0.156 S 
ATOM     12  O1S SGN d  66      16.743  38.913  31.309  0.00  0.00    -0.296 OA
ATOM     13  C1  SGN d  66      19.532  35.434  31.171  0.00  0.00     0.147 C 
ATOM     14  O3S SGN d  66      18.964  38.381  30.775  0.00  0.00    -0.296 OA
ATOM     15  C3  SGN d  66      18.581  34.777  33.408  0.00  0.00     0.083 C 
ATOM     16  O3  SGN d  66      17.352  34.576  34.103  0.00  0.00    -0.391 OA
ATOM     17  C2  SGN d  66      18.241  35.271  32.000  0.00  0.00     0.081 C 
ATOM     18  O4S SGN d  66      19.148  30.102  33.697  0.00  0.00    -0.572 OA
ATOM     19  N   SGN d  66      17.524  36.548  32.126  0.00  0.00    -0.210 NA
ATOM     20  O6  SGN d  66      20.363  31.249  31.617  0.00  0.00    -0.254 OA
ATOM     21  H   SGN d  66      18.649  32.743  32.847  0.00  0.00     0.091 H 
ATOM     22  H   SGN d  66      21.542  31.831  33.206  0.00  0.00     0.080 H 
ATOM     23  H   SGN d  66      22.121  32.317  31.621  0.00  0.00     0.080 H 
ATOM     24  H   SGN d  66      16.293  36.886  29.744  0.00  0.00     0.231 HD
ATOM     25  H   SGN d  66      21.179  36.533  31.336  0.00  0.00     0.212 HD
ATOM     26  H   SGN d  66      21.272  34.232  32.868  0.00  0.00     0.090 H 
ATOM     27  H   SGN d  66      15.837  38.577  31.396  0.00  0.00     0.231 HD
ATOM     28  H   SGN d  66      19.340  35.770  30.174  0.00  0.00     0.131 H 
ATOM     29  H   SGN d  66      19.577  37.683  30.497  0.00  0.00     0.231 HD
ATOM     30  H   SGN d  66      19.196  35.483  33.926  0.00  0.00     0.089 H 
ATOM     31  H   SGN d  66      16.809  33.934  33.620  0.00  0.00     0.210 HD
ATOM     32  H   SGN d  66      17.621  34.563  31.490  0.00  0.00     0.076 H 
ATOM     33  H   SGN d  66      16.535  36.309  32.208  0.00  0.00     0.140 HD
ATOM     34  O61 IDS d  65      18.570  36.753  37.463  0.00  0.00    -0.646 OA
ATOM     35  O3  IDS d  65      22.329  33.064  37.966  0.00  0.00    -0.390 OA
ATOM     36  C5  IDS d  65      19.214  34.609  36.627  0.00  0.00     0.152 C 
ATOM     37  C6  IDS d  65      18.142  35.637  37.077  0.00  0.00     0.206 C 
ATOM     38  O5  IDS d  65      18.530  33.359  36.305  0.00  0.00    -0.340 OA
ATOM     39  C1  IDS d  65      19.370  32.258  35.870  0.00  0.00     0.161 C 
ATOM     40  O1S IDS d  65      24.016  30.805  37.104  0.00  0.00    -0.572 OA
ATOM     41  C4  IDS d  65      20.373  34.391  37.662  0.00  0.00     0.103 C 
ATOM     42  O4  IDS d  65      19.957  35.219  38.751  0.00  0.00    -0.348 OA
ATOM     43  C2  IDS d  65      20.875  32.400  36.250  0.00  0.00     0.134 C 
ATOM     44  O62 IDS d  65      16.915  35.324  37.014  0.00  0.00    -0.646 OA
ATOM     45  C3  IDS d  65      20.982  32.970  37.628  0.00  0.00     0.094 C 
ATOM     46  O2S IDS d  65      23.560  32.444  35.434  0.00  0.00    -0.572 OA
ATOM     47  O3S IDS d  65      23.520  30.143  34.850  0.00  0.00    -0.572 OA
ATOM     48  O2  IDS d  65      21.497  31.125  36.295  0.00  0.00    -0.244 OA
ATOM     49  S   IDS d  65      23.238  31.112  35.906  0.00  0.00     0.252 S 
ATOM     50  H   IDS d  65      22.414  33.433  38.859  0.00  0.00     0.210 HD
ATOM     51  H   IDS d  65      19.711  35.002  35.765  0.00  0.00     0.104 H 
ATOM     52  H   IDS d  65      18.914  31.318  36.099  0.00  0.00     0.133 H 
ATOM     53  H   IDS d  65      21.386  34.709  37.536  0.00  0.00     0.092 H 
ATOM     54  H   IDS d  65      21.344  33.026  35.519  0.00  0.00     0.097 H 
ATOM     55  H   IDS d  65      20.457  32.339  38.315  0.00  0.00     0.091 H 
ATOM     56  O3S SGN d  62      13.808  34.625  45.507  0.00  0.00    -0.296 OA
ATOM     57  C1  SGN d  62      16.723  34.524  47.396  0.00  0.00     0.150 C 
ATOM     58  S2  SGN d  62      20.887  33.607  51.542  0.00  0.00     0.251 S 
ATOM     59  C5  SGN d  62      17.762  34.458  49.659  0.00  0.00     0.091 C 
ATOM     60  O5  SGN d  62      17.372  33.744  48.451  0.00  0.00    -0.349 OA
ATOM     61  O4S SGN d  62      20.907  32.365  52.241  0.00  0.00    -0.572 OA
ATOM     62  O6  SGN d  62      19.252  34.217  51.449  0.00  0.00    -0.254 OA
ATOM     63  O3  SGN d  62      14.919  36.838  49.706  0.00  0.00    -0.391 OA
ATOM     64  S1  SGN d  62      13.664  35.880  46.207  0.00  0.00     0.156 S 
ATOM     65  O6S SGN d  62      21.441  33.510  50.194  0.00  0.00    -0.572 OA
ATOM     66  O4  SGN d  62      16.955  35.803  51.473  0.00  0.00    -0.348 OA
ATOM     67  C6  SGN d  62      18.393  33.467  50.608  0.00  0.00     0.067 C 
ATOM     68  O5S SGN d  62      21.631  34.600  52.266  0.00  0.00    -0.572 OA
ATOM     69  O1S SGN d  62      13.364  36.971  45.303  0.00  0.00    -0.296 OA
ATOM     70  O2S SGN d  62      12.656  35.711  47.214  0.00  0.00    -0.296 OA
ATOM     71  C2  SGN d  62      15.585  35.326  48.013  0.00  0.00     0.081 C 
ATOM     72  C4  SGN d  62      16.531  35.129  50.291  0.00  0.00     0.095 C 
ATOM     73  N   SGN d  62      15.134  36.285  47.056  0.00  0.00    -0.210 NA
ATOM     74  C3  SGN d  62      16.035  36.131  49.236  0.00  0.00     0.083 C 
ATOM     75  H   SGN d  62      14.487  34.715  44.819  0.00  0.00     0.231 HD
ATOM     76  H   SGN d  62      16.385  33.819  46.666  0.00  0.00     0.131 H 
ATOM     77  H   SGN d  62      18.469  35.228  49.430  0.00  0.00     0.090 H 
ATOM     78  H   SGN d  62      14.622  37.463  49.027  0.00  0.00     0.210 HD
ATOM     79  H   SGN d  62      18.952  32.735  50.064  0.00  0.00     0.080 H 
ATOM     80  H   SGN d  62      17.650  32.945  51.176  0.00  0.00     0.080 H 
ATOM     81  H   SGN d  62      14.070  37.047  44.642  0.00  0.00     0.231 HD
ATOM     82  H   SGN d  62      12.898  34.972  47.793  0.00  0.00     0.231 HD
ATOM     83  H   SGN d  62      14.828  34.627  48.302  0.00  0.00     0.076 H 
ATOM     84  H   SGN d  62      15.756  34.441  50.558  0.00  0.00     0.091 H 
ATOM     85  H   SGN d  62      14.980  37.167  47.546  0.00  0.00     0.140 HD
ATOM     86  H   SGN d  62      16.820  36.821  49.006  0.00  0.00     0.089 H 
ATOM     87  O4  IDS d  63      17.594  35.445  46.727  0.00  0.00    -0.348 OA
ATOM     88  O62 IDS d  63      21.120  36.217  45.971  0.00  0.00    -0.646 OA
ATOM     89  C2  IDS d  63      16.653  37.134  44.296  0.00  0.00     0.134 C 
ATOM     90  O2S IDS d  63      15.506  39.990  44.709  0.00  0.00    -0.572 OA
ATOM     91  O61 IDS d  63      20.578  34.122  45.941  0.00  0.00    -0.646 OA
ATOM     92  C3  IDS d  63      16.582  35.606  44.418  0.00  0.00     0.094 C 
ATOM     93  C1  IDS d  63      18.036  37.559  43.732  0.00  0.00     0.161 C 
ATOM     94  O5  IDS d  63      19.049  37.138  44.681  0.00  0.00    -0.340 OA
ATOM     95  C4  IDS d  63      17.755  35.090  45.360  0.00  0.00     0.103 C 
ATOM     96  C6  IDS d  63      20.356  35.300  45.665  0.00  0.00     0.206 C 
ATOM     97  S   IDS d  63      16.456  39.461  45.678  0.00  0.00     0.252 S 
ATOM     98  O3  IDS d  63      16.762  35.128  43.104  0.00  0.00    -0.390 OA
ATOM     99  C5  IDS d  63      19.110  35.663  44.862  0.00  0.00     0.152 C 
ATOM    100  O2  IDS d  63      16.374  37.699  45.549  0.00  0.00    -0.244 OA
ATOM    101  O1S IDS d  63      16.084  39.770  47.047  0.00  0.00    -0.572 OA
ATOM    102  O3S IDS d  63      17.735  40.027  45.358  0.00  0.00    -0.572 OA
ATOM    103  H   IDS d  63      15.921  37.496  43.604  0.00  0.00     0.097 H 
ATOM    104  H   IDS d  63      15.660  35.269  44.844  0.00  0.00     0.091 H 
ATOM    105  H   IDS d  63      18.158  38.614  43.600  0.00  0.00     0.133 H 
ATOM    106  H   IDS d  63      17.730  34.022  45.303  0.00  0.00     0.092 H 
ATOM    107  H   IDS d  63      17.607  35.452  42.754  0.00  0.00     0.210 HD
ATOM    108  H   IDS d  63      19.234  35.164  43.924  0.00  0.00     0.104 H 
ATOM    109  O4  SGN d  64      18.147  36.902  42.432  0.00  0.00    -0.348 OA
ATOM    110  O6  SGN d  64      18.795  39.732  39.467  0.00  0.00    -0.254 OA
ATOM    111  C3  SGN d  64      20.052  35.682  41.502  0.00  0.00     0.083 C 
ATOM    112  S2  SGN d  64      20.231  40.481  40.212  0.00  0.00     0.251 S 
ATOM    113  C5  SGN d  64      18.838  37.419  40.185  0.00  0.00     0.091 C 
ATOM    114  O1S SGN d  64      24.489  34.836  41.244  0.00  0.00    -0.296 OA
ATOM    115  C2  SGN d  64      21.249  35.854  40.618  0.00  0.00     0.081 C 
ATOM    116  O4S SGN d  64      19.813  41.113  41.437  0.00  0.00    -0.572 OA
ATOM    117  O3S SGN d  64      22.904  34.559  42.987  0.00  0.00    -0.296 OA
ATOM    118  S1  SGN d  64      23.246  34.186  41.626  0.00  0.00     0.156 S 
ATOM    119  O6S SGN d  64      21.255  39.495  40.494  0.00  0.00    -0.572 OA
ATOM    120  O5S SGN d  64      20.760  41.460  39.301  0.00  0.00    -0.572 OA
ATOM    121  O3  SGN d  64      20.535  35.285  42.734  0.00  0.00    -0.391 OA
ATOM    122  C1  SGN d  64      20.782  36.273  39.249  0.00  0.00     0.150 C 
ATOM    123  O2S SGN d  64      23.365  32.756  41.540  0.00  0.00    -0.296 OA
ATOM    124  C4  SGN d  64      19.309  37.040  41.601  0.00  0.00     0.095 C 
ATOM    125  O5  SGN d  64      20.036  37.504  39.360  0.00  0.00    -0.349 OA
ATOM    126  C6  SGN d  64      18.104  38.743  40.218  0.00  0.00     0.067 C 
ATOM    127  N   SGN d  64      21.942  34.595  40.499  0.00  0.00    -0.210 NA
ATOM    128  H   SGN d  64      19.362  34.956  41.124  0.00  0.00     0.089 H 
ATOM    129  H   SGN d  64      18.157  36.693  39.789  0.00  0.00     0.090 H 
ATOM    130  H   SGN d  64      24.384  35.798  41.310  0.00  0.00     0.231 HD
ATOM    131  H   SGN d  64      21.902  36.592  41.036  0.00  0.00     0.076 H 
ATOM    132  H   SGN d  64      22.824  35.524  43.047  0.00  0.00     0.231 HD
ATOM    133  H   SGN d  64      21.159  35.949  43.066  0.00  0.00     0.210 HD
ATOM    134  H   SGN d  64      21.602  36.444  38.583  0.00  0.00     0.131 H 
ATOM    135  H   SGN d  64      24.067  32.454  42.137  0.00  0.00     0.231 HD
ATOM    136  H   SGN d  64      19.961  37.781  42.015  0.00  0.00     0.091 H 
ATOM    137  H   SGN d  64      17.127  38.610  39.804  0.00  0.00     0.080 H 
ATOM    138  H   SGN d  64      18.043  39.071  41.235  0.00  0.00     0.080 H 
ATOM    139  H   SGN d  64      22.345  34.569  39.562  0.00  0.00     0.140 HD
ATOM    140  C1  IDS d  61      16.161  35.503  52.639  0.00  0.00     0.167 C 
ATOM    141  O5  IDS d  61      14.815  36.009  52.445  0.00  0.00    -0.311 OA
ATOM    142  C5  IDS d  61      14.559  37.369  52.565  0.00  0.00     0.147 C 
ATOM    143  C6  IDS d  61      13.100  37.856  52.213  0.00  0.00     0.233 C 
ATOM    144  C2  IDS d  61      16.779  36.230  53.828  0.00  0.00     0.135 C 
ATOM    145  O1S IDS d  61      13.840  34.746  54.307  0.00  0.00    -0.572 OA
ATOM    146  O3S IDS d  61      15.718  33.340  54.865  0.00  0.00    -0.572 OA
ATOM    147  O3  IDS d  61      17.860  38.091  52.957  0.00  0.00    -0.389 OA
ATOM    148  C4  IDS d  61      15.476  38.238  53.075  0.00  0.00    -0.034 C 
ATOM    149  C3  IDS d  61      16.742  37.752  53.697  0.00  0.00     0.086 C 
ATOM    150  O61 IDS d  61      12.800  39.042  52.352  0.00  0.00    -0.642 OA
ATOM    151  O62 IDS d  61      12.240  37.028  51.825  0.00  0.00    -0.642 OA
ATOM    152  O2S IDS d  61      14.410  34.492  56.505  0.00  0.00    -0.572 OA
ATOM    153  S   IDS d  61      14.956  34.537  55.191  0.00  0.00     0.252 S 
ATOM    154  O2  IDS d  61      16.057  35.931  55.036  0.00  0.00    -0.244 OA
ATOM    155  H   IDS d  61      16.132  34.446  52.805  0.00  0.00     0.134 H 
ATOM    156  H   IDS d  61      17.794  35.892  53.858  0.00  0.00     0.097 H 
ATOM    157  H   IDS d  61      18.656  37.756  53.399  0.00  0.00     0.210 HD
ATOM    158  H   IDS d  61      15.292  39.253  53.029  0.00  0.00     0.085 H 
ATOM    159  H   IDS d  61      16.759  38.224  54.657  0.00  0.00     0.093 H 
ENDROOT
TORSDOF 50
ENDMDL
MODEL 61
REMARK VINA RESULT:      -5.2      2.957      5.809
REMARK  0 active torsions:
REMARK  status: ('A' for Active; 'I' for Inactive)
REMARK       I    between atoms: O3S_3  and  S1_55 
REMARK       I    between atoms: O3_4  and  C3_87 
REMARK       I    between atoms: O4_5  and  C1_15 
REMARK       I    between atoms: O4_5  and  C4_57 
REMARK       I    between atoms: O4_7  and  C1_36 
REMARK       I    between atoms: O4_7  and  C4_89 
REMARK       I    between atoms: C4_8  and  O4_18 
REMARK       I    between atoms: C2_9  and  O2_84 
REMARK       I    between atoms: C6_10  and  C5_32 
REMARK       I    between atoms: C6_10  and  O6_102 
REMARK       I    between atoms: O6_11  and  C6_93 
REMARK       I    between atoms: O6_11  and  S2_25 
REMARK       I    between atoms: C1_13  and  O4_74 
REMARK       I    between atoms: C3_14  and  O3_71 
REMARK       I    between atoms: O4_18  and  C1_54 
REMARK       I    between atoms: S2_19  and  O6_39 
REMARK       I    between atoms: O2S_21  and  S1_45 
REMARK       I    between atoms: C5_22  and  C6_23 
REMARK       I    between atoms: C5_24  and  C6_77 
REMARK       I    between atoms: O1_27  and  C1_48 
REMARK       I    between atoms: C5_28  and  C6_30 
REMARK       I    between atoms: C5_29  and  C6_93 
REMARK       I    between atoms: O1S_31  and  S1_44 
REMARK       I    between atoms: C3_33  and  O3_69 
REMARK       I    between atoms: C2_37  and  N_99 
REMARK       I    between atoms: S2_38  and  O6_102 
REMARK       I    between atoms: O6_39  and  C6_77 
REMARK       I    between atoms: C2_40  and  O2_103 
REMARK       I    between atoms: O3S_42  and  S1_44 
REMARK       I    between atoms: S1_44  and  N_99 
REMARK       I    between atoms: S1_44  and  O2S_81 
REMARK       I    between atoms: S1_45  and  N_94 
REMARK       I    between atoms: S1_45  and  O1S_46 
REMARK       I    between atoms: S1_45  and  O3S_58 
REMARK       I    between atoms: O3_52  and  C3_105 
REMARK       I    between atoms: S1_55  and  N_100 
REMARK       I    between atoms: S1_55  and  O1S_79 
REMARK       I    between atoms: S1_55  and  O2S_83 
REMARK       I    between atoms: O3_56  and  C3_64 
REMARK       I    between atoms: C4_60  and  O4_61 
REMARK       I    between atoms: O4_61  and  C1_73 
REMARK       I    between atoms: C6_63  and  C5_80 
REMARK       I    between atoms: C3_65  and  O3_82 
REMARK       I    between atoms: S_67  and  O2_84 
REMARK       I    between atoms: C2_68  and  O2_98 
REMARK       I    between atoms: O4_74  and  C4_97 
REMARK       I    between atoms: C2_85  and  N_94 
REMARK       I    between atoms: C2_95  and  N_100 
REMARK       I    between atoms: O2_98  and  S_104 
REMARK       I    between atoms: S_101  and  O2_103 
ROOT
ATOM      1  O6S SGN d  66      13.530  44.165  53.213  0.00  0.00    -0.572 OA
ATOM      2  C4  SGN d  66      14.928  39.594  53.404  0.00  0.00     0.095 C 
ATOM      3  C6  SGN d  66      16.129  41.495  54.550  0.00  0.00     0.067 C 
ATOM      4  O4  SGN d  66      15.758  39.813  52.168  0.00  0.00    -0.348 OA
ATOM      5  O5S SGN d  66      15.886  44.239  52.899  0.00  0.00    -0.572 OA
ATOM      6  O2S SGN d  66      11.938  36.573  57.200  0.00  0.00    -0.296 OA
ATOM      7  O5  SGN d  66      14.911  39.772  55.854  0.00  0.00    -0.350 OA
ATOM      8  O1  SGN d  66      15.609  37.478  56.068  0.00  0.00    -0.369 OA
ATOM      9  C5  SGN d  66      15.720  40.014  54.652  0.00  0.00     0.091 C 
ATOM     10  S2  SGN d  66      14.723  43.365  53.021  0.00  0.00     0.251 S 
ATOM     11  S1  SGN d  66      12.897  35.778  56.458  0.00  0.00     0.156 S 
ATOM     12  O1S SGN d  66      12.381  34.448  56.172  0.00  0.00    -0.296 OA
ATOM     13  C1  SGN d  66      14.485  38.379  56.028  0.00  0.00     0.147 C 
ATOM     14  O3S SGN d  66      14.133  35.614  57.209  0.00  0.00    -0.296 OA
ATOM     15  C3  SGN d  66      14.439  38.140  53.521  0.00  0.00     0.083 C 
ATOM     16  O3  SGN d  66      13.574  37.844  52.426  0.00  0.00    -0.391 OA
ATOM     17  C2  SGN d  66      13.622  37.995  54.808  0.00  0.00     0.081 C 
ATOM     18  O4S SGN d  66      14.558  42.543  51.831  0.00  0.00    -0.572 OA
ATOM     19  N   SGN d  66      13.159  36.604  54.899  0.00  0.00    -0.210 NA
ATOM     20  O6  SGN d  66      14.961  42.344  54.460  0.00  0.00    -0.254 OA
ATOM     21  H   SGN d  66      14.055  40.206  53.325  0.00  0.00     0.091 H 
ATOM     22  H   SGN d  66      16.732  41.634  53.677  0.00  0.00     0.080 H 
ATOM     23  H   SGN d  66      16.681  41.761  55.428  0.00  0.00     0.080 H 
ATOM     24  H   SGN d  66      11.126  36.668  56.679  0.00  0.00     0.231 HD
ATOM     25  H   SGN d  66      16.171  37.696  56.828  0.00  0.00     0.212 HD
ATOM     26  H   SGN d  66      16.614  39.430  54.719  0.00  0.00     0.090 H 
ATOM     27  H   SGN d  66      11.554  34.523  55.671  0.00  0.00     0.231 HD
ATOM     28  H   SGN d  66      13.950  38.301  56.950  0.00  0.00     0.131 H 
ATOM     29  H   SGN d  66      14.504  36.486  57.416  0.00  0.00     0.231 HD
ATOM     30  H   SGN d  66      15.282  37.482  53.525  0.00  0.00     0.089 H 
ATOM     31  H   SGN d  66      12.817  38.450  52.439  0.00  0.00     0.210 HD
ATOM     32  H   SGN d  66      12.776  38.651  54.795  0.00  0.00     0.076 H 
ATOM     33  H   SGN d  66      12.265  36.570  54.408  0.00  0.00     0.140 HD
ATOM     34  O61 IDS d  65      16.261  35.161  50.666  0.00  0.00    -0.646 OA
ATOM     35  O3  IDS d  65      19.481  39.336  50.219  0.00  0.00    -0.390 OA
ATOM     36  C5  IDS d  65      16.279  37.542  50.867  0.00  0.00     0.152 C 
ATOM     37  C6  IDS d  65      15.595  36.207  50.469  0.00  0.00     0.206 C 
ATOM     38  O5  IDS d  65      15.391  38.636  50.480  0.00  0.00    -0.340 OA
ATOM     39  C1  IDS d  65      15.862  39.979  50.762  0.00  0.00     0.161 C 
ATOM     40  O1S IDS d  65      20.426  42.076  50.757  0.00  0.00    -0.572 OA
ATOM     41  C4  IDS d  65      17.723  37.727  50.281  0.00  0.00     0.103 C 
ATOM     42  O4  IDS d  65      17.869  36.553  49.478  0.00  0.00    -0.348 OA
ATOM     43  C2  IDS d  65      17.400  40.094  50.991  0.00  0.00     0.134 C 
ATOM     44  O62 IDS d  65      14.418  36.229  49.997  0.00  0.00    -0.646 OA
ATOM     45  C3  IDS d  65      18.108  39.201  50.023  0.00  0.00     0.094 C 
ATOM     46  O2S IDS d  65      19.524  40.912  52.632  0.00  0.00    -0.572 OA
ATOM     47  O3S IDS d  65      19.004  43.207  52.325  0.00  0.00    -0.572 OA
ATOM     48  O2  IDS d  65      17.844  41.414  50.718  0.00  0.00    -0.244 OA
ATOM     49  S   IDS d  65      19.273  41.943  51.646  0.00  0.00     0.252 S 
ATOM     50  H   IDS d  65      19.954  38.761  49.597  0.00  0.00     0.210 HD
ATOM     51  H   IDS d  65      16.431  37.535  51.926  0.00  0.00     0.104 H 
ATOM     52  H   IDS d  65      15.435  40.683  50.078  0.00  0.00     0.133 H 
ATOM     53  H   IDS d  65      18.630  37.704  50.848  0.00  0.00     0.092 H 
ATOM     54  H   IDS d  65      17.604  39.826  52.006  0.00  0.00     0.097 H 
ATOM     55  H   IDS d  65      17.835  39.473  49.024  0.00  0.00     0.091 H 
ATOM     56  O3S SGN d  62      14.897  33.768  41.280  0.00  0.00    -0.296 OA
ATOM     57  C1  SGN d  62      18.293  34.016  40.586  0.00  0.00     0.150 C 
ATOM     58  S2  SGN d  62      23.636  34.684  38.062  0.00  0.00     0.251 S 
ATOM     59  C5  SGN d  62      20.134  33.687  38.941  0.00  0.00     0.091 C 
ATOM     60  O5  SGN d  62      19.219  34.599  39.614  0.00  0.00    -0.349 OA
ATOM     61  O4S SGN d  62      23.797  35.648  37.025  0.00  0.00    -0.572 OA
ATOM     62  O6  SGN d  62      22.177  33.759  37.800  0.00  0.00    -0.254 OA
ATOM     63  O3  SGN d  62      17.824  30.792  38.762  0.00  0.00    -0.391 OA
ATOM     64  S1  SGN d  62      15.182  32.369  41.057  0.00  0.00     0.156 S 
ATOM     65  O6S SGN d  62      23.593  35.282  39.394  0.00  0.00    -0.572 OA
ATOM     66  O4  SGN d  62      20.269  31.736  37.551  0.00  0.00    -0.348 OA
ATOM     67  C6  SGN d  62      20.978  34.491  37.980  0.00  0.00     0.067 C 
ATOM     68  O5S SGN d  62      24.711  33.731  38.030  0.00  0.00    -0.572 OA
ATOM     69  O1S SGN d  62      14.668  31.538  42.125  0.00  0.00    -0.296 OA
ATOM     70  O2S SGN d  62      14.646  32.008  39.776  0.00  0.00    -0.296 OA
ATOM     71  C2  SGN d  62      17.590  32.830  39.940  0.00  0.00     0.081 C 
ATOM     72  C4  SGN d  62      19.338  32.596  38.204  0.00  0.00     0.095 C 
ATOM     73  N   SGN d  62      16.903  32.099  40.957  0.00  0.00    -0.210 NA
ATOM     74  C3  SGN d  62      18.575  31.843  39.306  0.00  0.00     0.083 C 
ATOM     75  H   SGN d  62      15.250  34.037  42.142  0.00  0.00     0.231 HD
ATOM     76  H   SGN d  62      17.617  34.797  40.863  0.00  0.00     0.131 H 
ATOM     77  H   SGN d  62      20.771  33.200  39.649  0.00  0.00     0.090 H 
ATOM     78  H   SGN d  62      17.352  30.330  39.472  0.00  0.00     0.210 HD
ATOM     79  H   SGN d  62      21.190  35.456  38.390  0.00  0.00     0.080 H 
ATOM     80  H   SGN d  62      20.471  34.643  37.050  0.00  0.00     0.080 H 
ATOM     81  H   SGN d  62      15.056  31.818  42.969  0.00  0.00     0.231 HD
ATOM     82  H   SGN d  62      15.017  32.590  39.095  0.00  0.00     0.231 HD
ATOM     83  H   SGN d  62      16.940  33.222  39.186  0.00  0.00     0.076 H 
ATOM     84  H   SGN d  62      18.663  32.980  37.467  0.00  0.00     0.091 H 
ATOM     85  H   SGN d  62      17.054  31.105  40.785  0.00  0.00     0.140 HD
ATOM     86  H   SGN d  62      19.275  31.450  40.014  0.00  0.00     0.089 H 
ATOM     87  O4  IDS d  63      18.921  33.551  41.788  0.00  0.00    -0.348 OA
ATOM     88  O62 IDS d  63      21.914  33.872  43.917  0.00  0.00    -0.646 OA
ATOM     89  C2  IDS d  63      17.279  32.440  44.180  0.00  0.00     0.134 C 
ATOM     90  O2S IDS d  63      16.712  29.397  44.426  0.00  0.00    -0.572 OA
ATOM     91  O61 IDS d  63      21.179  35.703  43.028  0.00  0.00    -0.646 OA
ATOM     92  C3  IDS d  63      17.097  33.811  43.516  0.00  0.00     0.094 C 
ATOM     93  C1  IDS d  63      18.361  32.527  45.291  0.00  0.00     0.161 C 
ATOM     94  O5  IDS d  63      19.616  32.890  44.660  0.00  0.00    -0.340 OA
ATOM     95  C4  IDS d  63      18.483  34.303  42.913  0.00  0.00     0.103 C 
ATOM     96  C6  IDS d  63      20.996  34.632  43.604  0.00  0.00     0.206 C 
ATOM     97  S   IDS d  63      17.906  29.840  43.718  0.00  0.00     0.252 S 
ATOM     98  O3  IDS d  63      16.684  34.668  44.559  0.00  0.00    -0.390 OA
ATOM     99  C5  IDS d  63      19.581  34.227  44.008  0.00  0.00     0.152 C 
ATOM    100  O2  IDS d  63      17.587  31.497  43.188  0.00  0.00    -0.244 OA
ATOM    101  O1S IDS d  63      18.147  29.081  42.504  0.00  0.00    -0.572 OA
ATOM    102  O3S IDS d  63      19.005  29.704  44.630  0.00  0.00    -0.572 OA
ATOM    103  H   IDS d  63      16.377  32.126  44.661  0.00  0.00     0.097 H 
ATOM    104  H   IDS d  63      16.389  33.789  42.714  0.00  0.00     0.091 H 
ATOM    105  H   IDS d  63      18.535  31.611  45.816  0.00  0.00     0.133 H 
ATOM    106  H   IDS d  63      18.321  35.307  42.581  0.00  0.00     0.092 H 
ATOM    107  H   IDS d  63      17.350  34.661  45.264  0.00  0.00     0.210 HD
ATOM    108  H   IDS d  63      19.266  34.983  44.696  0.00  0.00     0.104 H 
ATOM    109  O4  SGN d  64      17.872  33.529  46.235  0.00  0.00    -0.348 OA
ATOM    110  O6  SGN d  64      17.590  31.879  50.032  0.00  0.00    -0.254 OA
ATOM    111  C3  SGN d  64      19.103  35.373  47.270  0.00  0.00     0.083 C 
ATOM    112  S2  SGN d  64      19.277  31.310  50.131  0.00  0.00     0.251 S 
ATOM    113  C5  SGN d  64      17.662  33.841  48.612  0.00  0.00     0.091 C 
ATOM    114  O1S SGN d  64      22.947  37.273  48.709  0.00  0.00    -0.296 OA
ATOM    115  C2  SGN d  64      19.859  35.741  48.509  0.00  0.00     0.081 C 
ATOM    116  O4S SGN d  64      19.453  30.280  49.140  0.00  0.00    -0.572 OA
ATOM    117  O3S SGN d  64      22.168  36.671  46.551  0.00  0.00    -0.296 OA
ATOM    118  S1  SGN d  64      21.897  37.480  47.725  0.00  0.00     0.156 S 
ATOM    119  O6S SGN d  64      20.213  32.388  49.890  0.00  0.00    -0.572 OA
ATOM    120  O5S SGN d  64      19.503  30.778  51.448  0.00  0.00    -0.572 OA
ATOM    121  O3  SGN d  64      19.989  35.510  46.219  0.00  0.00    -0.391 OA
ATOM    122  C1  SGN d  64      18.934  35.626  49.692  0.00  0.00     0.150 C 
ATOM    123  O2S SGN d  64      21.814  38.863  47.342  0.00  0.00    -0.296 OA
ATOM    124  C4  SGN d  64      18.614  33.907  47.404  0.00  0.00     0.095 C 
ATOM    125  O5  SGN d  64      18.434  34.274  49.770  0.00  0.00    -0.349 OA
ATOM    126  C6  SGN d  64      17.152  32.427  48.796  0.00  0.00     0.067 C 
ATOM    127  N   SGN d  64      20.305  37.109  48.409  0.00  0.00    -0.210 NA
ATOM    128  H   SGN d  64      18.244  35.992  47.112  0.00  0.00     0.089 H 
ATOM    129  H   SGN d  64      16.805  34.467  48.474  0.00  0.00     0.090 H 
ATOM    130  H   SGN d  64      22.984  36.335  48.951  0.00  0.00     0.231 HD
ATOM    131  H   SGN d  64      20.701  35.091  48.623  0.00  0.00     0.076 H 
ATOM    132  H   SGN d  64      22.225  35.737  46.808  0.00  0.00     0.231 HD
ATOM    133  H   SGN d  64      20.763  34.945  46.373  0.00  0.00     0.210 HD
ATOM    134  H   SGN d  64      19.434  35.846  50.612  0.00  0.00     0.131 H 
ATOM    135  H   SGN d  64      22.658  39.141  46.955  0.00  0.00     0.231 HD
ATOM    136  H   SGN d  64      19.454  33.254  47.523  0.00  0.00     0.091 H 
ATOM    137  H   SGN d  64      16.083  32.437  48.779  0.00  0.00     0.080 H 
ATOM    138  H   SGN d  64      17.537  31.822  48.002  0.00  0.00     0.080 H 
ATOM    139  H   SGN d  64      20.296  37.491  49.355  0.00  0.00     0.140 HD
ATOM    140  C1  IDS d  61      19.977  31.503  36.158  0.00  0.00     0.167 C 
ATOM    141  O5  IDS d  61      18.730  30.770  36.047  0.00  0.00    -0.311 OA
ATOM    142  C5  IDS d  61      18.694  29.411  36.329  0.00  0.00     0.147 C 
ATOM    143  C6  IDS d  61      17.278  28.714  36.310  0.00  0.00     0.233 C 
ATOM    144  C2  IDS d  61      21.094  30.637  35.584  0.00  0.00     0.135 C 
ATOM    145  O1S IDS d  61      18.446  31.195  33.649  0.00  0.00    -0.572 OA
ATOM    146  O3S IDS d  61      20.224  32.787  33.309  0.00  0.00    -0.572 OA
ATOM    147  O3  IDS d  61      21.935  29.403  37.362  0.00  0.00    -0.389 OA
ATOM    148  C4  IDS d  61      19.827  28.674  36.499  0.00  0.00    -0.034 C 
ATOM    149  C3  IDS d  61      21.174  29.248  36.217  0.00  0.00     0.086 C 
ATOM    150  O61 IDS d  61      17.190  27.500  36.500  0.00  0.00    -0.642 OA
ATOM    151  O62 IDS d  61      16.249  29.391  36.067  0.00  0.00    -0.642 OA
ATOM    152  O2S IDS d  61      19.813  30.948  31.834  0.00  0.00    -0.572 OA
ATOM    153  S   IDS d  61      19.791  31.403  33.182  0.00  0.00     0.252 S 
ATOM    154  O2  IDS d  61      20.885  30.408  34.179  0.00  0.00    -0.244 OA
ATOM    155  H   IDS d  61      19.901  32.433  35.635  0.00  0.00     0.134 H 
ATOM    156  H   IDS d  61      21.993  31.182  35.785  0.00  0.00     0.097 H 
ATOM    157  H   IDS d  61      22.799  29.778  37.129  0.00  0.00     0.210 HD
ATOM    158  H   IDS d  61      19.753  27.699  36.830  0.00  0.00     0.085 H 
ATOM    159  H   IDS d  61      21.624  28.544  35.549  0.00  0.00     0.093 H 
ENDROOT
TORSDOF 50
ENDMDL
MODEL 62
REMARK VINA RESULT:      -5.1      4.626     15.197
REMARK  0 active torsions:
REMARK  status: ('A' for Active; 'I' for Inactive)
REMARK       I    between atoms: O3S_3  and  S1_55 
REMARK       I    between atoms: O3_4  and  C3_87 
REMARK       I    between atoms: O4_5  and  C1_15 
REMARK       I    between atoms: O4_5  and  C4_57 
REMARK       I    between atoms: O4_7  and  C1_36 
REMARK       I    between atoms: O4_7  and  C4_89 
REMARK       I    between atoms: C4_8  and  O4_18 
REMARK       I    between atoms: C2_9  and  O2_84 
REMARK       I    between atoms: C6_10  and  C5_32 
REMARK       I    between atoms: C6_10  and  O6_102 
REMARK       I    between atoms: O6_11  and  C6_93 
REMARK       I    between atoms: O6_11  and  S2_25 
REMARK       I    between atoms: C1_13  and  O4_74 
REMARK       I    between atoms: C3_14  and  O3_71 
REMARK       I    between atoms: O4_18  and  C1_54 
REMARK       I    between atoms: S2_19  and  O6_39 
REMARK       I    between atoms: O2S_21  and  S1_45 
REMARK       I    between atoms: C5_22  and  C6_23 
REMARK       I    between atoms: C5_24  and  C6_77 
REMARK       I    between atoms: O1_27  and  C1_48 
REMARK       I    between atoms: C5_28  and  C6_30 
REMARK       I    between atoms: C5_29  and  C6_93 
REMARK       I    between atoms: O1S_31  and  S1_44 
REMARK       I    between atoms: C3_33  and  O3_69 
REMARK       I    between atoms: C2_37  and  N_99 
REMARK       I    between atoms: S2_38  and  O6_102 
REMARK       I    between atoms: O6_39  and  C6_77 
REMARK       I    between atoms: C2_40  and  O2_103 
REMARK       I    between atoms: O3S_42  and  S1_44 
REMARK       I    between atoms: S1_44  and  N_99 
REMARK       I    between atoms: S1_44  and  O2S_81 
REMARK       I    between atoms: S1_45  and  N_94 
REMARK       I    between atoms: S1_45  and  O1S_46 
REMARK       I    between atoms: S1_45  and  O3S_58 
REMARK       I    between atoms: O3_52  and  C3_105 
REMARK       I    between atoms: S1_55  and  N_100 
REMARK       I    between atoms: S1_55  and  O1S_79 
REMARK       I    between atoms: S1_55  and  O2S_83 
REMARK       I    between atoms: O3_56  and  C3_64 
REMARK       I    between atoms: C4_60  and  O4_61 
REMARK       I    between atoms: O4_61  and  C1_73 
REMARK       I    between atoms: C6_63  and  C5_80 
REMARK       I    between atoms: C3_65  and  O3_82 
REMARK       I    between atoms: S_67  and  O2_84 
REMARK       I    between atoms: C2_68  and  O2_98 
REMARK       I    between atoms: O4_74  and  C4_97 
REMARK       I    between atoms: C2_85  and  N_94 
REMARK       I    between atoms: C2_95  and  N_100 
REMARK       I    between atoms: O2_98  and  S_104 
REMARK       I    between atoms: S_101  and  O2_103 
ROOT
ATOM      1  O6S SGN d  66      22.509  43.995  33.639  0.00  0.00    -0.572 OA
ATOM      2  C4  SGN d  66      21.192  39.401  33.406  0.00  0.00     0.095 C 
ATOM      3  C6  SGN d  66      19.791  41.325  32.564  0.00  0.00     0.067 C 
ATOM      4  O4  SGN d  66      20.557  39.531  34.764  0.00  0.00    -0.348 OA
ATOM      5  O5S SGN d  66      20.228  43.984  34.312  0.00  0.00    -0.572 OA
ATOM      6  O2S SGN d  66      23.627  36.672  29.036  0.00  0.00    -0.296 OA
ATOM      7  O5  SGN d  66      20.830  39.708  30.996  0.00  0.00    -0.350 OA
ATOM      8  O1  SGN d  66      20.155  37.410  30.761  0.00  0.00    -0.369 OA
ATOM      9  C5  SGN d  66      20.210  39.864  32.318  0.00  0.00     0.091 C 
ATOM     10  S2  SGN d  66      21.377  43.152  33.965  0.00  0.00     0.251 S 
ATOM     11  S1  SGN d  66      22.809  35.812  29.869  0.00  0.00     0.156 S 
ATOM     12  O1S SGN d  66      23.390  34.484  29.997  0.00  0.00    -0.296 OA
ATOM     13  C1  SGN d  66      21.253  38.340  30.681  0.00  0.00     0.147 C 
ATOM     14  O3S SGN d  66      21.477  35.652  29.306  0.00  0.00    -0.296 OA
ATOM     15  C3  SGN d  66      21.687  37.971  33.134  0.00  0.00     0.083 C 
ATOM     16  O3  SGN d  66      22.716  37.642  34.067  0.00  0.00    -0.391 OA
ATOM     17  C2  SGN d  66      22.300  37.917  31.732  0.00  0.00     0.081 C 
ATOM     18  O4S SGN d  66      21.739  42.273  35.069  0.00  0.00    -0.572 OA
ATOM     19  N   SGN d  66      22.773  36.546  31.493  0.00  0.00    -0.210 NA
ATOM     20  O6  SGN d  66      20.942  42.201  32.524  0.00  0.00    -0.254 OA
ATOM     21  H   SGN d  66      22.055  40.034  33.386  0.00  0.00     0.091 H 
ATOM     22  H   SGN d  66      19.327  41.400  33.525  0.00  0.00     0.080 H 
ATOM     23  H   SGN d  66      19.107  41.621  31.796  0.00  0.00     0.080 H 
ATOM     24  H   SGN d  66      24.507  36.763  29.432  0.00  0.00     0.231 HD
ATOM     25  H   SGN d  66      19.479  37.651  30.109  0.00  0.00     0.212 HD
ATOM     26  H   SGN d  66      19.329  39.258  32.355  0.00  0.00     0.090 H 
ATOM     27  H   SGN d  66      24.283  34.557  30.371  0.00  0.00     0.231 HD
ATOM     28  H   SGN d  66      21.642  38.325  29.685  0.00  0.00     0.131 H 
ATOM     29  H   SGN d  66      21.060  36.522  29.207  0.00  0.00     0.231 HD
ATOM     30  H   SGN d  66      20.868  37.289  33.221  0.00  0.00     0.089 H 
ATOM     31  H   SGN d  66      23.449  38.269  33.973  0.00  0.00     0.210 HD
ATOM     32  H   SGN d  66      23.124  38.596  31.653  0.00  0.00     0.076 H 
ATOM     33  H   SGN d  66      23.731  36.513  31.840  0.00  0.00     0.140 HD
ATOM     34  O61 IDS d  65      20.386  34.794  36.060  0.00  0.00    -0.646 OA
ATOM     35  O3  IDS d  65      17.187  38.845  37.226  0.00  0.00    -0.390 OA
ATOM     36  C5  IDS d  65      20.288  37.181  35.999  0.00  0.00     0.152 C 
ATOM     37  C6  IDS d  65      21.052  35.847  36.212  0.00  0.00     0.206 C 
ATOM     38  O5  IDS d  65      21.202  38.278  36.308  0.00  0.00    -0.340 OA
ATOM     39  C1  IDS d  65      20.666  39.620  36.177  0.00  0.00     0.161 C 
ATOM     40  O1S IDS d  65      16.115  41.581  36.992  0.00  0.00    -0.572 OA
ATOM     41  C4  IDS d  65      18.947  37.293  36.806  0.00  0.00     0.103 C 
ATOM     42  O4  IDS d  65      18.950  36.074  37.554  0.00  0.00    -0.348 OA
ATOM     43  C2  IDS d  65      19.110  39.702  36.190  0.00  0.00     0.134 C 
ATOM     44  O62 IDS d  65      22.286  35.878  36.501  0.00  0.00    -0.646 OA
ATOM     45  C3  IDS d  65      18.576  38.740  37.203  0.00  0.00     0.094 C 
ATOM     46  O2S IDS d  65      16.743  40.544  34.939  0.00  0.00    -0.572 OA
ATOM     47  O3S IDS d  65      17.257  42.834  35.292  0.00  0.00    -0.572 OA
ATOM     48  O2  IDS d  65      18.685  40.993  36.601  0.00  0.00    -0.244 OA
ATOM     49  S   IDS d  65      17.121  41.529  35.933  0.00  0.00     0.252 S 
ATOM     50  H   IDS d  65      16.827  38.225  37.879  0.00  0.00     0.210 HD
ATOM     51  H   IDS d  65      19.976  37.225  34.977  0.00  0.00     0.104 H 
ATOM     52  H   IDS d  65      21.178  40.299  36.827  0.00  0.00     0.133 H 
ATOM     53  H   IDS d  65      17.965  37.274  36.384  0.00  0.00     0.092 H 
ATOM     54  H   IDS d  65      18.758  39.483  35.204  0.00  0.00     0.097 H 
ATOM     55  H   IDS d  65      18.993  38.967  38.162  0.00  0.00     0.091 H 
ATOM     56  O3S SGN d  62      23.199  32.949  45.037  0.00  0.00    -0.296 OA
ATOM     57  C1  SGN d  62      19.945  33.062  46.251  0.00  0.00     0.150 C 
ATOM     58  S2  SGN d  62      15.039  33.443  49.590  0.00  0.00     0.251 S 
ATOM     59  C5  SGN d  62      18.385  32.595  48.135  0.00  0.00     0.091 C 
ATOM     60  O5  SGN d  62      19.167  33.566  47.383  0.00  0.00    -0.349 OA
ATOM     61  O4S SGN d  62      15.019  34.346  50.692  0.00  0.00    -0.572 OA
ATOM     62  O6  SGN d  62      16.539  32.547  49.575  0.00  0.00    -0.254 OA
ATOM     63  O3  SGN d  62      20.753  29.761  47.798  0.00  0.00    -0.391 OA
ATOM     64  S1  SGN d  62      22.980  31.533  45.221  0.00  0.00     0.156 S 
ATOM     65  O6S SGN d  62      14.865  34.111  48.303  0.00  0.00    -0.572 OA
ATOM     66  O4  SGN d  62      18.504  30.570  49.417  0.00  0.00    -0.348 OA
ATOM     67  C6  SGN d  62      17.682  33.322  49.256  0.00  0.00     0.067 C 
ATOM     68  O5S SGN d  62      14.001  32.458  49.731  0.00  0.00    -0.572 OA
ATOM     69  O1S SGN d  62      23.341  30.774  44.042  0.00  0.00    -0.296 OA
ATOM     70  O2S SGN d  62      23.713  31.121  46.383  0.00  0.00    -0.296 OA
ATOM     71  C2  SGN d  62      20.763  31.865  46.715  0.00  0.00     0.081 C 
ATOM     72  C4  SGN d  62      19.306  31.490  48.680  0.00  0.00     0.095 C 
ATOM     73  N   SGN d  62      21.300  31.209  45.566  0.00  0.00    -0.210 NA
ATOM     74  C3  SGN d  62      19.906  30.818  47.434  0.00  0.00     0.083 C 
ATOM     75  H   SGN d  62      22.712  33.253  44.255  0.00  0.00     0.231 HD
ATOM     76  H   SGN d  62      20.554  33.877  45.919  0.00  0.00     0.131 H 
ATOM     77  H   SGN d  62      17.657  32.128  47.505  0.00  0.00     0.090 H 
ATOM     78  H   SGN d  62      21.121  29.352  46.999  0.00  0.00     0.210 HD
ATOM     79  H   SGN d  62      17.390  34.301  48.938  0.00  0.00     0.080 H 
ATOM     80  H   SGN d  62      18.322  33.440  50.106  0.00  0.00     0.080 H 
ATOM     81  H   SGN d  62      22.823  31.087  43.284  0.00  0.00     0.231 HD
ATOM     82  H   SGN d  62      23.439  31.655  47.145  0.00  0.00     0.231 HD
ATOM     83  H   SGN d  62      21.512  32.235  47.382  0.00  0.00     0.076 H 
ATOM     84  H   SGN d  62      20.078  31.853  49.327  0.00  0.00     0.091 H 
ATOM     85  H   SGN d  62      21.198  30.203  45.703  0.00  0.00     0.140 HD
ATOM     86  H   SGN d  62      19.115  30.443  46.819  0.00  0.00     0.089 H 
ATOM     87  O4  IDS d  63      19.150  32.644  45.134  0.00  0.00    -0.348 OA
ATOM     88  O62 IDS d  63      15.860  32.989  43.505  0.00  0.00    -0.646 OA
ATOM     89  C2  IDS d  63      20.428  31.708  42.461  0.00  0.00     0.134 C 
ATOM     90  O2S IDS d  63      21.013  28.699  41.962  0.00  0.00    -0.572 OA
ATOM     91  O61 IDS d  63      16.685  34.792  44.374  0.00  0.00    -0.646 OA
ATOM     92  C3  IDS d  63      20.682  33.047  43.166  0.00  0.00     0.094 C 
ATOM     93  C1  IDS d  63      19.187  31.822  41.534  0.00  0.00     0.161 C 
ATOM     94  O5  IDS d  63      18.037  32.115  42.367  0.00  0.00    -0.340 OA
ATOM     95  C4  IDS d  63      19.395  33.465  43.999  0.00  0.00     0.103 C 
ATOM     96  C6  IDS d  63      16.799  33.758  43.718  0.00  0.00     0.206 C 
ATOM     97  S   IDS d  63      19.933  29.070  42.866  0.00  0.00     0.252 S 
ATOM     98  O3  IDS d  63      20.912  33.968  42.123  0.00  0.00    -0.390 OA
ATOM     99  C5  IDS d  63      18.144  33.416  43.081  0.00  0.00     0.152 C 
ATOM    100  O2  IDS d  63      20.296  30.705  43.434  0.00  0.00    -0.244 OA
ATOM    101  O1S IDS d  63      19.897  28.242  44.057  0.00  0.00    -0.572 OA
ATOM    102  O3S IDS d  63      18.711  28.950  42.125  0.00  0.00    -0.572 OA
ATOM    103  H   IDS d  63      21.253  31.445  41.832  0.00  0.00     0.097 H 
ATOM    104  H   IDS d  63      21.505  33.002  43.850  0.00  0.00     0.091 H 
ATOM    105  H   IDS d  63      18.954  30.930  40.991  0.00  0.00     0.133 H 
ATOM    106  H   IDS d  63      19.585  34.455  44.359  0.00  0.00     0.092 H 
ATOM    107  H   IDS d  63      20.147  33.980  41.527  0.00  0.00     0.210 HD
ATOM    108  H   IDS d  63      18.334  34.216  42.398  0.00  0.00     0.104 H 
ATOM    109  O4  SGN d  64      19.506  32.886  40.585  0.00  0.00    -0.348 OA
ATOM    110  O6  SGN d  64      19.236  31.446  36.703  0.00  0.00    -0.254 OA
ATOM    111  C3  SGN d  64      18.094  34.745  39.855  0.00  0.00     0.083 C 
ATOM    112  S2  SGN d  64      17.566  30.835  36.828  0.00  0.00     0.251 S 
ATOM    113  C5  SGN d  64      19.343  33.328  38.225  0.00  0.00     0.091 C 
ATOM    114  O1S SGN d  64      14.036  36.607  39.125  0.00  0.00    -0.296 OA
ATOM    115  C2  SGN d  64      17.149  35.156  38.768  0.00  0.00     0.081 C 
ATOM    116  O4S SGN d  64      17.565  29.750  37.775  0.00  0.00    -0.572 OA
ATOM    117  O3S SGN d  64      15.148  35.914  41.103  0.00  0.00    -0.296 OA
ATOM    118  S1  SGN d  64      15.220  36.792  39.948  0.00  0.00     0.156 S 
ATOM    119  O6S SGN d  64      16.656  31.872  37.270  0.00  0.00    -0.572 OA
ATOM    120  O5S SGN d  64      17.153  30.367  35.533  0.00  0.00    -0.572 OA
ATOM    121  O3  SGN d  64      17.375  34.801  41.034  0.00  0.00    -0.391 OA
ATOM    122  C1  SGN d  64      17.884  35.130  37.453  0.00  0.00     0.150 C 
ATOM    123  O2S SGN d  64      15.332  38.154  40.391  0.00  0.00    -0.296 OA
ATOM    124  C4  SGN d  64      18.586  33.303  39.565  0.00  0.00     0.095 C 
ATOM    125  O5  SGN d  64      18.394  33.799  37.224  0.00  0.00    -0.349 OA
ATOM    126  C6  SGN d  64      19.847  31.941  37.886  0.00  0.00     0.067 C 
ATOM    127  N   SGN d  64      16.696  36.504  39.011  0.00  0.00    -0.210 NA
ATOM    128  H   SGN d  64      18.953  35.380  39.915  0.00  0.00     0.089 H 
ATOM    129  H   SGN d  64      20.198  33.970  38.267  0.00  0.00     0.090 H 
ATOM    130  H   SGN d  64      13.982  35.682  38.839  0.00  0.00     0.231 HD
ATOM    131  H   SGN d  64      16.313  34.488  38.746  0.00  0.00     0.076 H 
ATOM    132  H   SGN d  64      15.072  34.994  40.805  0.00  0.00     0.231 HD
ATOM    133  H   SGN d  64      16.599  34.223  40.967  0.00  0.00     0.210 HD
ATOM    134  H   SGN d  64      17.245  35.383  36.633  0.00  0.00     0.131 H 
ATOM    135  H   SGN d  64      14.552  38.388  40.917  0.00  0.00     0.231 HD
ATOM    136  H   SGN d  64      17.751  32.633  39.538  0.00  0.00     0.091 H 
ATOM    137  H   SGN d  64      20.906  31.981  37.742  0.00  0.00     0.080 H 
ATOM    138  H   SGN d  64      19.600  31.285  38.694  0.00  0.00     0.080 H 
ATOM    139  H   SGN d  64      16.552  36.934  38.097  0.00  0.00     0.140 HD
ATOM    140  C1  IDS d  61      19.010  30.272  50.734  0.00  0.00     0.167 C 
ATOM    141  O5  IDS d  61      20.275  29.571  50.613  0.00  0.00    -0.311 OA
ATOM    142  C5  IDS d  61      20.295  28.230  50.253  0.00  0.00     0.147 C 
ATOM    143  C6  IDS d  61      21.711  27.574  50.018  0.00  0.00     0.233 C 
ATOM    144  C2  IDS d  61      18.013  29.346  51.422  0.00  0.00     0.135 C 
ATOM    145  O1S IDS d  61      20.914  29.878  52.961  0.00  0.00    -0.572 OA
ATOM    146  O3S IDS d  61      19.177  31.397  53.655  0.00  0.00    -0.572 OA
ATOM    147  O3  IDS d  61      16.935  28.183  49.725  0.00  0.00    -0.389 OA
ATOM    148  C4  IDS d  61      19.164  27.471  50.215  0.00  0.00    -0.034 C 
ATOM    149  C3  IDS d  61      17.865  27.991  50.731  0.00  0.00     0.086 C 
ATOM    150  O61 IDS d  61      21.794  26.375  49.748  0.00  0.00    -0.642 OA
ATOM    151  O62 IDS d  61      22.751  28.267  50.139  0.00  0.00    -0.642 OA
ATOM    152  O2S IDS d  61      19.847  29.496  54.945  0.00  0.00    -0.572 OA
ATOM    153  S   IDS d  61      19.652  30.022  53.637  0.00  0.00     0.252 S 
ATOM    154  O2  IDS d  61      18.439  29.049  52.763  0.00  0.00    -0.244 OA
ATOM    155  H   IDS d  61      19.146  31.176  51.292  0.00  0.00     0.134 H 
ATOM    156  H   IDS d  61      17.083  29.875  51.390  0.00  0.00     0.097 H 
ATOM    157  H   IDS d  61      16.109  28.520  50.107  0.00  0.00     0.210 HD
ATOM    158  H   IDS d  61      19.207  26.518  49.822  0.00  0.00     0.085 H 
ATOM    159  H   IDS d  61      17.537  27.240  51.419  0.00  0.00     0.093 H 
ENDROOT
TORSDOF 50
ENDMDL
MODEL 63
REMARK VINA RESULT:      -5.1      3.672     16.473
REMARK  0 active torsions:
REMARK  status: ('A' for Active; 'I' for Inactive)
REMARK       I    between atoms: O3S_3  and  S1_55 
REMARK       I    between atoms: O3_4  and  C3_87 
REMARK       I    between atoms: O4_5  and  C1_15 
REMARK       I    between atoms: O4_5  and  C4_57 
REMARK       I    between atoms: O4_7  and  C1_36 
REMARK       I    between atoms: O4_7  and  C4_89 
REMARK       I    between atoms: C4_8  and  O4_18 
REMARK       I    between atoms: C2_9  and  O2_84 
REMARK       I    between atoms: C6_10  and  C5_32 
REMARK       I    between atoms: C6_10  and  O6_102 
REMARK       I    between atoms: O6_11  and  C6_93 
REMARK       I    between atoms: O6_11  and  S2_25 
REMARK       I    between atoms: C1_13  and  O4_74 
REMARK       I    between atoms: C3_14  and  O3_71 
REMARK       I    between atoms: O4_18  and  C1_54 
REMARK       I    between atoms: S2_19  and  O6_39 
REMARK       I    between atoms: O2S_21  and  S1_45 
REMARK       I    between atoms: C5_22  and  C6_23 
REMARK       I    between atoms: C5_24  and  C6_77 
REMARK       I    between atoms: O1_27  and  C1_48 
REMARK       I    between atoms: C5_28  and  C6_30 
REMARK       I    between atoms: C5_29  and  C6_93 
REMARK       I    between atoms: O1S_31  and  S1_44 
REMARK       I    between atoms: C3_33  and  O3_69 
REMARK       I    between atoms: C2_37  and  N_99 
REMARK       I    between atoms: S2_38  and  O6_102 
REMARK       I    between atoms: O6_39  and  C6_77 
REMARK       I    between atoms: C2_40  and  O2_103 
REMARK       I    between atoms: O3S_42  and  S1_44 
REMARK       I    between atoms: S1_44  and  N_99 
REMARK       I    between atoms: S1_44  and  O2S_81 
REMARK       I    between atoms: S1_45  and  N_94 
REMARK       I    between atoms: S1_45  and  O1S_46 
REMARK       I    between atoms: S1_45  and  O3S_58 
REMARK       I    between atoms: O3_52  and  C3_105 
REMARK       I    between atoms: S1_55  and  N_100 
REMARK       I    between atoms: S1_55  and  O1S_79 
REMARK       I    between atoms: S1_55  and  O2S_83 
REMARK       I    between atoms: O3_56  and  C3_64 
REMARK       I    between atoms: C4_60  and  O4_61 
REMARK       I    between atoms: O4_61  and  C1_73 
REMARK       I    between atoms: C6_63  and  C5_80 
REMARK       I    between atoms: C3_65  and  O3_82 
REMARK       I    between atoms: S_67  and  O2_84 
REMARK       I    between atoms: C2_68  and  O2_98 
REMARK       I    between atoms: O4_74  and  C4_97 
REMARK       I    between atoms: C2_85  and  N_94 
REMARK       I    between atoms: C2_95  and  N_100 
REMARK       I    between atoms: O2_98  and  S_104 
REMARK       I    between atoms: S_101  and  O2_103 
ROOT
ATOM      1  O6S SGN d  66      22.329  37.780  30.662  0.00  0.00    -0.572 OA
ATOM      2  C4  SGN d  66      19.467  35.719  33.895  0.00  0.00     0.095 C 
ATOM      3  C6  SGN d  66      18.646  37.088  31.939  0.00  0.00     0.067 C 
ATOM      4  O4  SGN d  66      19.546  36.965  34.736  0.00  0.00    -0.348 OA
ATOM      5  O5S SGN d  66      20.698  39.435  31.170  0.00  0.00    -0.572 OA
ATOM      6  O2S SGN d  66      18.701  30.164  32.879  0.00  0.00    -0.296 OA
ATOM      7  O5  SGN d  66      18.278  34.636  32.039  0.00  0.00    -0.350 OA
ATOM      8  O1  SGN d  66      16.784  33.543  33.576  0.00  0.00    -0.369 OA
ATOM      9  C5  SGN d  66      18.364  35.867  32.835  0.00  0.00     0.091 C 
ATOM     10  S2  SGN d  66      21.212  38.115  31.523  0.00  0.00     0.251 S 
ATOM     11  S1  SGN d  66      18.051  30.624  34.091  0.00  0.00     0.156 S 
ATOM     12  O1S SGN d  66      18.108  29.617  35.141  0.00  0.00    -0.296 OA
ATOM     13  C1  SGN d  66      18.005  33.426  32.820  0.00  0.00     0.147 C 
ATOM     14  O3S SGN d  66      16.648  30.923  33.851  0.00  0.00    -0.296 OA
ATOM     15  C3  SGN d  66      19.249  34.459  34.750  0.00  0.00     0.083 C 
ATOM     16  O3  SGN d  66      20.375  34.269  35.606  0.00  0.00    -0.391 OA
ATOM     17  C2  SGN d  66      19.161  33.243  33.824  0.00  0.00     0.081 C 
ATOM     18  O4S SGN d  66      21.652  38.078  32.910  0.00  0.00    -0.572 OA
ATOM     19  N   SGN d  66      18.960  32.049  34.658  0.00  0.00    -0.210 NA
ATOM     20  O6  SGN d  66      19.908  36.935  31.248  0.00  0.00    -0.254 OA
ATOM     21  H   SGN d  66      20.408  35.597  33.402  0.00  0.00     0.091 H 
ATOM     22  H   SGN d  66      18.683  37.968  32.547  0.00  0.00     0.080 H 
ATOM     23  H   SGN d  66      17.864  37.170  31.213  0.00  0.00     0.080 H 
ATOM     24  H   SGN d  66      19.633  29.972  33.065  0.00  0.00     0.231 HD
ATOM     25  H   SGN d  66      16.037  33.659  32.969  0.00  0.00     0.212 HD
ATOM     26  H   SGN d  66      17.424  36.026  33.321  0.00  0.00     0.090 H 
ATOM     27  H   SGN d  66      19.034  29.394  35.325  0.00  0.00     0.231 HD
ATOM     28  H   SGN d  66      17.912  32.601  32.146  0.00  0.00     0.131 H 
ATOM     29  H   SGN d  66      16.575  31.593  33.153  0.00  0.00     0.231 HD
ATOM     30  H   SGN d  66      18.354  34.570  35.324  0.00  0.00     0.089 H 
ATOM     31  H   SGN d  66      21.176  34.170  35.068  0.00  0.00     0.210 HD
ATOM     32  H   SGN d  66      20.063  33.132  33.258  0.00  0.00     0.076 H 
ATOM     33  H   SGN d  66      19.892  31.713  34.900  0.00  0.00     0.140 HD
ATOM     34  O61 IDS d  65      18.222  35.118  39.093  0.00  0.00    -0.646 OA
ATOM     35  O3  IDS d  65      17.503  39.914  36.976  0.00  0.00    -0.390 OA
ATOM     36  C5  IDS d  65      18.980  36.508  37.303  0.00  0.00     0.152 C 
ATOM     37  C6  IDS d  65      19.224  35.450  38.411  0.00  0.00     0.206 C 
ATOM     38  O5  IDS d  65      20.269  36.824  36.692  0.00  0.00    -0.340 OA
ATOM     39  C1  IDS d  65      20.254  37.812  35.629  0.00  0.00     0.161 C 
ATOM     40  O1S IDS d  65      17.503  41.937  34.832  0.00  0.00    -0.572 OA
ATOM     41  C4  IDS d  65      18.236  37.799  37.795  0.00  0.00     0.103 C 
ATOM     42  O4  IDS d  65      18.107  37.548  39.197  0.00  0.00    -0.348 OA
ATOM     43  C2  IDS d  65      18.990  38.723  35.607  0.00  0.00     0.134 C 
ATOM     44  O62 IDS d  65      20.385  34.963  38.561  0.00  0.00    -0.646 OA
ATOM     45  C3  IDS d  65      18.615  39.076  37.011  0.00  0.00     0.094 C 
ATOM     46  O2S IDS d  65      16.801  39.752  34.184  0.00  0.00    -0.572 OA
ATOM     47  O3S IDS d  65      18.207  41.001  32.736  0.00  0.00    -0.572 OA
ATOM     48  O2  IDS d  65      19.274  39.948  34.949  0.00  0.00    -0.244 OA
ATOM     49  S   IDS d  65      17.885  40.713  34.131  0.00  0.00     0.252 S 
ATOM     50  H   IDS d  65      17.247  40.151  37.881  0.00  0.00     0.210 HD
ATOM     51  H   IDS d  65      18.313  36.086  36.582  0.00  0.00     0.104 H 
ATOM     52  H   IDS d  65      21.197  38.314  35.563  0.00  0.00     0.133 H 
ATOM     53  H   IDS d  65      17.234  38.072  37.541  0.00  0.00     0.092 H 
ATOM     54  H   IDS d  65      18.208  38.193  35.104  0.00  0.00     0.097 H 
ATOM     55  H   IDS d  65      19.442  39.557  37.489  0.00  0.00     0.091 H 
ATOM     56  O3S SGN d  62      23.619  37.942  46.495  0.00  0.00    -0.296 OA
ATOM     57  C1  SGN d  62      21.446  40.531  47.299  0.00  0.00     0.150 C 
ATOM     58  S2  SGN d  62      18.870  45.469  49.383  0.00  0.00     0.251 S 
ATOM     59  C5  SGN d  62      20.754  42.260  48.952  0.00  0.00     0.091 C 
ATOM     60  O5  SGN d  62      21.448  41.935  47.714  0.00  0.00    -0.349 OA
ATOM     61  O4S SGN d  62      19.637  46.667  49.471  0.00  0.00    -0.572 OA
ATOM     62  O6  SGN d  62      19.792  44.120  50.001  0.00  0.00    -0.254 OA
ATOM     63  O3  SGN d  62      21.564  39.123  50.755  0.00  0.00    -0.391 OA
ATOM     64  S1  SGN d  62      22.999  37.359  47.662  0.00  0.00     0.156 S 
ATOM     65  O6S SGN d  62      18.434  45.170  48.021  0.00  0.00    -0.572 OA
ATOM     66  O4  SGN d  62      20.650  41.806  51.306  0.00  0.00    -0.348 OA
ATOM     67  C6  SGN d  62      20.894  43.744  49.195  0.00  0.00     0.067 C 
ATOM     68  O5S SGN d  62      17.705  45.559  50.220  0.00  0.00    -0.572 OA
ATOM     69  O1S SGN d  62      22.538  36.010  47.411  0.00  0.00    -0.296 OA
ATOM     70  O2S SGN d  62      23.943  37.422  48.741  0.00  0.00    -0.296 OA
ATOM     71  C2  SGN d  62      21.886  39.673  48.477  0.00  0.00     0.081 C 
ATOM     72  C4  SGN d  62      21.348  41.447  50.115  0.00  0.00     0.095 C 
ATOM     73  N   SGN d  62      21.622  38.304  48.166  0.00  0.00    -0.210 NA
ATOM     74  C3  SGN d  62      21.090  39.977  49.749  0.00  0.00     0.083 C 
ATOM     75  H   SGN d  62      22.999  37.911  45.750  0.00  0.00     0.231 HD
ATOM     76  H   SGN d  62      22.112  40.464  46.465  0.00  0.00     0.131 H 
ATOM     77  H   SGN d  62      19.716  42.011  48.880  0.00  0.00     0.090 H 
ATOM     78  H   SGN d  62      21.392  38.202  50.506  0.00  0.00     0.210 HD
ATOM     79  H   SGN d  62      20.874  44.276  48.267  0.00  0.00     0.080 H 
ATOM     80  H   SGN d  62      21.824  43.974  49.674  0.00  0.00     0.080 H 
ATOM     81  H   SGN d  62      21.904  36.016  46.676  0.00  0.00     0.231 HD
ATOM     82  H   SGN d  62      24.223  38.341  48.872  0.00  0.00     0.231 HD
ATOM     83  H   SGN d  62      22.923  39.878  48.645  0.00  0.00     0.076 H 
ATOM     84  H   SGN d  62      22.392  41.624  50.274  0.00  0.00     0.091 H 
ATOM     85  H   SGN d  62      21.228  37.865  48.999  0.00  0.00     0.140 HD
ATOM     86  H   SGN d  62      20.038  39.824  49.622  0.00  0.00     0.089 H 
ATOM     87  O4  IDS d  63      20.168  40.052  46.862  0.00  0.00    -0.348 OA
ATOM     88  O62 IDS d  63      16.872  41.074  45.563  0.00  0.00    -0.646 OA
ATOM     89  C2  IDS d  63      19.789  37.192  45.706  0.00  0.00     0.134 C 
ATOM     90  O2S IDS d  63      18.980  34.837  47.561  0.00  0.00    -0.572 OA
ATOM     91  O61 IDS d  63      18.573  42.184  44.817  0.00  0.00    -0.646 OA
ATOM     92  C3  IDS d  63      20.779  38.250  45.199  0.00  0.00     0.094 C 
ATOM     93  C1  IDS d  63      18.411  37.379  45.016  0.00  0.00     0.161 C 
ATOM     94  O5  IDS d  63      17.901  38.685  45.389  0.00  0.00    -0.340 OA
ATOM     95  C4  IDS d  63      20.200  39.703  45.483  0.00  0.00     0.103 C 
ATOM     96  C6  IDS d  63      18.023  41.129  45.126  0.00  0.00     0.206 C 
ATOM     97  S   IDS d  63      18.587  36.192  47.924  0.00  0.00     0.252 S 
ATOM     98  O3  IDS d  63      20.873  38.022  43.810  0.00  0.00    -0.390 OA
ATOM     99  C5  IDS d  63      18.758  39.807  44.919  0.00  0.00     0.152 C 
ATOM    100  O2  IDS d  63      19.718  37.277  47.105  0.00  0.00    -0.244 OA
ATOM    101  O1S IDS d  63      18.750  36.456  49.342  0.00  0.00    -0.572 OA
ATOM    102  O3S IDS d  63      17.216  36.347  47.532  0.00  0.00    -0.572 OA
ATOM    103  H   IDS d  63      20.122  36.207  45.456  0.00  0.00     0.097 H 
ATOM    104  H   IDS d  63      21.732  38.186  45.681  0.00  0.00     0.091 H 
ATOM    105  H   IDS d  63      17.667  36.666  45.305  0.00  0.00     0.133 H 
ATOM    106  H   IDS d  63      20.867  40.386  44.998  0.00  0.00     0.092 H 
ATOM    107  H   IDS d  63      19.992  38.090  43.411  0.00  0.00     0.210 HD
ATOM    108  H   IDS d  63      18.924  39.749  43.864  0.00  0.00     0.104 H 
ATOM    109  O4  SGN d  64      18.669  37.242  43.584  0.00  0.00    -0.348 OA
ATOM    110  O6  SGN d  64      16.315  34.212  42.005  0.00  0.00    -0.254 OA
ATOM    111  C3  SGN d  64      17.862  38.647  41.752  0.00  0.00     0.083 C 
ATOM    112  S2  SGN d  64      14.751  34.855  42.571  0.00  0.00     0.251 S 
ATOM    113  C5  SGN d  64      17.716  36.158  41.659  0.00  0.00     0.091 C 
ATOM    114  O1S SGN d  64      14.846  41.508  39.967  0.00  0.00    -0.296 OA
ATOM    115  C2  SGN d  64      16.772  38.745  40.729  0.00  0.00     0.081 C 
ATOM    116  O4S SGN d  64      14.749  34.804  44.010  0.00  0.00    -0.572 OA
ATOM    117  O3S SGN d  64      16.343  41.695  41.799  0.00  0.00    -0.296 OA
ATOM    118  S1  SGN d  64      16.243  41.462  40.369  0.00  0.00     0.156 S 
ATOM    119  O6S SGN d  64      14.550  36.219  42.127  0.00  0.00    -0.572 OA
ATOM    120  O5S SGN d  64      13.699  34.029  42.041  0.00  0.00    -0.572 OA
ATOM    121  O3  SGN d  64      17.771  39.788  42.526  0.00  0.00    -0.391 OA
ATOM    122  C1  SGN d  64      16.832  37.530  39.841  0.00  0.00     0.150 C 
ATOM    123  O2S SGN d  64      17.014  42.452  39.670  0.00  0.00    -0.296 OA
ATOM    124  C4  SGN d  64      17.630  37.371  42.603  0.00  0.00     0.095 C 
ATOM    125  O5  SGN d  64      16.680  36.345  40.651  0.00  0.00    -0.349 OA
ATOM    126  C6  SGN d  64      17.494  34.877  42.436  0.00  0.00     0.067 C 
ATOM    127  N   SGN d  64      16.982  39.917  39.915  0.00  0.00    -0.210 NA
ATOM    128  H   SGN d  64      18.835  38.576  41.312  0.00  0.00     0.089 H 
ATOM    129  H   SGN d  64      18.680  36.083  41.200  0.00  0.00     0.090 H 
ATOM    130  H   SGN d  64      14.348  40.832  40.452  0.00  0.00     0.231 HD
ATOM    131  H   SGN d  64      15.823  38.807  41.219  0.00  0.00     0.076 H 
ATOM    132  H   SGN d  64      15.822  41.027  42.272  0.00  0.00     0.231 HD
ATOM    133  H   SGN d  64      16.885  39.842  42.919  0.00  0.00     0.210 HD
ATOM    134  H   SGN d  64      16.051  37.531  39.110  0.00  0.00     0.131 H 
ATOM    135  H   SGN d  64      16.665  43.334  39.871  0.00  0.00     0.231 HD
ATOM    136  H   SGN d  64      16.679  37.428  43.091  0.00  0.00     0.091 H 
ATOM    137  H   SGN d  64      18.333  34.230  42.288  0.00  0.00     0.080 H 
ATOM    138  H   SGN d  64      17.385  35.124  43.471  0.00  0.00     0.080 H 
ATOM    139  H   SGN d  64      16.641  39.691  38.981  0.00  0.00     0.140 HD
ATOM    140  C1  IDS d  61      21.510  42.153  52.410  0.00  0.00     0.167 C 
ATOM    141  O5  IDS d  61      22.262  40.981  52.818  0.00  0.00    -0.311 OA
ATOM    142  C5  IDS d  61      21.643  39.980  53.555  0.00  0.00     0.147 C 
ATOM    143  C6  IDS d  61      22.490  38.681  53.850  0.00  0.00     0.233 C 
ATOM    144  C2  IDS d  61      20.626  42.585  53.576  0.00  0.00     0.135 C 
ATOM    145  O1S IDS d  61      23.878  42.227  54.178  0.00  0.00    -0.572 OA
ATOM    146  O3S IDS d  61      23.266  44.477  53.568  0.00  0.00    -0.572 OA
ATOM    147  O3  IDS d  61      18.602  41.482  53.294  0.00  0.00    -0.389 OA
ATOM    148  C4  IDS d  61      20.408  40.142  54.108  0.00  0.00    -0.034 C 
ATOM    149  C3  IDS d  61      19.725  41.468  54.102  0.00  0.00     0.086 C 
ATOM    150  O61 IDS d  61      22.013  37.783  54.544  0.00  0.00    -0.642 OA
ATOM    151  O62 IDS d  61      23.660  38.582  53.405  0.00  0.00    -0.642 OA
ATOM    152  O2S IDS d  61      23.670  43.795  55.826  0.00  0.00    -0.572 OA
ATOM    153  S   IDS d  61      23.157  43.413  54.555  0.00  0.00     0.252 S 
ATOM    154  O2  IDS d  61      21.430  42.991  54.697  0.00  0.00    -0.244 OA
ATOM    155  H   IDS d  61      22.182  42.936  52.124  0.00  0.00     0.134 H 
ATOM    156  H   IDS d  61      20.028  43.382  53.184  0.00  0.00     0.097 H 
ATOM    157  H   IDS d  61      18.193  42.361  53.323  0.00  0.00     0.210 HD
ATOM    158  H   IDS d  61      19.936  39.332  54.539  0.00  0.00     0.085 H 
ATOM    159  H   IDS d  61      19.464  41.632  55.126  0.00  0.00     0.093 H 
ENDROOT
TORSDOF 50
ENDMDL
MODEL 64
REMARK VINA RESULT:      -5.1      3.011      5.120
REMARK  0 active torsions:
REMARK  status: ('A' for Active; 'I' for Inactive)
REMARK       I    between atoms: O3S_3  and  S1_55 
REMARK       I    between atoms: O3_4  and  C3_87 
REMARK       I    between atoms: O4_5  and  C1_15 
REMARK       I    between atoms: O4_5  and  C4_57 
REMARK       I    between atoms: O4_7  and  C1_36 
REMARK       I    between atoms: O4_7  and  C4_89 
REMARK       I    between atoms: C4_8  and  O4_18 
REMARK       I    between atoms: C2_9  and  O2_84 
REMARK       I    between atoms: C6_10  and  C5_32 
REMARK       I    between atoms: C6_10  and  O6_102 
REMARK       I    between atoms: O6_11  and  C6_93 
REMARK       I    between atoms: O6_11  and  S2_25 
REMARK       I    between atoms: C1_13  and  O4_74 
REMARK       I    between atoms: C3_14  and  O3_71 
REMARK       I    between atoms: O4_18  and  C1_54 
REMARK       I    between atoms: S2_19  and  O6_39 
REMARK       I    between atoms: O2S_21  and  S1_45 
REMARK       I    between atoms: C5_22  and  C6_23 
REMARK       I    between atoms: C5_24  and  C6_77 
REMARK       I    between atoms: O1_27  and  C1_48 
REMARK       I    between atoms: C5_28  and  C6_30 
REMARK       I    between atoms: C5_29  and  C6_93 
REMARK       I    between atoms: O1S_31  and  S1_44 
REMARK       I    between atoms: C3_33  and  O3_69 
REMARK       I    between atoms: C2_37  and  N_99 
REMARK       I    between atoms: S2_38  and  O6_102 
REMARK       I    between atoms: O6_39  and  C6_77 
REMARK       I    between atoms: C2_40  and  O2_103 
REMARK       I    between atoms: O3S_42  and  S1_44 
REMARK       I    between atoms: S1_44  and  N_99 
REMARK       I    between atoms: S1_44  and  O2S_81 
REMARK       I    between atoms: S1_45  and  N_94 
REMARK       I    between atoms: S1_45  and  O1S_46 
REMARK       I    between atoms: S1_45  and  O3S_58 
REMARK       I    between atoms: O3_52  and  C3_105 
REMARK       I    between atoms: S1_55  and  N_100 
REMARK       I    between atoms: S1_55  and  O1S_79 
REMARK       I    between atoms: S1_55  and  O2S_83 
REMARK       I    between atoms: O3_56  and  C3_64 
REMARK       I    between atoms: C4_60  and  O4_61 
REMARK       I    between atoms: O4_61  and  C1_73 
REMARK       I    between atoms: C6_63  and  C5_80 
REMARK       I    between atoms: C3_65  and  O3_82 
REMARK       I    between atoms: S_67  and  O2_84 
REMARK       I    between atoms: C2_68  and  O2_98 
REMARK       I    between atoms: O4_74  and  C4_97 
REMARK       I    between atoms: C2_85  and  N_94 
REMARK       I    between atoms: C2_95  and  N_100 
REMARK       I    between atoms: O2_98  and  S_104 
REMARK       I    between atoms: S_101  and  O2_103 
ROOT
ATOM      1  O6S SGN d  66      18.190  43.403  55.235  0.00  0.00    -0.572 OA
ATOM      2  C4  SGN d  66      17.219  38.734  54.852  0.00  0.00     0.095 C 
ATOM      3  C6  SGN d  66      18.935  39.703  56.430  0.00  0.00     0.067 C 
ATOM      4  O4  SGN d  66      18.268  38.620  53.779  0.00  0.00    -0.348 OA
ATOM      5  O5S SGN d  66      20.317  42.340  55.228  0.00  0.00    -0.572 OA
ATOM      6  O2S SGN d  66      12.515  37.260  57.712  0.00  0.00    -0.296 OA
ATOM      7  O5  SGN d  66      16.832  38.694  57.277  0.00  0.00    -0.350 OA
ATOM      8  O1  SGN d  66      16.320  36.344  57.201  0.00  0.00    -0.369 OA
ATOM      9  C5  SGN d  66      17.868  38.608  56.239  0.00  0.00     0.091 C 
ATOM     10  S2  SGN d  66      18.880  42.140  55.064  0.00  0.00     0.251 S 
ATOM     11  S1  SGN d  66      13.109  36.162  56.975  0.00  0.00     0.156 S 
ATOM     12  O1S SGN d  66      12.092  35.283  56.416  0.00  0.00    -0.296 OA
ATOM     13  C1  SGN d  66      15.779  37.679  57.170  0.00  0.00     0.147 C 
ATOM     14  O3S SGN d  66      13.959  35.353  57.835  0.00  0.00    -0.296 OA
ATOM     15  C3  SGN d  66      16.093  37.701  54.671  0.00  0.00     0.083 C 
ATOM     16  O3  SGN d  66      15.411  37.957  53.445  0.00  0.00    -0.391 OA
ATOM     17  C2  SGN d  66      15.081  37.869  55.807  0.00  0.00     0.081 C 
ATOM     18  O4S SGN d  66      18.574  41.605  53.744  0.00  0.00    -0.572 OA
ATOM     19  N   SGN d  66      14.011  36.879  55.614  0.00  0.00    -0.210 NA
ATOM     20  O6  SGN d  66      18.340  41.019  56.336  0.00  0.00    -0.254 OA
ATOM     21  H   SGN d  66      16.766  39.700  54.767  0.00  0.00     0.091 H 
ATOM     22  H   SGN d  66      19.682  39.600  55.671  0.00  0.00     0.080 H 
ATOM     23  H   SGN d  66      19.372  39.591  57.400  0.00  0.00     0.080 H 
ATOM     24  H   SGN d  66      11.955  37.783  57.118  0.00  0.00     0.231 HD
ATOM     25  H   SGN d  66      16.766  36.196  58.049  0.00  0.00     0.212 HD
ATOM     26  H   SGN d  66      18.354  37.658  56.319  0.00  0.00     0.090 H 
ATOM     27  H   SGN d  66      11.507  35.795  55.836  0.00  0.00     0.231 HD
ATOM     28  H   SGN d  66      15.109  37.797  57.995  0.00  0.00     0.131 H 
ATOM     29  H   SGN d  66      14.650  35.911  58.224  0.00  0.00     0.231 HD
ATOM     30  H   SGN d  66      16.511  36.717  54.671  0.00  0.00     0.089 H 
ATOM     31  H   SGN d  66      15.039  38.853  53.463  0.00  0.00     0.210 HD
ATOM     32  H   SGN d  66      14.660  38.853  55.797  0.00  0.00     0.076 H 
ATOM     33  H   SGN d  66      13.315  37.328  55.019  0.00  0.00     0.140 HD
ATOM     34  O61 IDS d  65      16.800  34.459  51.616  0.00  0.00    -0.646 OA
ATOM     35  O3  IDS d  65      21.621  36.546  52.249  0.00  0.00    -0.390 OA
ATOM     36  C5  IDS d  65      17.895  36.501  52.201  0.00  0.00     0.152 C 
ATOM     37  C6  IDS d  65      16.752  35.709  51.511  0.00  0.00     0.206 C 
ATOM     38  O5  IDS d  65      17.713  37.917  51.890  0.00  0.00    -0.340 OA
ATOM     39  C1  IDS d  65      18.697  38.830  52.442  0.00  0.00     0.161 C 
ATOM     40  O1S IDS d  65      23.622  38.418  53.337  0.00  0.00    -0.572 OA
ATOM     41  C4  IDS d  65      19.337  36.003  51.834  0.00  0.00     0.103 C 
ATOM     42  O4  IDS d  65      19.062  34.979  50.876  0.00  0.00    -0.348 OA
ATOM     43  C2  IDS d  65      20.035  38.158  52.873  0.00  0.00     0.134 C 
ATOM     44  O62 IDS d  65      15.834  36.343  50.908  0.00  0.00    -0.646 OA
ATOM     45  C3  IDS d  65      20.409  37.117  51.867  0.00  0.00     0.094 C 
ATOM     46  O2S IDS d  65      21.949  37.694  54.874  0.00  0.00    -0.572 OA
ATOM     47  O3S IDS d  65      22.633  39.967  54.881  0.00  0.00    -0.572 OA
ATOM     48  O2  IDS d  65      21.089  39.109  52.875  0.00  0.00    -0.244 OA
ATOM     49  S   IDS d  65      22.399  38.794  54.044  0.00  0.00     0.252 S 
ATOM     50  H   IDS d  65      21.876  35.867  51.605  0.00  0.00     0.210 HD
ATOM     51  H   IDS d  65      17.826  36.333  53.255  0.00  0.00     0.104 H 
ATOM     52  H   IDS d  65      18.785  39.706  51.834  0.00  0.00     0.133 H 
ATOM     53  H   IDS d  65      20.005  35.493  52.496  0.00  0.00     0.092 H 
ATOM     54  H   IDS d  65      19.898  37.742  53.849  0.00  0.00     0.097 H 
ATOM     55  H   IDS d  65      20.486  37.569  50.901  0.00  0.00     0.091 H 
ATOM     56  O3S SGN d  62      16.713  34.692  42.032  0.00  0.00    -0.296 OA
ATOM     57  C1  SGN d  62      19.890  33.303  41.809  0.00  0.00     0.150 C 
ATOM     58  S2  SGN d  62      25.286  31.478  40.102  0.00  0.00     0.251 S 
ATOM     59  C5  SGN d  62      21.631  32.253  40.371  0.00  0.00     0.091 C 
ATOM     60  O5  SGN d  62      21.144  33.436  41.066  0.00  0.00    -0.349 OA
ATOM     61  O4S SGN d  62      26.070  32.322  39.263  0.00  0.00    -0.572 OA
ATOM     62  O6  SGN d  62      23.641  31.410  39.517  0.00  0.00    -0.254 OA
ATOM     63  O3  SGN d  62      18.313  30.883  39.444  0.00  0.00    -0.391 OA
ATOM     64  S1  SGN d  62      16.344  33.356  41.623  0.00  0.00     0.156 S 
ATOM     65  O6S SGN d  62      25.282  31.908  41.498  0.00  0.00    -0.572 OA
ATOM     66  O4  SGN d  62      21.091  30.607  38.711  0.00  0.00    -0.348 OA
ATOM     67  C6  SGN d  62      22.915  32.617  39.665  0.00  0.00     0.067 C 
ATOM     68  O5S SGN d  62      25.774  30.127  40.048  0.00  0.00    -0.572 OA
ATOM     69  O1S SGN d  62      15.312  32.797  42.470  0.00  0.00    -0.296 OA
ATOM     70  O2S SGN d  62      15.950  33.410  40.244  0.00  0.00    -0.296 OA
ATOM     71  C2  SGN d  62      18.847  32.670  40.899  0.00  0.00     0.081 C 
ATOM     72  C4  SGN d  62      20.569  31.756  39.376  0.00  0.00     0.095 C 
ATOM     73  N   SGN d  62      17.723  32.288  41.692  0.00  0.00    -0.210 NA
ATOM     74  C3  SGN d  62      19.353  31.384  40.239  0.00  0.00     0.083 C 
ATOM     75  H   SGN d  62      16.984  34.681  42.964  0.00  0.00     0.231 HD
ATOM     76  H   SGN d  62      19.622  34.289  42.125  0.00  0.00     0.131 H 
ATOM     77  H   SGN d  62      21.822  31.460  41.064  0.00  0.00     0.090 H 
ATOM     78  H   SGN d  62      17.557  30.655  40.006  0.00  0.00     0.210 HD
ATOM     79  H   SGN d  62      23.475  33.318  40.249  0.00  0.00     0.080 H 
ATOM     80  H   SGN d  62      22.722  33.074  38.716  0.00  0.00     0.080 H 
ATOM     81  H   SGN d  62      15.622  32.781  43.390  0.00  0.00     0.231 HD
ATOM     82  H   SGN d  62      16.671  33.790  39.717  0.00  0.00     0.231 HD
ATOM     83  H   SGN d  62      18.610  33.391  40.145  0.00  0.00     0.076 H 
ATOM     84  H   SGN d  62      20.304  32.480  38.633  0.00  0.00     0.091 H 
ATOM     85  H   SGN d  62      17.420  31.365  41.380  0.00  0.00     0.140 HD
ATOM     86  H   SGN d  62      19.641  30.642  40.954  0.00  0.00     0.089 H 
ATOM     87  O4  IDS d  63      19.991  32.493  42.988  0.00  0.00    -0.348 OA
ATOM     88  O62 IDS d  63      22.331  31.131  45.492  0.00  0.00    -0.646 OA
ATOM     89  C2  IDS d  63      17.609  32.134  44.949  0.00  0.00     0.134 C 
ATOM     90  O2S IDS d  63      15.647  29.749  44.626  0.00  0.00    -0.572 OA
ATOM     91  O61 IDS d  63      22.720  33.154  44.828  0.00  0.00    -0.646 OA
ATOM     92  C3  IDS d  63      18.217  33.468  44.499  0.00  0.00     0.094 C 
ATOM     93  C1  IDS d  63      18.377  31.588  46.184  0.00  0.00     0.161 C 
ATOM     94  O5  IDS d  63      19.748  31.342  45.779  0.00  0.00    -0.340 OA
ATOM     95  C4  IDS d  63      19.757  33.267  44.158  0.00  0.00     0.103 C 
ATOM     96  C6  IDS d  63      21.953  32.266  45.196  0.00  0.00     0.206 C 
ATOM     97  S   IDS d  63      17.017  29.608  44.152  0.00  0.00     0.252 S 
ATOM     98  O3  IDS d  63      18.069  34.327  45.608  0.00  0.00    -0.390 OA
ATOM     99  C5  IDS d  63      20.466  32.574  45.353  0.00  0.00     0.152 C 
ATOM    100  O2  IDS d  63      17.617  31.246  43.862  0.00  0.00    -0.244 OA
ATOM    101  O1S IDS d  63      17.094  28.931  42.870  0.00  0.00    -0.572 OA
ATOM    102  O3S IDS d  63      17.732  28.876  45.157  0.00  0.00    -0.572 OA
ATOM    103  H   IDS d  63      16.592  32.262  45.258  0.00  0.00     0.097 H 
ATOM    104  H   IDS d  63      17.745  33.861  43.623  0.00  0.00     0.091 H 
ATOM    105  H   IDS d  63      18.001  30.664  46.570  0.00  0.00     0.133 H 
ATOM    106  H   IDS d  63      20.149  34.246  43.976  0.00  0.00     0.092 H 
ATOM    107  H   IDS d  63      18.510  33.938  46.379  0.00  0.00     0.210 HD
ATOM    108  H   IDS d  63      20.421  33.328  46.110  0.00  0.00     0.104 H 
ATOM    109  O4  SGN d  64      18.249  32.620  47.210  0.00  0.00    -0.348 OA
ATOM    110  O6  SGN d  64      16.527  31.011  50.626  0.00  0.00    -0.254 OA
ATOM    111  C3  SGN d  64      19.984  33.533  48.673  0.00  0.00     0.083 C 
ATOM    112  S2  SGN d  64      17.699  29.684  50.837  0.00  0.00     0.251 S 
ATOM    113  C5  SGN d  64      17.773  32.797  49.563  0.00  0.00     0.091 C 
ATOM    114  O1S SGN d  64      23.928  33.184  50.862  0.00  0.00    -0.296 OA
ATOM    115  C2  SGN d  64      20.580  33.381  50.039  0.00  0.00     0.081 C 
ATOM    116  O4S SGN d  64      17.552  28.786  49.721  0.00  0.00    -0.572 OA
ATOM    117  O3S SGN d  64      23.374  33.220  48.556  0.00  0.00    -0.296 OA
ATOM    118  S1  SGN d  64      23.300  33.959  49.804  0.00  0.00     0.156 S 
ATOM    119  O6S SGN d  64      19.057  30.182  50.891  0.00  0.00    -0.572 OA
ATOM    120  O5S SGN d  64      17.399  29.003  52.069  0.00  0.00    -0.572 OA
ATOM    121  O3  SGN d  64      21.010  33.305  47.776  0.00  0.00    -0.391 OA
ATOM    122  C1  SGN d  64      19.507  33.635  51.065  0.00  0.00     0.150 C 
ATOM    123  O2S SGN d  64      23.948  35.231  49.642  0.00  0.00    -0.296 OA
ATOM    124  C4  SGN d  64      18.850  32.488  48.507  0.00  0.00     0.095 C 
ATOM    125  O5  SGN d  64      18.427  32.699  50.861  0.00  0.00    -0.349 OA
ATOM    126  C6  SGN d  64      16.635  31.803  49.451  0.00  0.00     0.067 C 
ATOM    127  N   SGN d  64      21.625  34.359  50.218  0.00  0.00    -0.210 NA
ATOM    128  H   SGN d  64      19.563  34.504  48.514  0.00  0.00     0.089 H 
ATOM    129  H   SGN d  64      17.352  33.771  49.423  0.00  0.00     0.090 H 
ATOM    130  H   SGN d  64      23.474  32.331  50.951  0.00  0.00     0.231 HD
ATOM    131  H   SGN d  64      20.981  32.395  50.148  0.00  0.00     0.076 H 
ATOM    132  H   SGN d  64      22.937  32.360  48.663  0.00  0.00     0.231 HD
ATOM    133  H   SGN d  64      21.385  32.424  47.930  0.00  0.00     0.210 HD
ATOM    134  H   SGN d  64      19.871  33.506  52.063  0.00  0.00     0.131 H 
ATOM    135  H   SGN d  64      24.880  35.092  49.412  0.00  0.00     0.231 HD
ATOM    136  H   SGN d  64      19.247  31.501  48.621  0.00  0.00     0.091 H 
ATOM    137  H   SGN d  64      15.720  32.337  49.304  0.00  0.00     0.080 H 
ATOM    138  H   SGN d  64      16.832  31.155  48.623  0.00  0.00     0.080 H 
ATOM    139  H   SGN d  64      21.620  34.616  51.205  0.00  0.00     0.140 HD
ATOM    140  C1  IDS d  61      20.989  30.662  37.273  0.00  0.00     0.167 C 
ATOM    141  O5  IDS d  61      19.589  30.645  36.893  0.00  0.00    -0.311 OA
ATOM    142  C5  IDS d  61      18.868  29.460  36.944  0.00  0.00     0.147 C 
ATOM    143  C6  IDS d  61      17.323  29.548  36.639  0.00  0.00     0.233 C 
ATOM    144  C2  IDS d  61      21.655  29.412  36.707  0.00  0.00     0.135 C 
ATOM    145  O1S IDS d  61      19.989  31.352  34.578  0.00  0.00    -0.572 OA
ATOM    146  O3S IDS d  61      22.333  31.892  34.722  0.00  0.00    -0.572 OA
ATOM    147  O3  IDS d  61      21.472  27.782  38.352  0.00  0.00    -0.389 OA
ATOM    148  C4  IDS d  61      19.470  28.251  37.130  0.00  0.00    -0.034 C 
ATOM    149  C3  IDS d  61      20.955  28.115  37.112  0.00  0.00     0.086 C 
ATOM    150  O61 IDS d  61      16.642  28.522  36.617  0.00  0.00    -0.642 OA
ATOM    151  O62 IDS d  61      16.797  30.660  36.385  0.00  0.00    -0.642 OA
ATOM    152  O2S IDS d  61      21.390  30.619  32.929  0.00  0.00    -0.572 OA
ATOM    153  S   IDS d  61      21.335  30.913  34.321  0.00  0.00     0.252 S 
ATOM    154  O2  IDS d  61      21.627  29.431  35.270  0.00  0.00    -0.244 OA
ATOM    155  H   IDS d  61      21.457  31.550  36.902  0.00  0.00     0.134 H 
ATOM    156  H   IDS d  61      22.649  29.429  37.103  0.00  0.00     0.097 H 
ATOM    157  H   IDS d  61      22.437  27.705  38.290  0.00  0.00     0.210 HD
ATOM    158  H   IDS d  61      18.887  27.414  37.287  0.00  0.00     0.085 H 
ATOM    159  H   IDS d  61      21.137  27.339  36.399  0.00  0.00     0.093 H 
ENDROOT
TORSDOF 50
ENDMDL
MODEL 65
REMARK VINA RESULT:      -5.1      3.763     16.099
REMARK  0 active torsions:
REMARK  status: ('A' for Active; 'I' for Inactive)
REMARK       I    between atoms: O3S_3  and  S1_55 
REMARK       I    between atoms: O3_4  and  C3_87 
REMARK       I    between atoms: O4_5  and  C1_15 
REMARK       I    between atoms: O4_5  and  C4_57 
REMARK       I    between atoms: O4_7  and  C1_36 
REMARK       I    between atoms: O4_7  and  C4_89 
REMARK       I    between atoms: C4_8  and  O4_18 
REMARK       I    between atoms: C2_9  and  O2_84 
REMARK       I    between atoms: C6_10  and  C5_32 
REMARK       I    between atoms: C6_10  and  O6_102 
REMARK       I    between atoms: O6_11  and  C6_93 
REMARK       I    between atoms: O6_11  and  S2_25 
REMARK       I    between atoms: C1_13  and  O4_74 
REMARK       I    between atoms: C3_14  and  O3_71 
REMARK       I    between atoms: O4_18  and  C1_54 
REMARK       I    between atoms: S2_19  and  O6_39 
REMARK       I    between atoms: O2S_21  and  S1_45 
REMARK       I    between atoms: C5_22  and  C6_23 
REMARK       I    between atoms: C5_24  and  C6_77 
REMARK       I    between atoms: O1_27  and  C1_48 
REMARK       I    between atoms: C5_28  and  C6_30 
REMARK       I    between atoms: C5_29  and  C6_93 
REMARK       I    between atoms: O1S_31  and  S1_44 
REMARK       I    between atoms: C3_33  and  O3_69 
REMARK       I    between atoms: C2_37  and  N_99 
REMARK       I    between atoms: S2_38  and  O6_102 
REMARK       I    between atoms: O6_39  and  C6_77 
REMARK       I    between atoms: C2_40  and  O2_103 
REMARK       I    between atoms: O3S_42  and  S1_44 
REMARK       I    between atoms: S1_44  and  N_99 
REMARK       I    between atoms: S1_44  and  O2S_81 
REMARK       I    between atoms: S1_45  and  N_94 
REMARK       I    between atoms: S1_45  and  O1S_46 
REMARK       I    between atoms: S1_45  and  O3S_58 
REMARK       I    between atoms: O3_52  and  C3_105 
REMARK       I    between atoms: S1_55  and  N_100 
REMARK       I    between atoms: S1_55  and  O1S_79 
REMARK       I    between atoms: S1_55  and  O2S_83 
REMARK       I    between atoms: O3_56  and  C3_64 
REMARK       I    between atoms: C4_60  and  O4_61 
REMARK       I    between atoms: O4_61  and  C1_73 
REMARK       I    between atoms: C6_63  and  C5_80 
REMARK       I    between atoms: C3_65  and  O3_82 
REMARK       I    between atoms: S_67  and  O2_84 
REMARK       I    between atoms: C2_68  and  O2_98 
REMARK       I    between atoms: O4_74  and  C4_97 
REMARK       I    between atoms: C2_85  and  N_94 
REMARK       I    between atoms: C2_95  and  N_100 
REMARK       I    between atoms: O2_98  and  S_104 
REMARK       I    between atoms: S_101  and  O2_103 
ROOT
ATOM      1  O6S SGN d  66      17.530  33.686  33.475  0.00  0.00    -0.572 OA
ATOM      2  C4  SGN d  66      19.415  31.363  37.209  0.00  0.00     0.095 C 
ATOM      3  C6  SGN d  66      17.116  30.912  36.269  0.00  0.00     0.067 C 
ATOM      4  O4  SGN d  66      18.837  32.404  38.128  0.00  0.00    -0.348 OA
ATOM      5  O5S SGN d  66      15.768  33.567  35.068  0.00  0.00    -0.572 OA
ATOM      6  O2S SGN d  66      23.042  27.271  35.604  0.00  0.00    -0.296 OA
ATOM      7  O5  SGN d  66      18.949  29.257  36.034  0.00  0.00    -0.350 OA
ATOM      8  O1  SGN d  66      19.880  27.986  37.854  0.00  0.00    -0.369 OA
ATOM      9  C5  SGN d  66      18.366  30.281  36.911  0.00  0.00     0.091 C 
ATOM     10  S2  SGN d  66      17.185  33.308  34.831  0.00  0.00     0.251 S 
ATOM     11  S1  SGN d  66      22.949  27.427  37.042  0.00  0.00     0.156 S 
ATOM     12  O1S SGN d  66      24.239  27.224  37.685  0.00  0.00    -0.296 OA
ATOM     13  C1  SGN d  66      20.143  28.601  36.578  0.00  0.00     0.147 C 
ATOM     14  O3S SGN d  66      22.021  26.464  37.614  0.00  0.00    -0.296 OA
ATOM     15  C3  SGN d  66      20.704  30.744  37.775  0.00  0.00     0.083 C 
ATOM     16  O3  SGN d  66      21.706  31.755  37.882  0.00  0.00    -0.391 OA
ATOM     17  C2  SGN d  66      21.218  29.686  36.795  0.00  0.00     0.081 C 
ATOM     18  O4S SGN d  66      18.017  34.057  35.761  0.00  0.00    -0.572 OA
ATOM     19  N   SGN d  66      22.451  29.112  37.350  0.00  0.00    -0.210 NA
ATOM     20  O6  SGN d  66      17.454  31.558  35.019  0.00  0.00    -0.254 OA
ATOM     21  H   SGN d  66      19.683  31.847  36.293  0.00  0.00     0.091 H 
ATOM     22  H   SGN d  66      16.706  31.638  36.939  0.00  0.00     0.080 H 
ATOM     23  H   SGN d  66      16.401  30.139  36.074  0.00  0.00     0.080 H 
ATOM     24  H   SGN d  66      23.665  27.923  35.248  0.00  0.00     0.231 HD
ATOM     25  H   SGN d  66      19.206  27.297  37.748  0.00  0.00     0.212 HD
ATOM     26  H   SGN d  66      18.065  29.816  37.826  0.00  0.00     0.090 H 
ATOM     27  H   SGN d  66      24.883  27.853  37.324  0.00  0.00     0.231 HD
ATOM     28  H   SGN d  66      20.457  27.844  35.891  0.00  0.00     0.131 H 
ATOM     29  H   SGN d  66      21.148  26.574  37.205  0.00  0.00     0.231 HD
ATOM     30  H   SGN d  66      20.500  30.314  38.733  0.00  0.00     0.089 H 
ATOM     31  H   SGN d  66      21.877  32.133  37.006  0.00  0.00     0.210 HD
ATOM     32  H   SGN d  66      21.427  30.125  35.841  0.00  0.00     0.076 H 
ATOM     33  H   SGN d  66      23.214  29.698  37.011  0.00  0.00     0.140 HD
ATOM     34  O61 IDS d  65      21.695  31.719  42.067  0.00  0.00    -0.646 OA
ATOM     35  O3  IDS d  65      16.651  33.264  41.645  0.00  0.00    -0.390 OA
ATOM     36  C5  IDS d  65      20.110  32.526  40.470  0.00  0.00     0.152 C 
ATOM     37  C6  IDS d  65      21.544  32.451  41.057  0.00  0.00     0.206 C 
ATOM     38  O5  IDS d  65      20.123  33.487  39.370  0.00  0.00    -0.340 OA
ATOM     39  C1  IDS d  65      18.860  33.708  38.691  0.00  0.00     0.161 C 
ATOM     40  O1S IDS d  65      14.091  33.750  40.267  0.00  0.00    -0.572 OA
ATOM     41  C4  IDS d  65      18.997  32.861  41.525  0.00  0.00     0.103 C 
ATOM     42  O4  IDS d  65      19.768  33.062  42.713  0.00  0.00    -0.348 OA
ATOM     43  C2  IDS d  65      17.602  33.271  39.501  0.00  0.00     0.134 C 
ATOM     44  O62 IDS d  65      22.480  33.095  40.494  0.00  0.00    -0.646 OA
ATOM     45  C3  IDS d  65      17.794  33.634  40.939  0.00  0.00     0.094 C 
ATOM     46  O2S IDS d  65      15.240  31.760  39.631  0.00  0.00    -0.572 OA
ATOM     47  O3S IDS d  65      14.189  33.082  37.963  0.00  0.00    -0.572 OA
ATOM     48  O2  IDS d  65      16.456  33.981  39.058  0.00  0.00    -0.244 OA
ATOM     49  S   IDS d  65      14.907  33.113  39.234  0.00  0.00     0.252 S 
ATOM     50  H   IDS d  65      16.762  33.494  42.581  0.00  0.00     0.210 HD
ATOM     51  H   IDS d  65      19.844  31.551  40.118  0.00  0.00     0.104 H 
ATOM     52  H   IDS d  65      18.825  34.687  38.262  0.00  0.00     0.133 H 
ATOM     53  H   IDS d  65      18.250  32.181  41.876  0.00  0.00     0.092 H 
ATOM     54  H   IDS d  65      17.472  32.217  39.367  0.00  0.00     0.097 H 
ATOM     55  H   IDS d  65      17.970  34.686  41.019  0.00  0.00     0.091 H 
ATOM     56  O3S SGN d  62      25.010  39.755  46.109  0.00  0.00    -0.296 OA
ATOM     57  C1  SGN d  62      22.414  39.857  48.416  0.00  0.00     0.150 C 
ATOM     58  S2  SGN d  62      18.361  41.409  52.482  0.00  0.00     0.251 S 
ATOM     59  C5  SGN d  62      21.495  40.851  50.506  0.00  0.00     0.091 C 
ATOM     60  O5  SGN d  62      21.488  40.796  49.051  0.00  0.00    -0.349 OA
ATOM     61  O4S SGN d  62      17.771  42.704  52.413  0.00  0.00    -0.572 OA
ATOM     62  O6  SGN d  62      20.090  41.524  52.254  0.00  0.00    -0.254 OA
ATOM     63  O3  SGN d  62      25.122  40.229  50.959  0.00  0.00    -0.391 OA
ATOM     64  S1  SGN d  62      25.735  39.321  47.280  0.00  0.00     0.156 S 
ATOM     65  O6S SGN d  62      17.808  40.478  51.501  0.00  0.00    -0.572 OA
ATOM     66  O4  SGN d  62      22.863  41.254  52.435  0.00  0.00    -0.348 OA
ATOM     67  C6  SGN d  62      20.486  41.886  50.943  0.00  0.00     0.067 C 
ATOM     68  O5S SGN d  62      18.179  40.846  53.791  0.00  0.00    -0.572 OA
ATOM     69  O1S SGN d  62      26.499  38.117  47.026  0.00  0.00    -0.296 OA
ATOM     70  O2S SGN d  62      26.560  40.410  47.718  0.00  0.00    -0.296 OA
ATOM     71  C2  SGN d  62      23.803  40.068  49.002  0.00  0.00     0.081 C 
ATOM     72  C4  SGN d  62      22.905  41.199  51.011  0.00  0.00     0.095 C 
ATOM     73  N   SGN d  62      24.638  38.984  48.594  0.00  0.00    -0.210 NA
ATOM     74  C3  SGN d  62      23.799  40.044  50.533  0.00  0.00     0.083 C 
ATOM     75  H   SGN d  62      24.444  39.033  45.793  0.00  0.00     0.231 HD
ATOM     76  H   SGN d  62      22.372  40.058  47.366  0.00  0.00     0.131 H 
ATOM     77  H   SGN d  62      21.228  39.901  50.920  0.00  0.00     0.090 H 
ATOM     78  H   SGN d  62      25.668  39.490  50.648  0.00  0.00     0.210 HD
ATOM     79  H   SGN d  62      19.642  41.883  50.286  0.00  0.00     0.080 H 
ATOM     80  H   SGN d  62      20.905  42.871  50.920  0.00  0.00     0.080 H 
ATOM     81  H   SGN d  62      25.902  37.410  46.733  0.00  0.00     0.231 HD
ATOM     82  H   SGN d  62      26.007  41.191  47.875  0.00  0.00     0.231 HD
ATOM     83  H   SGN d  62      24.147  41.021  48.659  0.00  0.00     0.076 H 
ATOM     84  H   SGN d  62      23.271  42.139  50.651  0.00  0.00     0.091 H 
ATOM     85  H   SGN d  62      25.194  38.697  49.401  0.00  0.00     0.140 HD
ATOM     86  H   SGN d  62      23.425  39.122  50.928  0.00  0.00     0.089 H 
ATOM     87  O4  IDS d  63      22.066  38.478  48.598  0.00  0.00    -0.348 OA
ATOM     88  O62 IDS d  63      19.305  36.168  49.393  0.00  0.00    -0.646 OA
ATOM     89  C2  IDS d  63      23.658  36.184  47.235  0.00  0.00     0.134 C 
ATOM     90  O2S IDS d  63      26.015  34.805  48.714  0.00  0.00    -0.572 OA
ATOM     91  O61 IDS d  63      18.801  37.855  48.134  0.00  0.00    -0.646 OA
ATOM     92  C3  IDS d  63      23.005  37.379  46.527  0.00  0.00     0.094 C 
ATOM     93  C1  IDS d  63      22.627  35.033  47.395  0.00  0.00     0.161 C 
ATOM     94  O5  IDS d  63      21.548  35.517  48.234  0.00  0.00    -0.340 OA
ATOM     95  C4  IDS d  63      21.740  37.867  47.357  0.00  0.00     0.103 C 
ATOM     96  C6  IDS d  63      19.545  36.930  48.454  0.00  0.00     0.206 C 
ATOM     97  S   IDS d  63      24.940  35.402  49.496  0.00  0.00     0.252 S 
ATOM     98  O3  IDS d  63      22.604  36.880  45.270  0.00  0.00    -0.390 OA
ATOM     99  C5  IDS d  63      20.805  36.660  47.637  0.00  0.00     0.152 C 
ATOM    100  O2  IDS d  63      24.185  36.621  48.460  0.00  0.00    -0.244 OA
ATOM    101  O1S IDS d  63      25.432  36.125  50.655  0.00  0.00    -0.572 OA
ATOM    102  O3S IDS d  63      24.072  34.332  49.894  0.00  0.00    -0.572 OA
ATOM    103  H   IDS d  63      24.464  35.790  46.654  0.00  0.00     0.097 H 
ATOM    104  H   IDS d  63      23.668  38.214  46.434  0.00  0.00     0.091 H 
ATOM    105  H   IDS d  63      23.012  34.153  47.867  0.00  0.00     0.133 H 
ATOM    106  H   IDS d  63      21.261  38.610  46.753  0.00  0.00     0.092 H 
ATOM    107  H   IDS d  63      22.006  36.127  45.396  0.00  0.00     0.210 HD
ATOM    108  H   IDS d  63      20.449  36.418  46.657  0.00  0.00     0.104 H 
ATOM    109  O4  SGN d  64      22.204  34.697  46.037  0.00  0.00    -0.348 OA
ATOM    110  O6  SGN d  64      22.919  30.679  45.285  0.00  0.00    -0.254 OA
ATOM    111  C3  SGN d  64      19.937  34.316  45.201  0.00  0.00     0.083 C 
ATOM    112  S2  SGN d  64      22.011  30.046  46.684  0.00  0.00     0.251 S 
ATOM    113  C5  SGN d  64      21.806  32.746  44.686  0.00  0.00     0.091 C 
ATOM    114  O1S SGN d  64      15.619  33.121  45.824  0.00  0.00    -0.296 OA
ATOM    115  C2  SGN d  64      18.949  33.227  44.918  0.00  0.00     0.081 C 
ATOM    116  O4S SGN d  64      22.693  30.470  47.879  0.00  0.00    -0.572 OA
ATOM    117  O3S SGN d  64      16.912  34.936  46.637  0.00  0.00    -0.296 OA
ATOM    118  S1  SGN d  64      16.416  34.275  45.443  0.00  0.00     0.156 S 
ATOM    119  O6S SGN d  64      20.649  30.539  46.695  0.00  0.00    -0.572 OA
ATOM    120  O5S SGN d  64      21.991  28.611  46.603  0.00  0.00    -0.572 OA
ATOM    121  O3  SGN d  64      19.341  35.147  46.130  0.00  0.00    -0.391 OA
ATOM    122  C1  SGN d  64      19.540  32.293  43.894  0.00  0.00     0.150 C 
ATOM    123  O2S SGN d  64      15.640  35.206  44.670  0.00  0.00    -0.296 OA
ATOM    124  C4  SGN d  64      21.231  33.676  45.769  0.00  0.00     0.095 C 
ATOM    125  O5  SGN d  64      20.777  31.753  44.405  0.00  0.00    -0.349 OA
ATOM    126  C6  SGN d  64      23.075  32.088  45.185  0.00  0.00     0.067 C 
ATOM    127  N   SGN d  64      17.745  33.802  44.370  0.00  0.00    -0.210 NA
ATOM    128  H   SGN d  64      20.202  34.870  44.325  0.00  0.00     0.089 H 
ATOM    129  H   SGN d  64      22.062  33.286  43.797  0.00  0.00     0.090 H 
ATOM    130  H   SGN d  64      16.163  32.509  46.344  0.00  0.00     0.231 HD
ATOM    131  H   SGN d  64      18.724  32.701  45.822  0.00  0.00     0.076 H 
ATOM    132  H   SGN d  64      17.436  34.309  47.160  0.00  0.00     0.231 HD
ATOM    133  H   SGN d  64      19.105  34.634  46.919  0.00  0.00     0.210 HD
ATOM    134  H   SGN d  64      18.887  31.473  43.678  0.00  0.00     0.131 H 
ATOM    135  H   SGN d  64      14.886  35.513  45.197  0.00  0.00     0.231 HD
ATOM    136  H   SGN d  64      21.008  33.146  46.671  0.00  0.00     0.091 H 
ATOM    137  H   SGN d  64      23.871  32.303  44.503  0.00  0.00     0.080 H 
ATOM    138  H   SGN d  64      23.296  32.474  46.158  0.00  0.00     0.080 H 
ATOM    139  H   SGN d  64      17.365  33.119  43.715  0.00  0.00     0.140 HD
ATOM    140  C1  IDS d  61      23.438  42.452  52.995  0.00  0.00     0.167 C 
ATOM    141  O5  IDS d  61      24.862  42.475  52.715  0.00  0.00    -0.311 OA
ATOM    142  C5  IDS d  61      25.727  41.665  53.440  0.00  0.00     0.147 C 
ATOM    143  C6  IDS d  61      27.239  41.651  52.990  0.00  0.00     0.233 C 
ATOM    144  C2  IDS d  61      23.249  42.401  54.508  0.00  0.00     0.135 C 
ATOM    145  O1S IDS d  61      25.155  44.840  53.290  0.00  0.00    -0.572 OA
ATOM    146  O3S IDS d  61      22.846  45.480  53.552  0.00  0.00    -0.572 OA
ATOM    147  O3  IDS d  61      23.155  40.150  55.072  0.00  0.00    -0.389 OA
ATOM    148  C4  IDS d  61      25.331  41.001  54.561  0.00  0.00    -0.034 C 
ATOM    149  C3  IDS d  61      23.994  41.246  55.176  0.00  0.00     0.086 C 
ATOM    150  O61 IDS d  61      28.062  40.994  53.628  0.00  0.00    -0.642 OA
ATOM    151  O62 IDS d  61      27.606  42.337  52.004  0.00  0.00    -0.642 OA
ATOM    152  O2S IDS d  61      24.563  46.106  55.097  0.00  0.00    -0.572 OA
ATOM    153  S   IDS d  61      24.084  45.097  54.215  0.00  0.00     0.252 S 
ATOM    154  O2  IDS d  61      23.762  43.596  55.123  0.00  0.00    -0.244 OA
ATOM    155  H   IDS d  61      22.971  43.319  52.576  0.00  0.00     0.134 H 
ATOM    156  H   IDS d  61      22.194  42.284  54.647  0.00  0.00     0.097 H 
ATOM    157  H   IDS d  61      22.301  40.356  55.483  0.00  0.00     0.210 HD
ATOM    158  H   IDS d  61      25.968  40.315  54.995  0.00  0.00     0.085 H 
ATOM    159  H   IDS d  61      24.213  41.466  56.199  0.00  0.00     0.093 H 
ENDROOT
TORSDOF 50
ENDMDL
MODEL 66
REMARK VINA RESULT:      -5.1      3.612      7.347
REMARK  0 active torsions:
REMARK  status: ('A' for Active; 'I' for Inactive)
REMARK       I    between atoms: O3S_3  and  S1_55 
REMARK       I    between atoms: O3_4  and  C3_87 
REMARK       I    between atoms: O4_5  and  C1_15 
REMARK       I    between atoms: O4_5  and  C4_57 
REMARK       I    between atoms: O4_7  and  C1_36 
REMARK       I    between atoms: O4_7  and  C4_89 
REMARK       I    between atoms: C4_8  and  O4_18 
REMARK       I    between atoms: C2_9  and  O2_84 
REMARK       I    between atoms: C6_10  and  C5_32 
REMARK       I    between atoms: C6_10  and  O6_102 
REMARK       I    between atoms: O6_11  and  C6_93 
REMARK       I    between atoms: O6_11  and  S2_25 
REMARK       I    between atoms: C1_13  and  O4_74 
REMARK       I    between atoms: C3_14  and  O3_71 
REMARK       I    between atoms: O4_18  and  C1_54 
REMARK       I    between atoms: S2_19  and  O6_39 
REMARK       I    between atoms: O2S_21  and  S1_45 
REMARK       I    between atoms: C5_22  and  C6_23 
REMARK       I    between atoms: C5_24  and  C6_77 
REMARK       I    between atoms: O1_27  and  C1_48 
REMARK       I    between atoms: C5_28  and  C6_30 
REMARK       I    between atoms: C5_29  and  C6_93 
REMARK       I    between atoms: O1S_31  and  S1_44 
REMARK       I    between atoms: C3_33  and  O3_69 
REMARK       I    between atoms: C2_37  and  N_99 
REMARK       I    between atoms: S2_38  and  O6_102 
REMARK       I    between atoms: O6_39  and  C6_77 
REMARK       I    between atoms: C2_40  and  O2_103 
REMARK       I    between atoms: O3S_42  and  S1_44 
REMARK       I    between atoms: S1_44  and  N_99 
REMARK       I    between atoms: S1_44  and  O2S_81 
REMARK       I    between atoms: S1_45  and  N_94 
REMARK       I    between atoms: S1_45  and  O1S_46 
REMARK       I    between atoms: S1_45  and  O3S_58 
REMARK       I    between atoms: O3_52  and  C3_105 
REMARK       I    between atoms: S1_55  and  N_100 
REMARK       I    between atoms: S1_55  and  O1S_79 
REMARK       I    between atoms: S1_55  and  O2S_83 
REMARK       I    between atoms: O3_56  and  C3_64 
REMARK       I    between atoms: C4_60  and  O4_61 
REMARK       I    between atoms: O4_61  and  C1_73 
REMARK       I    between atoms: C6_63  and  C5_80 
REMARK       I    between atoms: C3_65  and  O3_82 
REMARK       I    between atoms: S_67  and  O2_84 
REMARK       I    between atoms: C2_68  and  O2_98 
REMARK       I    between atoms: O4_74  and  C4_97 
REMARK       I    between atoms: C2_85  and  N_94 
REMARK       I    between atoms: C2_95  and  N_100 
REMARK       I    between atoms: O2_98  and  S_104 
REMARK       I    between atoms: S_101  and  O2_103 
ROOT
ATOM      1  O6S SGN d  66      11.939  35.644  55.228  0.00  0.00    -0.572 OA
ATOM      2  C4  SGN d  66      15.102  32.783  53.060  0.00  0.00     0.095 C 
ATOM      3  C6  SGN d  66      15.640  34.251  55.042  0.00  0.00     0.067 C 
ATOM      4  O4  SGN d  66      15.457  33.909  52.127  0.00  0.00    -0.348 OA
ATOM      5  O5S SGN d  66      13.912  36.958  55.035  0.00  0.00    -0.572 OA
ATOM      6  O2S SGN d  66      14.592  27.352  54.708  0.00  0.00    -0.296 OA
ATOM      7  O5  SGN d  66      15.579  31.780  55.251  0.00  0.00    -0.350 OA
ATOM      8  O1  SGN d  66      17.190  30.288  54.265  0.00  0.00    -0.369 OA
ATOM      9  C5  SGN d  66      15.914  32.898  54.359  0.00  0.00     0.091 C 
ATOM     10  S2  SGN d  66      13.276  35.695  54.671  0.00  0.00     0.251 S 
ATOM     11  S1  SGN d  66      15.593  27.550  53.679  0.00  0.00     0.156 S 
ATOM     12  O1S SGN d  66      15.621  26.438  52.741  0.00  0.00    -0.296 OA
ATOM     13  C1  SGN d  66      15.819  30.453  54.676  0.00  0.00     0.147 C 
ATOM     14  O3S SGN d  66      16.923  27.665  54.259  0.00  0.00    -0.296 OA
ATOM     15  C3  SGN d  66      15.298  31.406  52.404  0.00  0.00     0.083 C 
ATOM     16  O3  SGN d  66      14.405  31.278  51.298  0.00  0.00    -0.391 OA
ATOM     17  C2  SGN d  66      14.936  30.318  53.419  0.00  0.00     0.081 C 
ATOM     18  O4S SGN d  66      13.195  35.548  53.225  0.00  0.00    -0.572 OA
ATOM     19  N   SGN d  66      15.123  29.011  52.772  0.00  0.00    -0.210 NA
ATOM     20  O6  SGN d  66      14.239  34.378  55.382  0.00  0.00    -0.254 OA
ATOM     21  H   SGN d  66      14.061  32.867  53.294  0.00  0.00     0.091 H 
ATOM     22  H   SGN d  66      15.912  35.042  54.375  0.00  0.00     0.080 H 
ATOM     23  H   SGN d  66      16.219  34.307  55.940  0.00  0.00     0.080 H 
ATOM     24  H   SGN d  66      13.716  27.279  54.297  0.00  0.00     0.231 HD
ATOM     25  H   SGN d  66      17.771  30.368  55.038  0.00  0.00     0.212 HD
ATOM     26  H   SGN d  66      16.959  32.852  54.131  0.00  0.00     0.090 H 
ATOM     27  H   SGN d  66      14.746  26.334  52.336  0.00  0.00     0.231 HD
ATOM     28  H   SGN d  66      15.593  29.716  55.418  0.00  0.00     0.131 H 
ATOM     29  H   SGN d  66      16.938  28.400  54.891  0.00  0.00     0.231 HD
ATOM     30  H   SGN d  66      16.313  31.308  52.082  0.00  0.00     0.089 H 
ATOM     31  H   SGN d  66      13.491  31.370  51.609  0.00  0.00     0.210 HD
ATOM     32  H   SGN d  66      13.916  30.417  53.732  0.00  0.00     0.076 H 
ATOM     33  H   SGN d  66      14.236  28.790  52.320  0.00  0.00     0.140 HD
ATOM     34  O61 IDS d  65      17.473  31.344  48.453  0.00  0.00    -0.646 OA
ATOM     35  O3  IDS d  65      18.483  36.209  50.273  0.00  0.00    -0.390 OA
ATOM     36  C5  IDS d  65      16.553  33.049  49.852  0.00  0.00     0.152 C 
ATOM     37  C6  IDS d  65      16.409  31.906  48.812  0.00  0.00     0.206 C 
ATOM     38  O5  IDS d  65      15.230  33.629  50.069  0.00  0.00    -0.340 OA
ATOM     39  C1  IDS d  65      15.155  34.731  51.010  0.00  0.00     0.161 C 
ATOM     40  O1S IDS d  65      18.309  38.466  52.161  0.00  0.00    -0.572 OA
ATOM     41  C4  IDS d  65      17.613  34.140  49.469  0.00  0.00     0.103 C 
ATOM     42  O4  IDS d  65      18.041  33.696  48.179  0.00  0.00    -0.348 OA
ATOM     43  C2  IDS d  65      16.515  35.438  51.291  0.00  0.00     0.134 C 
ATOM     44  O62 IDS d  65      15.255  31.583  48.399  0.00  0.00    -0.646 OA
ATOM     45  C3  IDS d  65      17.284  35.549  50.013  0.00  0.00     0.094 C 
ATOM     46  O2S IDS d  65      18.429  36.301  53.154  0.00  0.00    -0.572 OA
ATOM     47  O3S IDS d  65      16.951  37.921  54.064  0.00  0.00    -0.572 OA
ATOM     48  O2  IDS d  65      16.299  36.766  51.744  0.00  0.00    -0.244 OA
ATOM     49  S   IDS d  65      17.553  37.412  52.835  0.00  0.00     0.252 S 
ATOM     50  H   IDS d  65      18.994  36.287  49.452  0.00  0.00     0.210 HD
ATOM     51  H   IDS d  65      16.934  32.627  50.758  0.00  0.00     0.104 H 
ATOM     52  H   IDS d  65      14.331  35.373  50.779  0.00  0.00     0.133 H 
ATOM     53  H   IDS d  65      18.553  34.291  49.957  0.00  0.00     0.092 H 
ATOM     54  H   IDS d  65      17.040  34.866  52.026  0.00  0.00     0.097 H 
ATOM     55  H   IDS d  65      16.701  36.084  49.293  0.00  0.00     0.091 H 
ATOM     56  O3S SGN d  62      14.678  33.976  39.669  0.00  0.00    -0.296 OA
ATOM     57  C1  SGN d  62      17.407  36.087  39.258  0.00  0.00     0.150 C 
ATOM     58  S2  SGN d  62      21.255  40.277  37.528  0.00  0.00     0.251 S 
ATOM     59  C5  SGN d  62      18.784  37.468  37.709  0.00  0.00     0.091 C 
ATOM     60  O5  SGN d  62      17.758  37.410  38.741  0.00  0.00    -0.349 OA
ATOM     61  O4S SGN d  62      20.760  41.555  37.138  0.00  0.00    -0.572 OA
ATOM     62  O6  SGN d  62      20.292  39.013  36.803  0.00  0.00    -0.254 OA
ATOM     63  O3  SGN d  62      17.904  34.283  36.027  0.00  0.00    -0.391 OA
ATOM     64  S1  SGN d  62      15.455  33.162  38.763  0.00  0.00     0.156 S 
ATOM     65  O6S SGN d  62      21.278  40.092  38.977  0.00  0.00    -0.572 OA
ATOM     66  O4  SGN d  62      19.388  36.706  35.516  0.00  0.00    -0.348 OA
ATOM     67  C6  SGN d  62      18.974  38.913  37.314  0.00  0.00     0.067 C 
ATOM     68  O5S SGN d  62      22.589  40.084  37.027  0.00  0.00    -0.572 OA
ATOM     69  O1S SGN d  62      15.592  31.802  39.241  0.00  0.00    -0.296 OA
ATOM     70  O2S SGN d  62      14.836  33.227  37.470  0.00  0.00    -0.296 OA
ATOM     71  C2  SGN d  62      17.128  35.161  38.082  0.00  0.00     0.081 C 
ATOM     72  C4  SGN d  62      18.363  36.611  36.503  0.00  0.00     0.095 C 
ATOM     73  N   SGN d  62      17.060  33.819  38.566  0.00  0.00    -0.210 NA
ATOM     74  C3  SGN d  62      18.257  35.178  37.047  0.00  0.00     0.083 C 
ATOM     75  H   SGN d  62      15.078  33.947  40.552  0.00  0.00     0.231 HD
ATOM     76  H   SGN d  62      16.553  36.227  39.887  0.00  0.00     0.131 H 
ATOM     77  H   SGN d  62      19.710  37.077  38.076  0.00  0.00     0.090 H 
ATOM     78  H   SGN d  62      17.842  33.386  36.390  0.00  0.00     0.210 HD
ATOM     79  H   SGN d  62      18.857  39.549  38.166  0.00  0.00     0.080 H 
ATOM     80  H   SGN d  62      18.250  39.216  36.587  0.00  0.00     0.080 H 
ATOM     81  H   SGN d  62      16.014  31.808  40.115  0.00  0.00     0.231 HD
ATOM     82  H   SGN d  62      14.765  34.154  37.192  0.00  0.00     0.231 HD
ATOM     83  H   SGN d  62      16.220  35.495  37.627  0.00  0.00     0.076 H 
ATOM     84  H   SGN d  62      17.440  36.920  36.058  0.00  0.00     0.091 H 
ATOM     85  H   SGN d  62      17.564  33.223  37.909  0.00  0.00     0.140 HD
ATOM     86  H   SGN d  62      19.199  34.886  37.463  0.00  0.00     0.089 H 
ATOM     87  O4  IDS d  63      18.430  35.481  40.059  0.00  0.00    -0.348 OA
ATOM     88  O62 IDS d  63      21.427  36.156  42.098  0.00  0.00    -0.646 OA
ATOM     89  C2  IDS d  63      17.995  32.768  41.510  0.00  0.00     0.134 C 
ATOM     90  O2S IDS d  63      18.808  30.101  40.144  0.00  0.00    -0.572 OA
ATOM     91  O61 IDS d  63      19.818  37.594  42.268  0.00  0.00    -0.646 OA
ATOM     92  C3  IDS d  63      17.115  34.018  41.644  0.00  0.00     0.094 C 
ATOM     93  C1  IDS d  63      19.169  32.833  42.525  0.00  0.00     0.161 C 
ATOM     94  O5  IDS d  63      19.979  33.990  42.192  0.00  0.00    -0.340 OA
ATOM     95  C4  IDS d  63      17.994  35.320  41.403  0.00  0.00     0.103 C 
ATOM     96  C6  IDS d  63      20.232  36.438  42.207  0.00  0.00     0.206 C 
ATOM     97  S   IDS d  63      19.514  31.324  39.785  0.00  0.00     0.252 S 
ATOM     98  O3  IDS d  63      16.639  33.986  42.972  0.00  0.00    -0.390 OA
ATOM     99  C5  IDS d  63      19.246  35.278  42.321  0.00  0.00     0.152 C 
ATOM    100  O2  IDS d  63      18.426  32.662  40.179  0.00  0.00    -0.244 OA
ATOM    101  O1S IDS d  63      19.759  31.427  38.359  0.00  0.00    -0.572 OA
ATOM    102  O3S IDS d  63      20.749  31.321  40.515  0.00  0.00    -0.572 OA
ATOM    103  H   IDS d  63      17.441  31.884  41.745  0.00  0.00     0.097 H 
ATOM    104  H   IDS d  63      16.315  34.036  40.933  0.00  0.00     0.091 H 
ATOM    105  H   IDS d  63      19.822  31.986  42.506  0.00  0.00     0.133 H 
ATOM    106  H   IDS d  63      17.360  36.151  41.633  0.00  0.00     0.092 H 
ATOM    107  H   IDS d  63      17.391  33.971  43.584  0.00  0.00     0.210 HD
ATOM    108  H   IDS d  63      18.815  35.381  43.295  0.00  0.00     0.104 H 
ATOM    109  O4  SGN d  64      18.542  32.920  43.842  0.00  0.00    -0.348 OA
ATOM    110  O6  SGN d  64      19.853  29.799  46.241  0.00  0.00    -0.254 OA
ATOM    111  C3  SGN d  64      19.105  34.411  45.699  0.00  0.00     0.083 C 
ATOM    112  S2  SGN d  64      21.597  30.123  46.061  0.00  0.00     0.251 S 
ATOM    113  C5  SGN d  64      18.778  31.960  46.036  0.00  0.00     0.091 C 
ATOM    114  O1S SGN d  64      22.040  36.993  47.974  0.00  0.00    -0.296 OA
ATOM    115  C2  SGN d  64      19.905  34.475  46.962  0.00  0.00     0.081 C 
ATOM    116  O4S SGN d  64      21.948  29.889  44.684  0.00  0.00    -0.572 OA
ATOM    117  O3S SGN d  64      21.104  37.166  45.802  0.00  0.00    -0.296 OA
ATOM    118  S1  SGN d  64      20.802  37.105  47.220  0.00  0.00     0.156 S 
ATOM    119  O6S SGN d  64      21.921  31.487  46.425  0.00  0.00    -0.572 OA
ATOM    120  O5S SGN d  64      22.320  29.223  46.920  0.00  0.00    -0.572 OA
ATOM    121  O3  SGN d  64      19.587  35.417  44.884  0.00  0.00    -0.391 OA
ATOM    122  C1  SGN d  64      19.411  33.405  47.902  0.00  0.00     0.150 C 
ATOM    123  O2S SGN d  64      20.070  38.281  47.603  0.00  0.00    -0.296 OA
ATOM    124  C4  SGN d  64      19.311  33.017  45.051  0.00  0.00     0.095 C 
ATOM    125  O5  SGN d  64      19.547  32.117  47.264  0.00  0.00    -0.349 OA
ATOM    126  C6  SGN d  64      18.955  30.573  45.458  0.00  0.00     0.067 C 
ATOM    127  N   SGN d  64      19.711  35.759  47.589  0.00  0.00    -0.210 NA
ATOM    128  H   SGN d  64      18.056  34.543  45.868  0.00  0.00     0.089 H 
ATOM    129  H   SGN d  64      17.733  32.090  46.226  0.00  0.00     0.090 H 
ATOM    130  H   SGN d  64      22.515  36.194  47.699  0.00  0.00     0.231 HD
ATOM    131  H   SGN d  64      20.942  34.331  46.739  0.00  0.00     0.076 H 
ATOM    132  H   SGN d  64      21.599  36.373  45.542  0.00  0.00     0.231 HD
ATOM    133  H   SGN d  64      20.537  35.288  44.738  0.00  0.00     0.210 HD
ATOM    134  H   SGN d  64      19.974  33.383  48.812  0.00  0.00     0.131 H 
ATOM    135  H   SGN d  64      20.609  39.068  47.428  0.00  0.00     0.231 HD
ATOM    136  H   SGN d  64      20.347  32.868  44.830  0.00  0.00     0.091 H 
ATOM    137  H   SGN d  64      18.005  30.083  45.430  0.00  0.00     0.080 H 
ATOM    138  H   SGN d  64      19.361  30.666  44.472  0.00  0.00     0.080 H 
ATOM    139  H   SGN d  64      19.764  35.605  48.596  0.00  0.00     0.140 HD
ATOM    140  C1  IDS d  61      18.906  37.035  34.197  0.00  0.00     0.167 C 
ATOM    141  O5  IDS d  61      18.083  35.945  33.703  0.00  0.00    -0.311 OA
ATOM    142  C5  IDS d  61      18.678  34.777  33.245  0.00  0.00     0.147 C 
ATOM    143  C6  IDS d  61      17.714  33.593  32.846  0.00  0.00     0.233 C 
ATOM    144  C2  IDS d  61      20.114  37.177  33.277  0.00  0.00     0.135 C 
ATOM    145  O1S IDS d  61      17.103  37.235  31.862  0.00  0.00    -0.572 OA
ATOM    146  O3S IDS d  61      17.934  39.428  32.421  0.00  0.00    -0.572 OA
ATOM    147  O3  IDS d  61      21.775  35.828  34.180  0.00  0.00    -0.389 OA
ATOM    148  C4  IDS d  61      20.020  34.681  33.030  0.00  0.00    -0.034 C 
ATOM    149  C3  IDS d  61      20.904  35.880  33.106  0.00  0.00     0.086 C 
ATOM    150  O61 IDS d  61      18.181  32.552  32.382  0.00  0.00    -0.642 OA
ATOM    151  O62 IDS d  61      16.472  33.728  32.970  0.00  0.00    -0.642 OA
ATOM    152  O2S IDS d  61      17.990  38.532  30.203  0.00  0.00    -0.572 OA
ATOM    153  S   IDS d  61      18.095  38.242  31.592  0.00  0.00     0.252 S 
ATOM    154  O2  IDS d  61      19.700  37.552  31.952  0.00  0.00    -0.244 OA
ATOM    155  H   IDS d  61      18.334  37.939  34.226  0.00  0.00     0.134 H 
ATOM    156  H   IDS d  61      20.727  37.918  33.746  0.00  0.00     0.097 H 
ATOM    157  H   IDS d  61      22.328  36.626  34.187  0.00  0.00     0.210 HD
ATOM    158  H   IDS d  61      20.433  33.761  32.811  0.00  0.00     0.085 H 
ATOM    159  H   IDS d  61      21.437  35.871  32.178  0.00  0.00     0.093 H 
ENDROOT
TORSDOF 50
ENDMDL
MODEL 67
REMARK VINA RESULT:      -5.1      3.846     15.518
REMARK  0 active torsions:
REMARK  status: ('A' for Active; 'I' for Inactive)
REMARK       I    between atoms: O3S_3  and  S1_55 
REMARK       I    between atoms: O3_4  and  C3_87 
REMARK       I    between atoms: O4_5  and  C1_15 
REMARK       I    between atoms: O4_5  and  C4_57 
REMARK       I    between atoms: O4_7  and  C1_36 
REMARK       I    between atoms: O4_7  and  C4_89 
REMARK       I    between atoms: C4_8  and  O4_18 
REMARK       I    between atoms: C2_9  and  O2_84 
REMARK       I    between atoms: C6_10  and  C5_32 
REMARK       I    between atoms: C6_10  and  O6_102 
REMARK       I    between atoms: O6_11  and  C6_93 
REMARK       I    between atoms: O6_11  and  S2_25 
REMARK       I    between atoms: C1_13  and  O4_74 
REMARK       I    between atoms: C3_14  and  O3_71 
REMARK       I    between atoms: O4_18  and  C1_54 
REMARK       I    between atoms: S2_19  and  O6_39 
REMARK       I    between atoms: O2S_21  and  S1_45 
REMARK       I    between atoms: C5_22  and  C6_23 
REMARK       I    between atoms: C5_24  and  C6_77 
REMARK       I    between atoms: O1_27  and  C1_48 
REMARK       I    between atoms: C5_28  and  C6_30 
REMARK       I    between atoms: C5_29  and  C6_93 
REMARK       I    between atoms: O1S_31  and  S1_44 
REMARK       I    between atoms: C3_33  and  O3_69 
REMARK       I    between atoms: C2_37  and  N_99 
REMARK       I    between atoms: S2_38  and  O6_102 
REMARK       I    between atoms: O6_39  and  C6_77 
REMARK       I    between atoms: C2_40  and  O2_103 
REMARK       I    between atoms: O3S_42  and  S1_44 
REMARK       I    between atoms: S1_44  and  N_99 
REMARK       I    between atoms: S1_44  and  O2S_81 
REMARK       I    between atoms: S1_45  and  N_94 
REMARK       I    between atoms: S1_45  and  O1S_46 
REMARK       I    between atoms: S1_45  and  O3S_58 
REMARK       I    between atoms: O3_52  and  C3_105 
REMARK       I    between atoms: S1_55  and  N_100 
REMARK       I    between atoms: S1_55  and  O1S_79 
REMARK       I    between atoms: S1_55  and  O2S_83 
REMARK       I    between atoms: O3_56  and  C3_64 
REMARK       I    between atoms: C4_60  and  O4_61 
REMARK       I    between atoms: O4_61  and  C1_73 
REMARK       I    between atoms: C6_63  and  C5_80 
REMARK       I    between atoms: C3_65  and  O3_82 
REMARK       I    between atoms: S_67  and  O2_84 
REMARK       I    between atoms: C2_68  and  O2_98 
REMARK       I    between atoms: O4_74  and  C4_97 
REMARK       I    between atoms: C2_85  and  N_94 
REMARK       I    between atoms: C2_95  and  N_100 
REMARK       I    between atoms: O2_98  and  S_104 
REMARK       I    between atoms: S_101  and  O2_103 
ROOT
ATOM      1  O6S SGN d  66      16.037  33.961  32.372  0.00  0.00    -0.572 OA
ATOM      2  C4  SGN d  66      19.599  34.672  35.487  0.00  0.00     0.095 C 
ATOM      3  C6  SGN d  66      19.530  32.781  33.815  0.00  0.00     0.067 C 
ATOM      4  O4  SGN d  66      18.873  33.815  36.488  0.00  0.00    -0.348 OA
ATOM      5  O5S SGN d  66      16.528  31.800  33.236  0.00  0.00    -0.572 OA
ATOM      6  O2S SGN d  66      23.220  38.714  33.747  0.00  0.00    -0.296 OA
ATOM      7  O5  SGN d  66      21.160  34.638  33.590  0.00  0.00    -0.350 OA
ATOM      8  O1  SGN d  66      23.027  34.999  35.065  0.00  0.00    -0.369 OA
ATOM      9  C5  SGN d  66      20.436  33.790  34.546  0.00  0.00     0.091 C 
ATOM     10  S2  SGN d  66      16.810  33.228  33.355  0.00  0.00     0.251 S 
ATOM     11  S1  SGN d  66      23.536  38.183  35.059  0.00  0.00     0.156 S 
ATOM     12  O1S SGN d  66      24.043  39.219  35.946  0.00  0.00    -0.296 OA
ATOM     13  C1  SGN d  66      22.052  35.625  34.209  0.00  0.00     0.147 C 
ATOM     14  O3S SGN d  66      24.555  37.147  34.972  0.00  0.00    -0.296 OA
ATOM     15  C3  SGN d  66      20.472  35.741  36.166  0.00  0.00     0.083 C 
ATOM     16  O3  SGN d  66      19.636  36.637  36.897  0.00  0.00    -0.391 OA
ATOM     17  C2  SGN d  66      21.189  36.555  35.086  0.00  0.00     0.081 C 
ATOM     18  O4S SGN d  66      16.476  33.717  34.685  0.00  0.00    -0.572 OA
ATOM     19  N   SGN d  66      22.011  37.574  35.753  0.00  0.00    -0.210 NA
ATOM     20  O6  SGN d  66      18.540  33.469  33.014  0.00  0.00    -0.254 OA
ATOM     21  H   SGN d  66      18.866  35.195  34.910  0.00  0.00     0.091 H 
ATOM     22  H   SGN d  66      19.033  32.168  34.537  0.00  0.00     0.080 H 
ATOM     23  H   SGN d  66      20.136  32.179  33.170  0.00  0.00     0.080 H 
ATOM     24  H   SGN d  66      22.540  39.400  33.832  0.00  0.00     0.231 HD
ATOM     25  H   SGN d  66      23.587  34.407  34.539  0.00  0.00     0.212 HD
ATOM     26  H   SGN d  66      21.149  33.236  35.120  0.00  0.00     0.090 H 
ATOM     27  H   SGN d  66      23.385  39.927  36.025  0.00  0.00     0.231 HD
ATOM     28  H   SGN d  66      22.565  36.152  33.432  0.00  0.00     0.131 H 
ATOM     29  H   SGN d  66      24.247  36.439  34.385  0.00  0.00     0.231 HD
ATOM     30  H   SGN d  66      21.174  35.264  36.817  0.00  0.00     0.089 H 
ATOM     31  H   SGN d  66      19.007  37.059  36.292  0.00  0.00     0.210 HD
ATOM     32  H   SGN d  66      20.481  37.035  34.442  0.00  0.00     0.076 H 
ATOM     33  H   SGN d  66      21.409  38.389  35.872  0.00  0.00     0.140 HD
ATOM     34  O61 IDS d  65      21.039  35.349  40.624  0.00  0.00    -0.646 OA
ATOM     35  O3  IDS d  65      19.038  30.640  39.276  0.00  0.00    -0.390 OA
ATOM     36  C5  IDS d  65      19.629  34.308  38.999  0.00  0.00     0.152 C 
ATOM     37  C6  IDS d  65      20.007  35.496  39.923  0.00  0.00     0.206 C 
ATOM     38  O5  IDS d  65      18.365  34.634  38.343  0.00  0.00    -0.340 OA
ATOM     39  C1  IDS d  65      17.833  33.633  37.437  0.00  0.00     0.161 C 
ATOM     40  O1S IDS d  65      17.922  28.612  37.451  0.00  0.00    -0.572 OA
ATOM     41  C4  IDS d  65      19.568  32.919  39.726  0.00  0.00     0.103 C 
ATOM     42  O4  IDS d  65      19.830  33.285  41.084  0.00  0.00    -0.348 OA
ATOM     43  C2  IDS d  65      18.407  32.199  37.642  0.00  0.00     0.134 C 
ATOM     44  O62 IDS d  65      19.293  36.543  39.913  0.00  0.00    -0.646 OA
ATOM     45  C3  IDS d  65      18.552  31.933  39.107  0.00  0.00     0.094 C 
ATOM     46  O2S IDS d  65      19.681  29.948  36.552  0.00  0.00    -0.572 OA
ATOM     47  O3S IDS d  65      17.805  29.425  35.195  0.00  0.00    -0.572 OA
ATOM     48  O2  IDS d  65      17.501  31.226  37.146  0.00  0.00    -0.244 OA
ATOM     49  S   IDS d  65      18.250  29.719  36.554  0.00  0.00     0.252 S 
ATOM     50  H   IDS d  65      19.137  30.453  40.223  0.00  0.00     0.210 HD
ATOM     51  H   IDS d  65      20.409  34.186  38.278  0.00  0.00     0.104 H 
ATOM     52  H   IDS d  65      16.767  33.708  37.372  0.00  0.00     0.133 H 
ATOM     53  H   IDS d  65      20.263  32.117  39.591  0.00  0.00     0.092 H 
ATOM     54  H   IDS d  65      19.345  32.142  37.130  0.00  0.00     0.097 H 
ATOM     55  H   IDS d  65      17.601  32.051  39.584  0.00  0.00     0.091 H 
ATOM     56  O3S SGN d  62      15.065  37.075  47.921  0.00  0.00    -0.296 OA
ATOM     57  C1  SGN d  62      15.515  33.896  49.251  0.00  0.00     0.150 C 
ATOM     58  S2  SGN d  62      15.056  28.758  52.210  0.00  0.00     0.251 S 
ATOM     59  C5  SGN d  62      15.189  32.358  51.182  0.00  0.00     0.091 C 
ATOM     60  O5  SGN d  62      14.763  32.798  49.861  0.00  0.00    -0.349 OA
ATOM     61  O4S SGN d  62      13.766  28.186  52.410  0.00  0.00    -0.572 OA
ATOM     62  O6  SGN d  62      15.013  30.470  52.556  0.00  0.00    -0.254 OA
ATOM     63  O3  SGN d  62      16.216  35.688  52.450  0.00  0.00    -0.391 OA
ATOM     64  S1  SGN d  62      15.916  37.418  49.036  0.00  0.00     0.156 S 
ATOM     65  O6S SGN d  62      15.567  28.554  50.857  0.00  0.00    -0.572 OA
ATOM     66  O4  SGN d  62      15.551  33.061  53.447  0.00  0.00    -0.348 OA
ATOM     67  C6  SGN d  62      14.275  31.240  51.623  0.00  0.00     0.067 C 
ATOM     68  O5S SGN d  62      16.001  28.198  53.138  0.00  0.00    -0.572 OA
ATOM     69  O1S SGN d  62      17.028  38.252  48.630  0.00  0.00    -0.296 OA
ATOM     70  O2S SGN d  62      15.101  38.042  50.038  0.00  0.00    -0.296 OA
ATOM     71  C2  SGN d  62      15.620  35.034  50.256  0.00  0.00     0.081 C 
ATOM     72  C4  SGN d  62      15.140  33.538  52.168  0.00  0.00     0.095 C 
ATOM     73  N   SGN d  62      16.575  35.980  49.774  0.00  0.00    -0.210 NA
ATOM     74  C3  SGN d  62      16.144  34.563  51.616  0.00  0.00     0.083 C 
ATOM     75  H   SGN d  62      15.596  36.649  47.228  0.00  0.00     0.231 HD
ATOM     76  H   SGN d  62      14.978  34.172  48.367  0.00  0.00     0.131 H 
ATOM     77  H   SGN d  62      16.197  32.001  51.155  0.00  0.00     0.090 H 
ATOM     78  H   SGN d  62      16.854  36.321  52.085  0.00  0.00     0.210 HD
ATOM     79  H   SGN d  62      13.995  30.637  50.785  0.00  0.00     0.080 H 
ATOM     80  H   SGN d  62      13.374  31.621  52.058  0.00  0.00     0.080 H 
ATOM     81  H   SGN d  62      17.549  37.790  47.954  0.00  0.00     0.231 HD
ATOM     82  H   SGN d  62      14.372  37.449  50.278  0.00  0.00     0.231 HD
ATOM     83  H   SGN d  62      14.638  35.443  50.372  0.00  0.00     0.076 H 
ATOM     84  H   SGN d  62      14.167  33.973  52.270  0.00  0.00     0.091 H 
ATOM     85  H   SGN d  62      17.154  36.270  50.563  0.00  0.00     0.140 HD
ATOM     86  H   SGN d  62      17.111  34.109  51.549  0.00  0.00     0.089 H 
ATOM     87  O4  IDS d  63      16.844  33.543  48.848  0.00  0.00    -0.348 OA
ATOM     88  O62 IDS d  63      19.056  30.728  47.965  0.00  0.00    -0.646 OA
ATOM     89  C2  IDS d  63      18.687  35.530  47.328  0.00  0.00     0.134 C 
ATOM     90  O2S IDS d  63      20.659  37.355  48.882  0.00  0.00    -0.572 OA
ATOM     91  O61 IDS d  63      17.015  30.591  47.257  0.00  0.00    -0.646 OA
ATOM     92  C3  IDS d  63      17.277  35.096  46.903  0.00  0.00     0.094 C 
ATOM     93  C1  IDS d  63      19.739  34.528  46.778  0.00  0.00     0.161 C 
ATOM     94  O5  IDS d  63      19.471  33.233  47.372  0.00  0.00    -0.340 OA
ATOM     95  C4  IDS d  63      16.987  33.627  47.435  0.00  0.00     0.103 C 
ATOM     96  C6  IDS d  63      18.051  31.225  47.453  0.00  0.00     0.206 C 
ATOM     97  S   IDS d  63      20.267  36.079  49.465  0.00  0.00     0.252 S 
ATOM     98  O3  IDS d  63      17.302  35.111  45.493  0.00  0.00    -0.390 OA
ATOM     99  C5  IDS d  63      18.139  32.681  47.003  0.00  0.00     0.152 C 
ATOM    100  O2  IDS d  63      18.719  35.647  48.725  0.00  0.00    -0.244 OA
ATOM    101  O1S IDS d  63      20.006  36.176  50.889  0.00  0.00    -0.572 OA
ATOM    102  O3S IDS d  63      21.334  35.157  49.204  0.00  0.00    -0.572 OA
ATOM    103  H   IDS d  63      18.933  36.485  46.914  0.00  0.00     0.097 H 
ATOM    104  H   IDS d  63      16.514  35.735  47.296  0.00  0.00     0.091 H 
ATOM    105  H   IDS d  63      20.753  34.772  47.018  0.00  0.00     0.133 H 
ATOM    106  H   IDS d  63      16.051  33.336  47.004  0.00  0.00     0.092 H 
ATOM    107  H   IDS d  63      18.004  34.521  45.176  0.00  0.00     0.210 HD
ATOM    108  H   IDS d  63      18.017  32.647  45.941  0.00  0.00     0.104 H 
ATOM    109  O4  SGN d  64      19.577  34.549  45.326  0.00  0.00    -0.348 OA
ATOM    110  O6  SGN d  64      23.171  35.556  43.514  0.00  0.00    -0.254 OA
ATOM    111  C3  SGN d  64      19.478  32.655  43.780  0.00  0.00     0.083 C 
ATOM    112  S2  SGN d  64      24.151  34.281  44.283  0.00  0.00     0.251 S 
ATOM    113  C5  SGN d  64      20.939  34.630  43.344  0.00  0.00     0.091 C 
ATOM    114  O1S SGN d  64      20.458  28.383  42.660  0.00  0.00    -0.296 OA
ATOM    115  C2  SGN d  64      20.331  31.828  42.869  0.00  0.00     0.081 C 
ATOM    116  O4S SGN d  64      24.198  34.554  45.696  0.00  0.00    -0.572 OA
ATOM    117  O3S SGN d  64      19.119  29.322  44.379  0.00  0.00    -0.296 OA
ATOM    118  S1  SGN d  64      19.311  29.231  42.942  0.00  0.00     0.156 S 
ATOM    119  O6S SGN d  64      23.581  32.969  44.057  0.00  0.00    -0.572 OA
ATOM    120  O5S SGN d  64      25.475  34.321  43.722  0.00  0.00    -0.572 OA
ATOM    121  O3  SGN d  64      18.951  31.784  44.714  0.00  0.00    -0.391 OA
ATOM    122  C1  SGN d  64      20.923  32.726  41.814  0.00  0.00     0.150 C 
ATOM    123  O2S SGN d  64      18.119  28.706  42.335  0.00  0.00    -0.296 OA
ATOM    124  C4  SGN d  64      20.371  33.729  44.455  0.00  0.00     0.095 C 
ATOM    125  O5  SGN d  64      21.699  33.760  42.455  0.00  0.00    -0.349 OA
ATOM    126  C6  SGN d  64      21.825  35.702  43.944  0.00  0.00     0.067 C 
ATOM    127  N   SGN d  64      19.513  30.835  42.217  0.00  0.00    -0.210 NA
ATOM    128  H   SGN d  64      18.691  33.161  43.262  0.00  0.00     0.089 H 
ATOM    129  H   SGN d  64      20.160  35.132  42.807  0.00  0.00     0.090 H 
ATOM    130  H   SGN d  64      21.248  28.758  43.079  0.00  0.00     0.231 HD
ATOM    131  H   SGN d  64      21.103  31.350  43.434  0.00  0.00     0.076 H 
ATOM    132  H   SGN d  64      19.923  29.676  44.791  0.00  0.00     0.231 HD
ATOM    133  H   SGN d  64      19.673  31.331  45.178  0.00  0.00     0.210 HD
ATOM    134  H   SGN d  64      21.571  32.190  41.152  0.00  0.00     0.131 H 
ATOM    135  H   SGN d  64      17.941  27.819  42.687  0.00  0.00     0.231 HD
ATOM    136  H   SGN d  64      21.147  33.254  45.018  0.00  0.00     0.091 H 
ATOM    137  H   SGN d  64      21.463  36.662  43.642  0.00  0.00     0.080 H 
ATOM    138  H   SGN d  64      21.797  35.606  45.009  0.00  0.00     0.080 H 
ATOM    139  H   SGN d  64      19.910  30.690  41.289  0.00  0.00     0.140 HD
ATOM    140  C1  IDS d  61      14.653  33.409  54.521  0.00  0.00     0.167 C 
ATOM    141  O5  IDS d  61      14.656  34.849  54.699  0.00  0.00    -0.311 OA
ATOM    142  C5  IDS d  61      15.725  35.471  55.330  0.00  0.00     0.147 C 
ATOM    143  C6  IDS d  61      15.714  37.048  55.370  0.00  0.00     0.233 C 
ATOM    144  C2  IDS d  61      15.181  32.768  55.800  0.00  0.00     0.135 C 
ATOM    145  O1S IDS d  61      12.640  34.895  56.095  0.00  0.00    -0.572 OA
ATOM    146  O3S IDS d  61      11.938  32.601  55.863  0.00  0.00    -0.572 OA
ATOM    147  O3  IDS d  61      17.477  32.561  55.520  0.00  0.00    -0.389 OA
ATOM    148  C4  IDS d  61      16.686  34.767  55.993  0.00  0.00    -0.034 C 
ATOM    149  C3  IDS d  61      16.548  33.301  56.229  0.00  0.00     0.086 C 
ATOM    150  O61 IDS d  61      16.608  37.653  55.963  0.00  0.00    -0.642 OA
ATOM    151  O62 IDS d  61      14.775  37.682  54.828  0.00  0.00    -0.642 OA
ATOM    152  O2S IDS d  61      11.993  33.748  57.962  0.00  0.00    -0.572 OA
ATOM    153  S   IDS d  61      12.615  33.586  56.692  0.00  0.00     0.252 S 
ATOM    154  O2  IDS d  61      14.300  33.040  56.904  0.00  0.00    -0.244 OA
ATOM    155  H   IDS d  61      13.662  33.071  54.300  0.00  0.00     0.134 H 
ATOM    156  H   IDS d  61      15.252  31.724  55.574  0.00  0.00     0.097 H 
ATOM    157  H   IDS d  61      17.349  31.617  55.705  0.00  0.00     0.210 HD
ATOM    158  H   IDS d  61      17.525  35.258  56.338  0.00  0.00     0.085 H 
ATOM    159  H   IDS d  61      16.693  33.191  57.283  0.00  0.00     0.093 H 
ENDROOT
TORSDOF 50
ENDMDL
MODEL 68
REMARK VINA RESULT:      -5.1      2.942      5.901
REMARK  0 active torsions:
REMARK  status: ('A' for Active; 'I' for Inactive)
REMARK       I    between atoms: O3S_3  and  S1_55 
REMARK       I    between atoms: O3_4  and  C3_87 
REMARK       I    between atoms: O4_5  and  C1_15 
REMARK       I    between atoms: O4_5  and  C4_57 
REMARK       I    between atoms: O4_7  and  C1_36 
REMARK       I    between atoms: O4_7  and  C4_89 
REMARK       I    between atoms: C4_8  and  O4_18 
REMARK       I    between atoms: C2_9  and  O2_84 
REMARK       I    between atoms: C6_10  and  C5_32 
REMARK       I    between atoms: C6_10  and  O6_102 
REMARK       I    between atoms: O6_11  and  C6_93 
REMARK       I    between atoms: O6_11  and  S2_25 
REMARK       I    between atoms: C1_13  and  O4_74 
REMARK       I    between atoms: C3_14  and  O3_71 
REMARK       I    between atoms: O4_18  and  C1_54 
REMARK       I    between atoms: S2_19  and  O6_39 
REMARK       I    between atoms: O2S_21  and  S1_45 
REMARK       I    between atoms: C5_22  and  C6_23 
REMARK       I    between atoms: C5_24  and  C6_77 
REMARK       I    between atoms: O1_27  and  C1_48 
REMARK       I    between atoms: C5_28  and  C6_30 
REMARK       I    between atoms: C5_29  and  C6_93 
REMARK       I    between atoms: O1S_31  and  S1_44 
REMARK       I    between atoms: C3_33  and  O3_69 
REMARK       I    between atoms: C2_37  and  N_99 
REMARK       I    between atoms: S2_38  and  O6_102 
REMARK       I    between atoms: O6_39  and  C6_77 
REMARK       I    between atoms: C2_40  and  O2_103 
REMARK       I    between atoms: O3S_42  and  S1_44 
REMARK       I    between atoms: S1_44  and  N_99 
REMARK       I    between atoms: S1_44  and  O2S_81 
REMARK       I    between atoms: S1_45  and  N_94 
REMARK       I    between atoms: S1_45  and  O1S_46 
REMARK       I    between atoms: S1_45  and  O3S_58 
REMARK       I    between atoms: O3_52  and  C3_105 
REMARK       I    between atoms: S1_55  and  N_100 
REMARK       I    between atoms: S1_55  and  O1S_79 
REMARK       I    between atoms: S1_55  and  O2S_83 
REMARK       I    between atoms: O3_56  and  C3_64 
REMARK       I    between atoms: C4_60  and  O4_61 
REMARK       I    between atoms: O4_61  and  C1_73 
REMARK       I    between atoms: C6_63  and  C5_80 
REMARK       I    between atoms: C3_65  and  O3_82 
REMARK       I    between atoms: S_67  and  O2_84 
REMARK       I    between atoms: C2_68  and  O2_98 
REMARK       I    between atoms: O4_74  and  C4_97 
REMARK       I    between atoms: C2_85  and  N_94 
REMARK       I    between atoms: C2_95  and  N_100 
REMARK       I    between atoms: O2_98  and  S_104 
REMARK       I    between atoms: S_101  and  O2_103 
ROOT
ATOM      1  O6S SGN d  66      15.859  42.539  54.593  0.00  0.00    -0.572 OA
ATOM      2  C4  SGN d  66      17.373  38.215  53.214  0.00  0.00     0.095 C 
ATOM      3  C6  SGN d  66      18.720  39.804  54.640  0.00  0.00     0.067 C 
ATOM      4  O4  SGN d  66      17.956  38.833  51.972  0.00  0.00    -0.348 OA
ATOM      5  O5S SGN d  66      18.114  42.874  53.918  0.00  0.00    -0.572 OA
ATOM      6  O2S SGN d  66      15.203  34.037  56.424  0.00  0.00    -0.296 OA
ATOM      7  O5  SGN d  66      17.803  37.698  55.576  0.00  0.00    -0.350 OA
ATOM      8  O1  SGN d  66      18.581  35.495  54.997  0.00  0.00    -0.369 OA
ATOM      9  C5  SGN d  66      18.371  38.327  54.377  0.00  0.00     0.091 C 
ATOM     10  S2  SGN d  66      17.014  41.916  53.979  0.00  0.00     0.251 S 
ATOM     11  S1  SGN d  66      16.027  33.556  55.332  0.00  0.00     0.156 S 
ATOM     12  O1S SGN d  66      15.498  32.324  54.766  0.00  0.00    -0.296 OA
ATOM     13  C1  SGN d  66      17.448  36.285  55.410  0.00  0.00     0.147 C 
ATOM     14  O3S SGN d  66      17.383  33.281  55.783  0.00  0.00    -0.296 OA
ATOM     15  C3  SGN d  66      16.947  36.755  52.987  0.00  0.00     0.083 C 
ATOM     16  O3  SGN d  66      15.903  36.713  52.016  0.00  0.00    -0.391 OA
ATOM     17  C2  SGN d  66      16.385  36.194  54.296  0.00  0.00     0.081 C 
ATOM     18  O4S SGN d  66      16.652  41.451  52.647  0.00  0.00    -0.572 OA
ATOM     19  N   SGN d  66      15.978  34.802  54.058  0.00  0.00    -0.210 NA
ATOM     20  O6  SGN d  66      17.536  40.554  54.999  0.00  0.00    -0.254 OA
ATOM     21  H   SGN d  66      16.486  38.758  53.465  0.00  0.00     0.091 H 
ATOM     22  H   SGN d  66      19.149  40.226  53.755  0.00  0.00     0.080 H 
ATOM     23  H   SGN d  66      19.418  39.854  55.450  0.00  0.00     0.080 H 
ATOM     24  H   SGN d  66      14.306  34.213  56.098  0.00  0.00     0.231 HD
ATOM     25  H   SGN d  66      19.268  35.533  55.680  0.00  0.00     0.212 HD
ATOM     26  H   SGN d  66      19.275  37.817  54.119  0.00  0.00     0.090 H 
ATOM     27  H   SGN d  66      14.591  32.475  54.456  0.00  0.00     0.231 HD
ATOM     28  H   SGN d  66      17.094  35.911  56.347  0.00  0.00     0.131 H 
ATOM     29  H   SGN d  66      17.766  34.085  56.167  0.00  0.00     0.231 HD
ATOM     30  H   SGN d  66      17.791  36.187  52.657  0.00  0.00     0.089 H 
ATOM     31  H   SGN d  66      15.147  37.233  52.332  0.00  0.00     0.210 HD
ATOM     32  H   SGN d  66      15.536  36.763  54.617  0.00  0.00     0.076 H 
ATOM     33  H   SGN d  66      15.010  34.841  53.738  0.00  0.00     0.140 HD
ATOM     34  O61 IDS d  65      18.281  34.840  49.126  0.00  0.00    -0.646 OA
ATOM     35  O3  IDS d  65      21.266  39.202  49.366  0.00  0.00    -0.390 OA
ATOM     36  C5  IDS d  65      18.281  37.064  50.001  0.00  0.00     0.152 C 
ATOM     37  C6  IDS d  65      17.566  35.847  49.356  0.00  0.00     0.206 C 
ATOM     38  O5  IDS d  65      17.312  38.153  50.103  0.00  0.00    -0.340 OA
ATOM     39  C1  IDS d  65      17.796  39.395  50.677  0.00  0.00     0.161 C 
ATOM     40  O1S IDS d  65      22.231  41.744  50.505  0.00  0.00    -0.572 OA
ATOM     41  C4  IDS d  65      19.588  37.513  49.258  0.00  0.00     0.103 C 
ATOM     42  O4  IDS d  65      19.610  36.625  48.137  0.00  0.00    -0.348 OA
ATOM     43  C2  IDS d  65      19.346  39.555  50.666  0.00  0.00     0.134 C 
ATOM     44  O62 IDS d  65      16.323  35.912  49.118  0.00  0.00    -0.646 OA
ATOM     45  C3  IDS d  65      19.885  39.026  49.375  0.00  0.00     0.094 C 
ATOM     46  O2S IDS d  65      21.717  40.037  52.088  0.00  0.00    -0.572 OA
ATOM     47  O3S IDS d  65      21.096  42.281  52.551  0.00  0.00    -0.572 OA
ATOM     48  O2  IDS d  65      19.702  40.928  50.715  0.00  0.00    -0.244 OA
ATOM     49  S   IDS d  65      21.265  41.282  51.500  0.00  0.00     0.252 S 
ATOM     50  H   IDS d  65      21.630  38.862  48.533  0.00  0.00     0.210 HD
ATOM     51  H   IDS d  65      18.625  36.772  50.971  0.00  0.00     0.104 H 
ATOM     52  H   IDS d  65      17.234  40.228  50.309  0.00  0.00     0.133 H 
ATOM     53  H   IDS d  65      20.584  37.401  49.631  0.00  0.00     0.092 H 
ATOM     54  H   IDS d  65      19.740  39.030  51.510  0.00  0.00     0.097 H 
ATOM     55  H   IDS d  65      19.427  39.545  48.560  0.00  0.00     0.091 H 
ATOM     56  O3S SGN d  62      15.245  36.035  40.112  0.00  0.00    -0.296 OA
ATOM     57  C1  SGN d  62      18.449  36.721  38.954  0.00  0.00     0.150 C 
ATOM     58  S2  SGN d  62      23.219  38.468  35.863  0.00  0.00     0.251 S 
ATOM     59  C5  SGN d  62      19.962  37.006  36.997  0.00  0.00     0.091 C 
ATOM     60  O5  SGN d  62      19.167  37.621  38.050  0.00  0.00    -0.349 OA
ATOM     61  O4S SGN d  62      23.165  39.694  35.137  0.00  0.00    -0.572 OA
ATOM     62  O6  SGN d  62      21.759  37.547  35.596  0.00  0.00    -0.254 OA
ATOM     63  O3  SGN d  62      17.727  34.112  36.383  0.00  0.00    -0.391 OA
ATOM     64  S1  SGN d  62      15.516  34.781  39.450  0.00  0.00     0.156 S 
ATOM     65  O6S SGN d  62      23.409  38.664  37.298  0.00  0.00    -0.572 OA
ATOM     66  O4  SGN d  62      19.884  35.538  35.100  0.00  0.00    -0.348 OA
ATOM     67  C6  SGN d  62      20.597  38.107  36.181  0.00  0.00     0.067 C 
ATOM     68  O5S SGN d  62      24.292  37.646  35.375  0.00  0.00    -0.572 OA
ATOM     69  O1S SGN d  62      15.227  33.647  40.302  0.00  0.00    -0.296 OA
ATOM     70  O2S SGN d  62      14.763  34.754  38.229  0.00  0.00    -0.296 OA
ATOM     71  C2  SGN d  62      17.667  35.715  38.122  0.00  0.00     0.081 C 
ATOM     72  C4  SGN d  62      19.070  36.108  36.122  0.00  0.00     0.095 C 
ATOM     73  N   SGN d  62      17.196  34.679  38.985  0.00  0.00    -0.210 NA
ATOM     74  C3  SGN d  62      18.541  35.022  37.072  0.00  0.00     0.083 C 
ATOM     75  H   SGN d  62      15.745  36.077  40.942  0.00  0.00     0.231 HD
ATOM     76  H   SGN d  62      17.818  37.341  39.556  0.00  0.00     0.131 H 
ATOM     77  H   SGN d  62      20.730  36.389  37.415  0.00  0.00     0.090 H 
ATOM     78  H   SGN d  62      17.404  33.436  36.999  0.00  0.00     0.210 HD
ATOM     79  H   SGN d  62      20.858  38.932  36.810  0.00  0.00     0.080 H 
ATOM     80  H   SGN d  62      19.924  38.476  35.435  0.00  0.00     0.080 H 
ATOM     81  H   SGN d  62      15.758  33.707  41.113  0.00  0.00     0.231 HD
ATOM     82  H   SGN d  62      14.989  35.530  37.692  0.00  0.00     0.231 HD
ATOM     83  H   SGN d  62      16.880  36.252  37.635  0.00  0.00     0.076 H 
ATOM     84  H   SGN d  62      18.263  36.632  35.653  0.00  0.00     0.091 H 
ATOM     85  H   SGN d  62      17.336  33.787  38.510  0.00  0.00     0.140 HD
ATOM     86  H   SGN d  62      19.367  34.499  37.507  0.00  0.00     0.089 H 
ATOM     87  O4  IDS d  63      19.298  35.987  39.845  0.00  0.00    -0.348 OA
ATOM     88  O62 IDS d  63      22.624  35.921  41.436  0.00  0.00    -0.646 OA
ATOM     89  C2  IDS d  63      18.151  34.130  42.057  0.00  0.00     0.134 C 
ATOM     90  O2S IDS d  63      17.709  31.107  41.504  0.00  0.00    -0.572 OA
ATOM     91  O61 IDS d  63      21.696  37.868  41.253  0.00  0.00    -0.646 OA
ATOM     92  C3  IDS d  63      17.817  35.615  41.858  0.00  0.00     0.094 C 
ATOM     93  C1  IDS d  63      19.416  33.983  42.945  0.00  0.00     0.161 C 
ATOM     94  O5  IDS d  63      20.525  34.601  42.243  0.00  0.00    -0.340 OA
ATOM     95  C4  IDS d  63      19.058  36.358  41.197  0.00  0.00     0.103 C 
ATOM     96  C6  IDS d  63      21.647  36.668  41.517  0.00  0.00     0.206 C 
ATOM     97  S   IDS d  63      18.742  31.818  40.763  0.00  0.00     0.252 S 
ATOM     98  O3  IDS d  63      17.584  36.111  43.158  0.00  0.00    -0.390 OA
ATOM     99  C5  IDS d  63      20.340  36.061  42.021  0.00  0.00     0.152 C 
ATOM    100  O2  IDS d  63      18.292  33.529  40.797  0.00  0.00    -0.244 OA
ATOM    101  O1S IDS d  63      18.772  31.450  39.359  0.00  0.00    -0.572 OA
ATOM    102  O3S IDS d  63      19.992  31.515  41.396  0.00  0.00    -0.572 OA
ATOM    103  H   IDS d  63      17.359  33.627  42.572  0.00  0.00     0.097 H 
ATOM    104  H   IDS d  63      16.975  35.765  41.216  0.00  0.00     0.091 H 
ATOM    105  H   IDS d  63      19.705  32.972  43.145  0.00  0.00     0.133 H 
ATOM    106  H   IDS d  63      18.814  37.400  41.202  0.00  0.00     0.092 H 
ATOM    107  H   IDS d  63      18.368  35.957  43.708  0.00  0.00     0.210 HD
ATOM    108  H   IDS d  63      20.139  36.569  42.941  0.00  0.00     0.104 H 
ATOM    109  O4  SGN d  64      19.086  34.641  44.207  0.00  0.00    -0.348 OA
ATOM    110  O6  SGN d  64      19.546  31.977  47.354  0.00  0.00    -0.254 OA
ATOM    111  C3  SGN d  64      20.443  36.208  45.506  0.00  0.00     0.083 C 
ATOM    112  S2  SGN d  64      21.235  31.530  46.997  0.00  0.00     0.251 S 
ATOM    113  C5  SGN d  64      19.310  34.257  46.572  0.00  0.00     0.091 C 
ATOM    114  O1S SGN d  64      24.443  37.911  46.759  0.00  0.00    -0.296 OA
ATOM    115  C2  SGN d  64      21.406  36.270  46.651  0.00  0.00     0.081 C 
ATOM    116  O4S SGN d  64      21.249  30.836  45.736  0.00  0.00    -0.572 OA
ATOM    117  O3S SGN d  64      23.294  37.881  44.684  0.00  0.00    -0.296 OA
ATOM    118  S1  SGN d  64      23.224  38.306  46.070  0.00  0.00     0.156 S 
ATOM    119  O6S SGN d  64      22.086  32.700  46.923  0.00  0.00    -0.572 OA
ATOM    120  O5S SGN d  64      21.711  30.669  48.046  0.00  0.00    -0.572 OA
ATOM    121  O3  SGN d  64      21.118  36.700  44.405  0.00  0.00    -0.391 OA
ATOM    122  C1  SGN d  64      20.718  35.758  47.890  0.00  0.00     0.150 C 
ATOM    123  O2S SGN d  64      23.041  39.730  46.123  0.00  0.00    -0.296 OA
ATOM    124  C4  SGN d  64      20.022  34.731  45.292  0.00  0.00     0.095 C 
ATOM    125  O5  SGN d  64      20.272  34.405  47.657  0.00  0.00    -0.349 OA
ATOM    126  C6  SGN d  64      18.876  32.815  46.423  0.00  0.00     0.067 C 
ATOM    127  N   SGN d  64      21.795  37.640  46.878  0.00  0.00    -0.210 NA
ATOM    128  H   SGN d  64      19.557  36.780  45.682  0.00  0.00     0.089 H 
ATOM    129  H   SGN d  64      18.428  34.831  46.768  0.00  0.00     0.090 H 
ATOM    130  H   SGN d  64      24.544  36.948  46.710  0.00  0.00     0.231 HD
ATOM    131  H   SGN d  64      22.269  35.678  46.428  0.00  0.00     0.076 H 
ATOM    132  H   SGN d  64      23.418  36.919  44.646  0.00  0.00     0.231 HD
ATOM    133  H   SGN d  64      21.920  36.174  44.256  0.00  0.00     0.210 HD
ATOM    134  H   SGN d  64      21.373  35.748  48.735  0.00  0.00     0.131 H 
ATOM    135  H   SGN d  64      23.793  40.169  45.696  0.00  0.00     0.231 HD
ATOM    136  H   SGN d  64      20.884  34.135  45.072  0.00  0.00     0.091 H 
ATOM    137  H   SGN d  64      17.821  32.749  46.591  0.00  0.00     0.080 H 
ATOM    138  H   SGN d  64      19.122  32.487  45.435  0.00  0.00     0.080 H 
ATOM    139  H   SGN d  64      21.951  37.739  47.881  0.00  0.00     0.140 HD
ATOM    140  C1  IDS d  61      19.347  35.683  33.770  0.00  0.00     0.167 C 
ATOM    141  O5  IDS d  61      18.118  34.920  33.665  0.00  0.00    -0.311 OA
ATOM    142  C5  IDS d  61      18.166  33.537  33.544  0.00  0.00     0.147 C 
ATOM    143  C6  IDS d  61      16.787  32.769  33.564  0.00  0.00     0.233 C 
ATOM    144  C2  IDS d  61      20.359  35.100  32.789  0.00  0.00     0.135 C 
ATOM    145  O1S IDS d  61      17.388  35.978  31.576  0.00  0.00    -0.572 OA
ATOM    146  O3S IDS d  61      19.036  37.729  31.416  0.00  0.00    -0.572 OA
ATOM    147  O3  IDS d  61      21.541  33.483  33.965  0.00  0.00    -0.389 OA
ATOM    148  C4  IDS d  61      19.328  32.869  33.299  0.00  0.00    -0.034 C 
ATOM    149  C3  IDS d  61      20.586  33.599  32.970  0.00  0.00     0.086 C 
ATOM    150  O61 IDS d  61      16.763  31.548  33.407  0.00  0.00    -0.642 OA
ATOM    151  O62 IDS d  61      15.716  33.409  33.706  0.00  0.00    -0.642 OA
ATOM    152  O2S IDS d  61      18.402  36.352  29.564  0.00  0.00    -0.572 OA
ATOM    153  S   IDS d  61      18.619  36.408  30.969  0.00  0.00     0.252 S 
ATOM    154  O2  IDS d  61      19.900  35.258  31.435  0.00  0.00    -0.244 OA
ATOM    155  H   IDS d  61      19.155  36.715  33.559  0.00  0.00     0.134 H 
ATOM    156  H   IDS d  61      21.267  35.632  32.984  0.00  0.00     0.097 H 
ATOM    157  H   IDS d  61      22.338  33.972  33.707  0.00  0.00     0.210 HD
ATOM    158  H   IDS d  61      19.338  31.838  33.342  0.00  0.00     0.085 H 
ATOM    159  H   IDS d  61      20.921  33.146  32.061  0.00  0.00     0.093 H 
ENDROOT
TORSDOF 50
ENDMDL
MODEL 69
REMARK VINA RESULT:      -5.1      3.319      6.799
REMARK  0 active torsions:
REMARK  status: ('A' for Active; 'I' for Inactive)
REMARK       I    between atoms: O3S_3  and  S1_55 
REMARK       I    between atoms: O3_4  and  C3_87 
REMARK       I    between atoms: O4_5  and  C1_15 
REMARK       I    between atoms: O4_5  and  C4_57 
REMARK       I    between atoms: O4_7  and  C1_36 
REMARK       I    between atoms: O4_7  and  C4_89 
REMARK       I    between atoms: C4_8  and  O4_18 
REMARK       I    between atoms: C2_9  and  O2_84 
REMARK       I    between atoms: C6_10  and  C5_32 
REMARK       I    between atoms: C6_10  and  O6_102 
REMARK       I    between atoms: O6_11  and  C6_93 
REMARK       I    between atoms: O6_11  and  S2_25 
REMARK       I    between atoms: C1_13  and  O4_74 
REMARK       I    between atoms: C3_14  and  O3_71 
REMARK       I    between atoms: O4_18  and  C1_54 
REMARK       I    between atoms: S2_19  and  O6_39 
REMARK       I    between atoms: O2S_21  and  S1_45 
REMARK       I    between atoms: C5_22  and  C6_23 
REMARK       I    between atoms: C5_24  and  C6_77 
REMARK       I    between atoms: O1_27  and  C1_48 
REMARK       I    between atoms: C5_28  and  C6_30 
REMARK       I    between atoms: C5_29  and  C6_93 
REMARK       I    between atoms: O1S_31  and  S1_44 
REMARK       I    between atoms: C3_33  and  O3_69 
REMARK       I    between atoms: C2_37  and  N_99 
REMARK       I    between atoms: S2_38  and  O6_102 
REMARK       I    between atoms: O6_39  and  C6_77 
REMARK       I    between atoms: C2_40  and  O2_103 
REMARK       I    between atoms: O3S_42  and  S1_44 
REMARK       I    between atoms: S1_44  and  N_99 
REMARK       I    between atoms: S1_44  and  O2S_81 
REMARK       I    between atoms: S1_45  and  N_94 
REMARK       I    between atoms: S1_45  and  O1S_46 
REMARK       I    between atoms: S1_45  and  O3S_58 
REMARK       I    between atoms: O3_52  and  C3_105 
REMARK       I    between atoms: S1_55  and  N_100 
REMARK       I    between atoms: S1_55  and  O1S_79 
REMARK       I    between atoms: S1_55  and  O2S_83 
REMARK       I    between atoms: O3_56  and  C3_64 
REMARK       I    between atoms: C4_60  and  O4_61 
REMARK       I    between atoms: O4_61  and  C1_73 
REMARK       I    between atoms: C6_63  and  C5_80 
REMARK       I    between atoms: C3_65  and  O3_82 
REMARK       I    between atoms: S_67  and  O2_84 
REMARK       I    between atoms: C2_68  and  O2_98 
REMARK       I    between atoms: O4_74  and  C4_97 
REMARK       I    between atoms: C2_85  and  N_94 
REMARK       I    between atoms: C2_95  and  N_100 
REMARK       I    between atoms: O2_98  and  S_104 
REMARK       I    between atoms: S_101  and  O2_103 
ROOT
ATOM      1  O6S SGN d  66      11.938  38.216  55.661  0.00  0.00    -0.572 OA
ATOM      2  C4  SGN d  66      14.932  34.911  53.927  0.00  0.00     0.095 C 
ATOM      3  C6  SGN d  66      15.567  36.635  55.658  0.00  0.00     0.067 C 
ATOM      4  O4  SGN d  66      15.324  35.865  52.831  0.00  0.00    -0.348 OA
ATOM      5  O5S SGN d  66      13.966  39.389  55.254  0.00  0.00    -0.572 OA
ATOM      6  O2S SGN d  66      14.196  29.822  56.385  0.00  0.00    -0.296 OA
ATOM      7  O5  SGN d  66      15.396  34.230  56.241  0.00  0.00    -0.350 OA
ATOM      8  O1  SGN d  66      16.921  32.530  55.480  0.00  0.00    -0.369 OA
ATOM      9  C5  SGN d  66      15.768  35.183  55.187  0.00  0.00     0.091 C 
ATOM     10  S2  SGN d  66      13.267  38.118  55.092  0.00  0.00     0.251 S 
ATOM     11  S1  SGN d  66      15.190  29.815  55.330  0.00  0.00     0.156 S 
ATOM     12  O1S SGN d  66      15.153  28.573  54.571  0.00  0.00    -0.296 OA
ATOM     13  C1  SGN d  66      15.565  32.820  55.872  0.00  0.00     0.147 C 
ATOM     14  O3S SGN d  66      16.533  29.952  55.874  0.00  0.00    -0.296 OA
ATOM     15  C3  SGN d  66      15.054  33.442  53.487  0.00  0.00     0.083 C 
ATOM     16  O3  SGN d  66      14.140  33.192  52.420  0.00  0.00    -0.391 OA
ATOM     17  C2  SGN d  66      14.657  32.540  54.657  0.00  0.00     0.081 C 
ATOM     18  O4S SGN d  66      13.157  37.757  53.685  0.00  0.00    -0.572 OA
ATOM     19  N   SGN d  66      14.774  31.143  54.215  0.00  0.00    -0.210 NA
ATOM     20  O6  SGN d  66      14.180  36.879  55.987  0.00  0.00    -0.254 OA
ATOM     21  H   SGN d  66      13.900  35.079  54.154  0.00  0.00     0.091 H 
ATOM     22  H   SGN d  66      15.865  37.302  54.876  0.00  0.00     0.080 H 
ATOM     23  H   SGN d  66      16.162  36.798  56.533  0.00  0.00     0.080 H 
ATOM     24  H   SGN d  66      13.312  29.731  55.997  0.00  0.00     0.231 HD
ATOM     25  H   SGN d  66      17.516  32.698  56.227  0.00  0.00     0.212 HD
ATOM     26  H   SGN d  66      16.806  35.052  54.960  0.00  0.00     0.090 H 
ATOM     27  H   SGN d  66      14.267  28.452  54.194  0.00  0.00     0.231 HD
ATOM     28  H   SGN d  66      15.317  32.216  56.719  0.00  0.00     0.131 H 
ATOM     29  H   SGN d  66      16.591  30.772  56.388  0.00  0.00     0.231 HD
ATOM     30  H   SGN d  66      16.059  33.248  53.175  0.00  0.00     0.089 H 
ATOM     31  H   SGN d  66      13.236  33.374  52.721  0.00  0.00     0.210 HD
ATOM     32  H   SGN d  66      13.649  32.734  54.960  0.00  0.00     0.076 H 
ATOM     33  H   SGN d  66      13.871  30.898  53.809  0.00  0.00     0.140 HD
ATOM     34  O61 IDS d  65      17.163  32.679  49.573  0.00  0.00    -0.646 OA
ATOM     35  O3  IDS d  65      18.425  37.709  50.624  0.00  0.00    -0.390 OA
ATOM     36  C5  IDS d  65      16.344  34.618  50.704  0.00  0.00     0.152 C 
ATOM     37  C6  IDS d  65      16.132  33.339  49.851  0.00  0.00     0.206 C 
ATOM     38  O5  IDS d  65      15.053  35.287  50.841  0.00  0.00    -0.340 OA
ATOM     39  C1  IDS d  65      15.044  36.522  51.604  0.00  0.00     0.161 C 
ATOM     40  O1S IDS d  65      18.384  40.232  52.149  0.00  0.00    -0.572 OA
ATOM     41  C4  IDS d  65      17.448  35.587  50.151  0.00  0.00     0.103 C 
ATOM     42  O4  IDS d  65      17.835  34.933  48.940  0.00  0.00    -0.348 OA
ATOM     43  C2  IDS d  65      16.439  37.197  51.763  0.00  0.00     0.134 C 
ATOM     44  O62 IDS d  65      14.958  33.014  49.502  0.00  0.00    -0.646 OA
ATOM     45  C3  IDS d  65      17.193  37.076  50.477  0.00  0.00     0.094 C 
ATOM     46  O2S IDS d  65      18.419  38.239  53.458  0.00  0.00    -0.572 OA
ATOM     47  O3S IDS d  65      17.032  40.047  54.124  0.00  0.00    -0.572 OA
ATOM     48  O2  IDS d  65      16.291  38.587  52.011  0.00  0.00    -0.244 OA
ATOM     49  S   IDS d  65      17.591  39.330  52.982  0.00  0.00     0.252 S 
ATOM     50  H   IDS d  65      18.926  37.638  49.797  0.00  0.00     0.210 HD
ATOM     51  H   IDS d  65      16.720  34.321  51.660  0.00  0.00     0.104 H 
ATOM     52  H   IDS d  65      14.246  37.160  51.285  0.00  0.00     0.133 H 
ATOM     53  H   IDS d  65      18.401  35.765  50.603  0.00  0.00     0.092 H 
ATOM     54  H   IDS d  65      16.948  36.718  52.573  0.00  0.00     0.097 H 
ATOM     55  H   IDS d  65      16.624  37.523  49.689  0.00  0.00     0.091 H 
ATOM     56  O3S SGN d  62      14.358  34.082  40.514  0.00  0.00    -0.296 OA
ATOM     57  C1  SGN d  62      17.176  35.973  39.765  0.00  0.00     0.150 C 
ATOM     58  S2  SGN d  62      21.187  39.664  37.387  0.00  0.00     0.251 S 
ATOM     59  C5  SGN d  62      18.592  37.036  38.013  0.00  0.00     0.091 C 
ATOM     60  O5  SGN d  62      17.579  37.185  39.050  0.00  0.00    -0.349 OA
ATOM     61  O4S SGN d  62      20.745  40.891  36.812  0.00  0.00    -0.572 OA
ATOM     62  O6  SGN d  62      20.155  38.352  36.870  0.00  0.00    -0.254 OA
ATOM     63  O3  SGN d  62      17.539  33.679  36.841  0.00  0.00    -0.391 OA
ATOM     64  S1  SGN d  62      15.083  33.104  39.735  0.00  0.00     0.156 S 
ATOM     65  O6S SGN d  62      21.223  39.700  38.847  0.00  0.00    -0.572 OA
ATOM     66  O4  SGN d  62      19.126  35.923  35.956  0.00  0.00    -0.348 OA
ATOM     67  C6  SGN d  62      18.842  38.394  37.401  0.00  0.00     0.067 C 
ATOM     68  O5S SGN d  62      22.502  39.334  36.911  0.00  0.00    -0.572 OA
ATOM     69  O1S SGN d  62      15.165  31.828  40.413  0.00  0.00    -0.296 OA
ATOM     70  O2S SGN d  62      14.448  33.003  38.453  0.00  0.00    -0.296 OA
ATOM     71  C2  SGN d  62      16.837  34.894  38.745  0.00  0.00     0.081 C 
ATOM     72  C4  SGN d  62      18.113  36.028  36.955  0.00  0.00     0.095 C 
ATOM     73  N   SGN d  62      16.714  33.646  39.429  0.00  0.00    -0.210 NA
ATOM     74  C3  SGN d  62      17.949  34.700  37.711  0.00  0.00     0.083 C 
ATOM     75  H   SGN d  62      14.770  34.169  41.388  0.00  0.00     0.231 HD
ATOM     76  H   SGN d  62      16.339  36.247  40.372  0.00  0.00     0.131 H 
ATOM     77  H   SGN d  62      19.504  36.661  38.428  0.00  0.00     0.090 H 
ATOM     78  H   SGN d  62      17.442  32.851  37.337  0.00  0.00     0.210 HD
ATOM     79  H   SGN d  62      18.768  39.157  38.148  0.00  0.00     0.080 H 
ATOM     80  H   SGN d  62      18.121  38.618  36.643  0.00  0.00     0.080 H 
ATOM     81  H   SGN d  62      15.600  31.945  41.273  0.00  0.00     0.231 HD
ATOM     82  H   SGN d  62      14.416  33.879  38.038  0.00  0.00     0.231 HD
ATOM     83  H   SGN d  62      15.938  35.199  38.253  0.00  0.00     0.076 H 
ATOM     84  H   SGN d  62      17.199  36.310  36.475  0.00  0.00     0.091 H 
ATOM     85  H   SGN d  62      17.179  32.934  38.865  0.00  0.00     0.140 HD
ATOM     86  H   SGN d  62      18.883  34.430  38.159  0.00  0.00     0.089 H 
ATOM     87  O4  IDS d  63      18.181  35.447  40.641  0.00  0.00    -0.348 OA
ATOM     88  O62 IDS d  63      21.237  36.279  42.529  0.00  0.00    -0.646 OA
ATOM     89  C2  IDS d  63      17.644  33.010  42.490  0.00  0.00     0.134 C 
ATOM     90  O2S IDS d  63      18.312  30.130  41.538  0.00  0.00    -0.572 OA
ATOM     91  O61 IDS d  63      19.699  37.802  42.491  0.00  0.00    -0.646 OA
ATOM     92  C3  IDS d  63      16.825  34.306  42.440  0.00  0.00     0.094 C 
ATOM     93  C1  IDS d  63      18.835  33.171  43.474  0.00  0.00     0.161 C 
ATOM     94  O5  IDS d  63      19.692  34.224  42.963  0.00  0.00    -0.340 OA
ATOM     95  C4  IDS d  63      17.760  35.513  41.997  0.00  0.00     0.103 C 
ATOM     96  C6  IDS d  63      20.058  36.630  42.603  0.00  0.00     0.206 C 
ATOM     97  S   IDS d  63      19.068  31.250  40.993  0.00  0.00     0.252 S 
ATOM     98  O3  IDS d  63      16.368  34.498  43.761  0.00  0.00    -0.390 OA
ATOM     99  C5  IDS d  63      19.022  35.550  42.900  0.00  0.00     0.152 C 
ATOM    100  O2  IDS d  63      18.049  32.683  41.187  0.00  0.00    -0.244 OA
ATOM    101  O1S IDS d  63      19.296  31.123  39.565  0.00  0.00    -0.572 OA
ATOM    102  O3S IDS d  63      20.313  31.298  41.704  0.00  0.00    -0.572 OA
ATOM    103  H   IDS d  63      17.053  32.199  42.862  0.00  0.00     0.097 H 
ATOM    104  H   IDS d  63      16.016  34.255  41.741  0.00  0.00     0.091 H 
ATOM    105  H   IDS d  63      19.448  32.300  43.578  0.00  0.00     0.133 H 
ATOM    106  H   IDS d  63      17.168  36.399  42.103  0.00  0.00     0.092 H 
ATOM    107  H   IDS d  63      17.128  34.540  44.362  0.00  0.00     0.210 HD
ATOM    108  H   IDS d  63      18.611  35.820  43.850  0.00  0.00     0.104 H 
ATOM    109  O4  SGN d  64      18.233  33.486  44.767  0.00  0.00    -0.348 OA
ATOM    110  O6  SGN d  64      19.435  30.705  47.602  0.00  0.00    -0.254 OA
ATOM    111  C3  SGN d  64      18.892  35.212  46.371  0.00  0.00     0.083 C 
ATOM    112  S2  SGN d  64      21.189  30.914  47.361  0.00  0.00     0.251 S 
ATOM    113  C5  SGN d  64      18.459  32.859  47.080  0.00  0.00     0.091 C 
ATOM    114  O1S SGN d  64      21.979  37.965  48.205  0.00  0.00    -0.296 OA
ATOM    115  C2  SGN d  64      19.714  35.428  47.604  0.00  0.00     0.081 C 
ATOM    116  O4S SGN d  64      21.508  30.458  46.033  0.00  0.00    -0.572 OA
ATOM    117  O3S SGN d  64      21.018  37.852  46.038  0.00  0.00    -0.296 OA
ATOM    118  S1  SGN d  64      20.735  38.021  47.453  0.00  0.00     0.156 S 
ATOM    119  O6S SGN d  64      21.581  32.300  47.511  0.00  0.00    -0.572 OA
ATOM    120  O5S SGN d  64      21.883  30.121  48.341  0.00  0.00    -0.572 OA
ATOM    121  O3  SGN d  64      19.408  36.059  45.409  0.00  0.00    -0.391 OA
ATOM    122  C1  SGN d  64      19.186  34.538  48.699  0.00  0.00     0.150 C 
ATOM    123  O2S SGN d  64      20.064  39.275  47.658  0.00  0.00    -0.296 OA
ATOM    124  C4  SGN d  64      19.024  33.728  45.941  0.00  0.00     0.095 C 
ATOM    125  O5  SGN d  64      19.253  33.163  48.264  0.00  0.00    -0.349 OA
ATOM    126  C6  SGN d  64      18.562  31.393  46.718  0.00  0.00     0.067 C 
ATOM    127  N   SGN d  64      19.589  36.800  48.030  0.00  0.00    -0.210 NA
ATOM    128  H   SGN d  64      17.854  35.418  46.527  0.00  0.00     0.089 H 
ATOM    129  H   SGN d  64      17.423  33.066  47.256  0.00  0.00     0.090 H 
ATOM    130  H   SGN d  64      22.412  37.112  48.050  0.00  0.00     0.231 HD
ATOM    131  H   SGN d  64      20.740  35.203  47.397  0.00  0.00     0.076 H 
ATOM    132  H   SGN d  64      21.472  37.006  45.898  0.00  0.00     0.231 HD
ATOM    133  H   SGN d  64      20.349  35.863  45.277  0.00  0.00     0.210 HD
ATOM    134  H   SGN d  64      19.760  34.627  49.598  0.00  0.00     0.131 H 
ATOM    135  H   SGN d  64      20.637  39.999  47.361  0.00  0.00     0.231 HD
ATOM    136  H   SGN d  64      20.049  33.498  45.737  0.00  0.00     0.091 H 
ATOM    137  H   SGN d  64      17.590  30.951  46.772  0.00  0.00     0.080 H 
ATOM    138  H   SGN d  64      18.956  31.317  45.726  0.00  0.00     0.080 H 
ATOM    139  H   SGN d  64      19.650  36.798  49.049  0.00  0.00     0.140 HD
ATOM    140  C1  IDS d  61      18.639  36.071  34.606  0.00  0.00     0.167 C 
ATOM    141  O5  IDS d  61      17.760  34.960  34.291  0.00  0.00    -0.311 OA
ATOM    142  C5  IDS d  61      18.293  33.709  34.011  0.00  0.00     0.147 C 
ATOM    143  C6  IDS d  61      17.269  32.526  33.804  0.00  0.00     0.233 C 
ATOM    144  C2  IDS d  61      19.838  36.014  33.666  0.00  0.00     0.135 C 
ATOM    145  O1S IDS d  61      16.813  36.002  32.283  0.00  0.00    -0.572 OA
ATOM    146  O3S IDS d  61      17.752  38.212  32.496  0.00  0.00    -0.572 OA
ATOM    147  O3  IDS d  61      21.449  34.740  34.750  0.00  0.00    -0.389 OA
ATOM    148  C4  IDS d  61      19.625  33.518  33.802  0.00  0.00    -0.034 C 
ATOM    149  C3  IDS d  61      20.565  34.670  33.688  0.00  0.00     0.086 C 
ATOM    150  O61 IDS d  61      17.681  31.406  33.500  0.00  0.00    -0.642 OA
ATOM    151  O62 IDS d  61      16.037  32.737  33.916  0.00  0.00    -0.642 OA
ATOM    152  O2S IDS d  61      17.733  36.988  30.439  0.00  0.00    -0.572 OA
ATOM    153  S   IDS d  61      17.846  36.908  31.855  0.00  0.00     0.252 S 
ATOM    154  O2  IDS d  61      19.422  36.205  32.303  0.00  0.00    -0.244 OA
ATOM    155  H   IDS d  61      18.110  36.995  34.503  0.00  0.00     0.134 H 
ATOM    156  H   IDS d  61      20.493  36.788  34.011  0.00  0.00     0.097 H 
ATOM    157  H   IDS d  61      22.038  35.502  34.632  0.00  0.00     0.210 HD
ATOM    158  H   IDS d  61      19.992  32.556  33.721  0.00  0.00     0.085 H 
ATOM    159  H   IDS d  61      21.082  34.495  32.768  0.00  0.00     0.093 H 
ENDROOT
TORSDOF 50
ENDMDL
MODEL 70
REMARK VINA RESULT:      -5.1      5.382     14.416
REMARK  0 active torsions:
REMARK  status: ('A' for Active; 'I' for Inactive)
REMARK       I    between atoms: O3S_3  and  S1_55 
REMARK       I    between atoms: O3_4  and  C3_87 
REMARK       I    between atoms: O4_5  and  C1_15 
REMARK       I    between atoms: O4_5  and  C4_57 
REMARK       I    between atoms: O4_7  and  C1_36 
REMARK       I    between atoms: O4_7  and  C4_89 
REMARK       I    between atoms: C4_8  and  O4_18 
REMARK       I    between atoms: C2_9  and  O2_84 
REMARK       I    between atoms: C6_10  and  C5_32 
REMARK       I    between atoms: C6_10  and  O6_102 
REMARK       I    between atoms: O6_11  and  C6_93 
REMARK       I    between atoms: O6_11  and  S2_25 
REMARK       I    between atoms: C1_13  and  O4_74 
REMARK       I    between atoms: C3_14  and  O3_71 
REMARK       I    between atoms: O4_18  and  C1_54 
REMARK       I    between atoms: S2_19  and  O6_39 
REMARK       I    between atoms: O2S_21  and  S1_45 
REMARK       I    between atoms: C5_22  and  C6_23 
REMARK       I    between atoms: C5_24  and  C6_77 
REMARK       I    between atoms: O1_27  and  C1_48 
REMARK       I    between atoms: C5_28  and  C6_30 
REMARK       I    between atoms: C5_29  and  C6_93 
REMARK       I    between atoms: O1S_31  and  S1_44 
REMARK       I    between atoms: C3_33  and  O3_69 
REMARK       I    between atoms: C2_37  and  N_99 
REMARK       I    between atoms: S2_38  and  O6_102 
REMARK       I    between atoms: O6_39  and  C6_77 
REMARK       I    between atoms: C2_40  and  O2_103 
REMARK       I    between atoms: O3S_42  and  S1_44 
REMARK       I    between atoms: S1_44  and  N_99 
REMARK       I    between atoms: S1_44  and  O2S_81 
REMARK       I    between atoms: S1_45  and  N_94 
REMARK       I    between atoms: S1_45  and  O1S_46 
REMARK       I    between atoms: S1_45  and  O3S_58 
REMARK       I    between atoms: O3_52  and  C3_105 
REMARK       I    between atoms: S1_55  and  N_100 
REMARK       I    between atoms: S1_55  and  O1S_79 
REMARK       I    between atoms: S1_55  and  O2S_83 
REMARK       I    between atoms: O3_56  and  C3_64 
REMARK       I    between atoms: C4_60  and  O4_61 
REMARK       I    between atoms: O4_61  and  C1_73 
REMARK       I    between atoms: C6_63  and  C5_80 
REMARK       I    between atoms: C3_65  and  O3_82 
REMARK       I    between atoms: S_67  and  O2_84 
REMARK       I    between atoms: C2_68  and  O2_98 
REMARK       I    between atoms: O4_74  and  C4_97 
REMARK       I    between atoms: C2_85  and  N_94 
REMARK       I    between atoms: C2_95  and  N_100 
REMARK       I    between atoms: O2_98  and  S_104 
REMARK       I    between atoms: S_101  and  O2_103 
ROOT
ATOM      1  O6S SGN d  66      17.907  45.255  36.558  0.00  0.00    -0.572 OA
ATOM      2  C4  SGN d  66      18.174  40.572  35.613  0.00  0.00     0.095 C 
ATOM      3  C6  SGN d  66      16.128  41.992  35.195  0.00  0.00     0.067 C 
ATOM      4  O4  SGN d  66      17.688  40.280  37.007  0.00  0.00    -0.348 OA
ATOM      5  O5S SGN d  66      15.850  44.360  37.346  0.00  0.00    -0.572 OA
ATOM      6  O2S SGN d  66      20.873  39.505  30.709  0.00  0.00    -0.296 OA
ATOM      7  O5  SGN d  66      17.464  41.075  33.316  0.00  0.00    -0.350 OA
ATOM      8  O1  SGN d  66      17.569  38.743  32.728  0.00  0.00    -0.369 OA
ATOM      9  C5  SGN d  66      16.979  40.816  34.679  0.00  0.00     0.091 C 
ATOM     10  S2  SGN d  66      17.163  44.035  36.797  0.00  0.00     0.251 S 
ATOM     11  S1  SGN d  66      20.486  38.306  31.427  0.00  0.00     0.156 S 
ATOM     12  O1S SGN d  66      21.486  37.257  31.292  0.00  0.00    -0.296 OA
ATOM     13  C1  SGN d  66      18.280  39.997  32.748  0.00  0.00     0.147 C 
ATOM     14  O3S SGN d  66      19.228  37.777  30.921  0.00  0.00    -0.296 OA
ATOM     15  C3  SGN d  66      19.082  39.456  35.072  0.00  0.00     0.083 C 
ATOM     16  O3  SGN d  66      20.259  39.374  35.875  0.00  0.00    -0.391 OA
ATOM     17  C2  SGN d  66      19.518  39.817  33.650  0.00  0.00     0.081 C 
ATOM     18  O4S SGN d  66      17.917  43.188  37.711  0.00  0.00    -0.572 OA
ATOM     19  N   SGN d  66      20.389  38.743  33.153  0.00  0.00    -0.210 NA
ATOM     20  O6  SGN d  66      16.911  43.208  35.241  0.00  0.00    -0.254 OA
ATOM     21  H   SGN d  66      18.769  41.461  35.654  0.00  0.00     0.091 H 
ATOM     22  H   SGN d  66      15.776  41.764  36.179  0.00  0.00     0.080 H 
ATOM     23  H   SGN d  66      15.303  42.138  34.529  0.00  0.00     0.080 H 
ATOM     24  H   SGN d  66      21.712  39.838  31.065  0.00  0.00     0.231 HD
ATOM     25  H   SGN d  66      16.783  38.826  32.166  0.00  0.00     0.212 HD
ATOM     26  H   SGN d  66      16.358  39.945  34.660  0.00  0.00     0.090 H 
ATOM     27  H   SGN d  66      22.339  37.580  31.622  0.00  0.00     0.231 HD
ATOM     28  H   SGN d  66      18.537  40.260  31.743  0.00  0.00     0.131 H 
ATOM     29  H   SGN d  66      18.538  38.454  30.996  0.00  0.00     0.231 HD
ATOM     30  H   SGN d  66      18.551  38.528  35.087  0.00  0.00     0.089 H 
ATOM     31  H   SGN d  66      20.727  40.223  35.850  0.00  0.00     0.210 HD
ATOM     32  H   SGN d  66      20.055  40.743  33.643  0.00  0.00     0.076 H 
ATOM     33  H   SGN d  66      21.337  38.995  33.434  0.00  0.00     0.140 HD
ATOM     34  O61 IDS d  65      19.245  35.643  37.477  0.00  0.00    -0.646 OA
ATOM     35  O3  IDS d  65      15.034  38.128  39.500  0.00  0.00    -0.390 OA
ATOM     36  C5  IDS d  65      18.354  37.832  37.833  0.00  0.00     0.152 C 
ATOM     37  C6  IDS d  65      19.536  36.829  37.771  0.00  0.00     0.206 C 
ATOM     38  O5  IDS d  65      18.880  39.121  38.274  0.00  0.00    -0.340 OA
ATOM     39  C1  IDS d  65      17.917  40.199  38.406  0.00  0.00     0.161 C 
ATOM     40  O1S IDS d  65      13.095  40.328  39.801  0.00  0.00    -0.572 OA
ATOM     41  C4  IDS d  65      17.151  37.357  38.722  0.00  0.00     0.103 C 
ATOM     42  O4  IDS d  65      17.642  36.122  39.248  0.00  0.00    -0.348 OA
ATOM     43  C2  IDS d  65      16.434  39.735  38.521  0.00  0.00     0.134 C 
ATOM     44  O62 IDS d  65      20.714  37.243  37.990  0.00  0.00    -0.646 OA
ATOM     45  C3  IDS d  65      16.367  38.514  39.382  0.00  0.00     0.094 C 
ATOM     46  O2S IDS d  65      13.798  39.875  37.568  0.00  0.00    -0.572 OA
ATOM     47  O3S IDS d  65      13.558  42.127  38.280  0.00  0.00    -0.572 OA
ATOM     48  O2  IDS d  65      15.654  40.727  39.171  0.00  0.00    -0.244 OA
ATOM     49  S   IDS d  65      13.936  40.778  38.694  0.00  0.00     0.252 S 
ATOM     50  H   IDS d  65      14.975  37.336  40.056  0.00  0.00     0.210 HD
ATOM     51  H   IDS d  65      17.933  37.910  36.853  0.00  0.00     0.104 H 
ATOM     52  H   IDS d  65      18.244  40.914  39.133  0.00  0.00     0.133 H 
ATOM     53  H   IDS d  65      16.190  37.059  38.358  0.00  0.00     0.092 H 
ATOM     54  H   IDS d  65      16.068  39.550  37.533  0.00  0.00     0.097 H 
ATOM     55  H   IDS d  65      16.789  38.733  40.340  0.00  0.00     0.091 H 
ATOM     56  O3S SGN d  62      23.495  33.629  45.831  0.00  0.00    -0.296 OA
ATOM     57  C1  SGN d  62      20.546  32.435  47.228  0.00  0.00     0.150 C 
ATOM     58  S2  SGN d  62      16.197  30.616  50.853  0.00  0.00     0.251 S 
ATOM     59  C5  SGN d  62      19.450  31.194  49.088  0.00  0.00     0.091 C 
ATOM     60  O5  SGN d  62      19.776  32.473  48.472  0.00  0.00    -0.349 OA
ATOM     61  O4S SGN d  62      16.001  31.290  52.094  0.00  0.00    -0.572 OA
ATOM     62  O6  SGN d  62      17.898  30.307  50.600  0.00  0.00    -0.254 OA
ATOM     63  O3  SGN d  62      22.572  29.434  48.136  0.00  0.00    -0.391 OA
ATOM     64  S1  SGN d  62      23.781  32.214  45.781  0.00  0.00     0.156 S 
ATOM     65  O6S SGN d  62      15.669  31.359  49.712  0.00  0.00    -0.572 OA
ATOM     66  O4  SGN d  62      20.377  29.175  49.995  0.00  0.00    -0.348 OA
ATOM     67  C6  SGN d  62      18.675  31.466  50.356  0.00  0.00     0.067 C 
ATOM     68  O5S SGN d  62      15.567  29.324  50.882  0.00  0.00    -0.572 OA
ATOM     69  O1S SGN d  62      24.240  31.802  44.471  0.00  0.00    -0.296 OA
ATOM     70  O2S SGN d  62      24.734  31.919  46.812  0.00  0.00    -0.296 OA
ATOM     71  C2  SGN d  62      21.761  31.541  47.432  0.00  0.00     0.081 C 
ATOM     72  C4  SGN d  62      20.741  30.411  49.382  0.00  0.00     0.095 C 
ATOM     73  N   SGN d  62      22.354  31.283  46.159  0.00  0.00    -0.210 NA
ATOM     74  C3  SGN d  62      21.387  30.173  48.008  0.00  0.00     0.083 C 
ATOM     75  H   SGN d  62      22.851  33.853  45.141  0.00  0.00     0.231 HD
ATOM     76  H   SGN d  62      20.809  33.449  47.007  0.00  0.00     0.131 H 
ATOM     77  H   SGN d  62      18.853  30.599  48.430  0.00  0.00     0.090 H 
ATOM     78  H   SGN d  62      22.963  29.295  47.260  0.00  0.00     0.210 HD
ATOM     79  H   SGN d  62      18.041  32.318  50.227  0.00  0.00     0.080 H 
ATOM     80  H   SGN d  62      19.330  31.676  51.176  0.00  0.00     0.080 H 
ATOM     81  H   SGN d  62      23.566  32.021  43.808  0.00  0.00     0.231 HD
ATOM     82  H   SGN d  62      24.385  32.212  47.669  0.00  0.00     0.231 HD
ATOM     83  H   SGN d  62      22.414  32.050  48.110  0.00  0.00     0.076 H 
ATOM     84  H   SGN d  62      21.415  30.923  50.038  0.00  0.00     0.091 H 
ATOM     85  H   SGN d  62      22.607  30.295  46.127  0.00  0.00     0.140 HD
ATOM     86  H   SGN d  62      20.702  29.638  47.383  0.00  0.00     0.089 H 
ATOM     87  O4  IDS d  63      19.815  31.931  46.102  0.00  0.00    -0.348 OA
ATOM     88  O62 IDS d  63      16.437  31.345  44.745  0.00  0.00    -0.646 OA
ATOM     89  C2  IDS d  63      21.025  31.885  43.241  0.00  0.00     0.134 C 
ATOM     90  O2S IDS d  63      22.517  29.369  42.199  0.00  0.00    -0.572 OA
ATOM     91  O61 IDS d  63      16.708  33.179  45.863  0.00  0.00    -0.646 OA
ATOM     92  C3  IDS d  63      20.897  33.115  44.150  0.00  0.00     0.094 C 
ATOM     93  C1  IDS d  63      19.722  31.694  42.418  0.00  0.00     0.161 C 
ATOM     94  O5  IDS d  63      18.640  31.449  43.353  0.00  0.00    -0.340 OA
ATOM     95  C4  IDS d  63      19.645  32.939  45.114  0.00  0.00     0.103 C 
ATOM     96  C6  IDS d  63      17.085  32.353  45.033  0.00  0.00     0.206 C 
ATOM     97  S   IDS d  63      21.482  29.210  43.213  0.00  0.00     0.252 S 
ATOM     98  O3  IDS d  63      20.690  34.197  43.269  0.00  0.00    -0.390 OA
ATOM     99  C5  IDS d  63      18.387  32.591  44.272  0.00  0.00     0.152 C 
ATOM    100  O2  IDS d  63      21.342  30.771  44.033  0.00  0.00    -0.244 OA
ATOM    101  O1S IDS d  63      21.857  28.260  44.245  0.00  0.00    -0.572 OA
ATOM    102  O3S IDS d  63      20.295  28.781  42.533  0.00  0.00    -0.572 OA
ATOM    103  H   IDS d  63      21.814  32.016  42.530  0.00  0.00     0.097 H 
ATOM    104  H   IDS d  63      21.758  33.261  44.768  0.00  0.00     0.091 H 
ATOM    105  H   IDS d  63      19.739  30.863  41.744  0.00  0.00     0.133 H 
ATOM    106  H   IDS d  63      19.535  33.872  45.627  0.00  0.00     0.092 H 
ATOM    107  H   IDS d  63      19.903  34.028  42.729  0.00  0.00     0.210 HD
ATOM    108  H   IDS d  63      18.223  33.496  43.727  0.00  0.00     0.104 H 
ATOM    109  O4  SGN d  64      19.560  32.926  41.650  0.00  0.00    -0.348 OA
ATOM    110  O6  SGN d  64      19.353  32.050  37.599  0.00  0.00    -0.254 OA
ATOM    111  C3  SGN d  64      17.538  34.265  41.330  0.00  0.00     0.083 C 
ATOM    112  S2  SGN d  64      18.006  30.887  37.712  0.00  0.00     0.251 S 
ATOM    113  C5  SGN d  64      18.997  33.615  39.414  0.00  0.00     0.091 C 
ATOM    114  O1S SGN d  64      13.038  34.692  41.161  0.00  0.00    -0.296 OA
ATOM    115  C2  SGN d  64      16.396  34.474  40.385  0.00  0.00     0.081 C 
ATOM    116  O4S SGN d  64      18.471  29.746  38.457  0.00  0.00    -0.572 OA
ATOM    117  O3S SGN d  64      14.531  34.153  42.924  0.00  0.00    -0.296 OA
ATOM    118  S1  SGN d  64      14.178  35.156  41.935  0.00  0.00     0.156 S 
ATOM    119  O6S SGN d  64      16.858  31.471  38.375  0.00  0.00    -0.572 OA
ATOM    120  O5S SGN d  64      17.629  30.494  36.380  0.00  0.00    -0.572 OA
ATOM    121  O3  SGN d  64      16.979  33.901  42.540  0.00  0.00    -0.391 OA
ATOM    122  C1  SGN d  64      16.946  34.891  39.046  0.00  0.00     0.150 C 
ATOM    123  O2S SGN d  64      13.879  36.395  42.599  0.00  0.00    -0.296 OA
ATOM    124  C4  SGN d  64      18.446  33.139  40.770  0.00  0.00     0.095 C 
ATOM    125  O5  SGN d  64      17.840  33.866  38.563  0.00  0.00    -0.349 OA
ATOM    126  C6  SGN d  64      19.892  32.551  38.814  0.00  0.00     0.067 C 
ATOM    127  N   SGN d  64      15.551  35.533  40.881  0.00  0.00    -0.210 NA
ATOM    128  H   SGN d  64      18.139  35.142  41.451  0.00  0.00     0.089 H 
ATOM    129  H   SGN d  64      19.589  34.500  39.517  0.00  0.00     0.090 H 
ATOM    130  H   SGN d  64      13.263  33.856  40.724  0.00  0.00     0.231 HD
ATOM    131  H   SGN d  64      15.832  33.569  40.296  0.00  0.00     0.076 H 
ATOM    132  H   SGN d  64      14.732  33.316  42.478  0.00  0.00     0.231 HD
ATOM    133  H   SGN d  64      16.436  33.106  42.419  0.00  0.00     0.210 HD
ATOM    134  H   SGN d  64      16.172  35.022  38.320  0.00  0.00     0.131 H 
ATOM    135  H   SGN d  64      13.130  36.267  43.201  0.00  0.00     0.231 HD
ATOM    136  H   SGN d  64      17.884  32.233  40.676  0.00  0.00     0.091 H 
ATOM    137  H   SGN d  64      20.855  32.975  38.619  0.00  0.00     0.080 H 
ATOM    138  H   SGN d  64      19.970  31.742  39.510  0.00  0.00     0.080 H 
ATOM    139  H   SGN d  64      15.171  36.012  40.065  0.00  0.00     0.140 HD
ATOM    140  C1  IDS d  61      21.097  28.887  51.211  0.00  0.00     0.167 C 
ATOM    141  O5  IDS d  61      22.501  28.691  50.900  0.00  0.00    -0.311 OA
ATOM    142  C5  IDS d  61      22.925  27.506  50.314  0.00  0.00     0.147 C 
ATOM    143  C6  IDS d  61      24.443  27.420  49.890  0.00  0.00     0.233 C 
ATOM    144  C2  IDS d  61      20.547  27.585  51.784  0.00  0.00     0.135 C 
ATOM    145  O1S IDS d  61      23.260  28.863  53.226  0.00  0.00    -0.572 OA
ATOM    146  O3S IDS d  61      21.205  29.572  54.267  0.00  0.00    -0.572 OA
ATOM    147  O3  IDS d  61      19.735  26.375  49.976  0.00  0.00    -0.389 OA
ATOM    148  C4  IDS d  61      22.114  26.416  50.210  0.00  0.00    -0.034 C 
ATOM    149  C3  IDS d  61      20.782  26.375  50.880  0.00  0.00     0.086 C 
ATOM    150  O61 IDS d  61      24.889  26.376  49.414  0.00  0.00    -0.642 OA
ATOM    151  O62 IDS d  61      25.200  28.406  50.070  0.00  0.00    -0.642 OA
ATOM    152  O2S IDS d  61      22.608  27.858  55.171  0.00  0.00    -0.572 OA
ATOM    153  S   IDS d  61      22.105  28.464  53.986  0.00  0.00     0.252 S 
ATOM    154  O2  IDS d  61      21.195  27.267  53.028  0.00  0.00    -0.244 OA
ATOM    155  H   IDS d  61      20.987  29.692  51.906  0.00  0.00     0.134 H 
ATOM    156  H   IDS d  61      19.497  27.758  51.896  0.00  0.00     0.097 H 
ATOM    157  H   IDS d  61      18.892  26.348  50.456  0.00  0.00     0.210 HD
ATOM    158  H   IDS d  61      22.427  25.603  49.657  0.00  0.00     0.085 H 
ATOM    159  H   IDS d  61      20.802  25.468  51.445  0.00  0.00     0.093 H 
ENDROOT
TORSDOF 50
ENDMDL
MODEL 71
REMARK VINA RESULT:      -5.0      4.929     15.134
REMARK  0 active torsions:
REMARK  status: ('A' for Active; 'I' for Inactive)
REMARK       I    between atoms: O3S_3  and  S1_55 
REMARK       I    between atoms: O3_4  and  C3_87 
REMARK       I    between atoms: O4_5  and  C1_15 
REMARK       I    between atoms: O4_5  and  C4_57 
REMARK       I    between atoms: O4_7  and  C1_36 
REMARK       I    between atoms: O4_7  and  C4_89 
REMARK       I    between atoms: C4_8  and  O4_18 
REMARK       I    between atoms: C2_9  and  O2_84 
REMARK       I    between atoms: C6_10  and  C5_32 
REMARK       I    between atoms: C6_10  and  O6_102 
REMARK       I    between atoms: O6_11  and  C6_93 
REMARK       I    between atoms: O6_11  and  S2_25 
REMARK       I    between atoms: C1_13  and  O4_74 
REMARK       I    between atoms: C3_14  and  O3_71 
REMARK       I    between atoms: O4_18  and  C1_54 
REMARK       I    between atoms: S2_19  and  O6_39 
REMARK       I    between atoms: O2S_21  and  S1_45 
REMARK       I    between atoms: C5_22  and  C6_23 
REMARK       I    between atoms: C5_24  and  C6_77 
REMARK       I    between atoms: O1_27  and  C1_48 
REMARK       I    between atoms: C5_28  and  C6_30 
REMARK       I    between atoms: C5_29  and  C6_93 
REMARK       I    between atoms: O1S_31  and  S1_44 
REMARK       I    between atoms: C3_33  and  O3_69 
REMARK       I    between atoms: C2_37  and  N_99 
REMARK       I    between atoms: S2_38  and  O6_102 
REMARK       I    between atoms: O6_39  and  C6_77 
REMARK       I    between atoms: C2_40  and  O2_103 
REMARK       I    between atoms: O3S_42  and  S1_44 
REMARK       I    between atoms: S1_44  and  N_99 
REMARK       I    between atoms: S1_44  and  O2S_81 
REMARK       I    between atoms: S1_45  and  N_94 
REMARK       I    between atoms: S1_45  and  O1S_46 
REMARK       I    between atoms: S1_45  and  O3S_58 
REMARK       I    between atoms: O3_52  and  C3_105 
REMARK       I    between atoms: S1_55  and  N_100 
REMARK       I    between atoms: S1_55  and  O1S_79 
REMARK       I    between atoms: S1_55  and  O2S_83 
REMARK       I    between atoms: O3_56  and  C3_64 
REMARK       I    between atoms: C4_60  and  O4_61 
REMARK       I    between atoms: O4_61  and  C1_73 
REMARK       I    between atoms: C6_63  and  C5_80 
REMARK       I    between atoms: C3_65  and  O3_82 
REMARK       I    between atoms: S_67  and  O2_84 
REMARK       I    between atoms: C2_68  and  O2_98 
REMARK       I    between atoms: O4_74  and  C4_97 
REMARK       I    between atoms: C2_85  and  N_94 
REMARK       I    between atoms: C2_95  and  N_100 
REMARK       I    between atoms: O2_98  and  S_104 
REMARK       I    between atoms: S_101  and  O2_103 
ROOT
ATOM      1  O6S SGN d  66      23.844  34.747  29.000  0.00  0.00    -0.572 OA
ATOM      2  C4  SGN d  66      20.704  37.017  31.807  0.00  0.00     0.095 C 
ATOM      3  C6  SGN d  66      22.722  38.112  30.759  0.00  0.00     0.067 C 
ATOM      4  O4  SGN d  66      21.529  36.640  33.008  0.00  0.00    -0.348 OA
ATOM      5  O5S SGN d  66      25.179  36.066  30.461  0.00  0.00    -0.572 OA
ATOM      6  O2S SGN d  66      15.971  38.501  29.000  0.00  0.00    -0.296 OA
ATOM      7  O5  SGN d  66      20.423  38.676  30.019  0.00  0.00    -0.350 OA
ATOM      8  O1  SGN d  66      18.825  39.896  31.342  0.00  0.00    -0.369 OA
ATOM      9  C5  SGN d  66      21.252  38.304  31.173  0.00  0.00     0.091 C 
ATOM     10  S2  SGN d  66      23.824  35.613  30.162  0.00  0.00     0.251 S 
ATOM     11  S1  SGN d  66      15.930  38.825  30.413  0.00  0.00     0.156 S 
ATOM     12  O1S SGN d  66      14.596  38.636  30.965  0.00  0.00    -0.296 OA
ATOM     13  C1  SGN d  66      19.005  38.885  30.331  0.00  0.00     0.147 C 
ATOM     14  O3S SGN d  66      16.302  40.213  30.642  0.00  0.00    -0.296 OA
ATOM     15  C3  SGN d  66      19.212  37.160  32.153  0.00  0.00     0.083 C 
ATOM     16  O3  SGN d  66      18.704  35.898  32.584  0.00  0.00    -0.391 OA
ATOM     17  C2  SGN d  66      18.447  37.561  30.890  0.00  0.00     0.081 C 
ATOM     18  O4S SGN d  66      23.254  34.887  31.288  0.00  0.00    -0.572 OA
ATOM     19  N   SGN d  66      17.025  37.686  31.239  0.00  0.00    -0.210 NA
ATOM     20  O6  SGN d  66      22.844  37.051  29.783  0.00  0.00    -0.254 OA
ATOM     21  H   SGN d  66      20.779  36.221  31.096  0.00  0.00     0.091 H 
ATOM     22  H   SGN d  66      23.300  37.861  31.624  0.00  0.00     0.080 H 
ATOM     23  H   SGN d  66      23.080  39.022  30.324  0.00  0.00     0.080 H 
ATOM     24  H   SGN d  66      15.720  37.572  28.875  0.00  0.00     0.231 HD
ATOM     25  H   SGN d  66      19.168  40.743  31.018  0.00  0.00     0.212 HD
ATOM     26  H   SGN d  66      21.213  39.098  31.890  0.00  0.00     0.090 H 
ATOM     27  H   SGN d  66      14.318  37.717  30.827  0.00  0.00     0.231 HD
ATOM     28  H   SGN d  66      18.504  39.199  29.440  0.00  0.00     0.131 H 
ATOM     29  H   SGN d  66      17.190  40.373  30.284  0.00  0.00     0.231 HD
ATOM     30  H   SGN d  66      19.096  37.895  32.922  0.00  0.00     0.089 H 
ATOM     31  H   SGN d  66      18.818  35.246  31.875  0.00  0.00     0.210 HD
ATOM     32  H   SGN d  66      18.561  36.818  30.127  0.00  0.00     0.076 H 
ATOM     33  H   SGN d  66      16.618  36.760  31.110  0.00  0.00     0.140 HD
ATOM     34  O61 IDS d  65      18.149  37.152  36.538  0.00  0.00    -0.646 OA
ATOM     35  O3  IDS d  65      23.392  37.863  36.602  0.00  0.00    -0.390 OA
ATOM     36  C5  IDS d  65      20.120  36.674  35.273  0.00  0.00     0.152 C 
ATOM     37  C6  IDS d  65      18.715  36.296  35.814  0.00  0.00     0.206 C 
ATOM     38  O5  IDS d  65      20.643  35.526  34.538  0.00  0.00    -0.340 OA
ATOM     39  C1  IDS d  65      21.965  35.679  33.957  0.00  0.00     0.161 C 
ATOM     40  O1S IDS d  65      26.085  38.140  35.436  0.00  0.00    -0.572 OA
ATOM     41  C4  IDS d  65      21.123  37.170  36.373  0.00  0.00     0.103 C 
ATOM     42  O4  IDS d  65      20.352  37.014  37.567  0.00  0.00    -0.348 OA
ATOM     43  C2  IDS d  65      22.817  36.827  34.578  0.00  0.00     0.134 C 
ATOM     44  O62 IDS d  65      18.206  35.181  35.492  0.00  0.00    -0.646 OA
ATOM     45  C3  IDS d  65      22.603  36.853  36.058  0.00  0.00     0.094 C 
ATOM     46  O2S IDS d  65      24.321  39.167  34.205  0.00  0.00    -0.572 OA
ATOM     47  O3S IDS d  65      26.028  37.999  33.040  0.00  0.00    -0.572 OA
ATOM     48  O2  IDS d  65      24.200  36.580  34.378  0.00  0.00    -0.244 OA
ATOM     49  S   IDS d  65      25.225  38.036  34.259  0.00  0.00     0.252 S 
ATOM     50  H   IDS d  65      23.263  37.892  37.563  0.00  0.00     0.210 HD
ATOM     51  H   IDS d  65      20.010  37.519  34.627  0.00  0.00     0.104 H 
ATOM     52  H   IDS d  65      22.451  34.730  33.863  0.00  0.00     0.133 H 
ATOM     53  H   IDS d  65      21.476  38.174  36.484  0.00  0.00     0.092 H 
ATOM     54  H   IDS d  65      22.524  37.745  34.114  0.00  0.00     0.097 H 
ATOM     55  H   IDS d  65      22.861  35.900  36.470  0.00  0.00     0.091 H 
ATOM     56  O3S SGN d  62      17.889  30.034  42.954  0.00  0.00    -0.296 OA
ATOM     57  C1  SGN d  62      19.974  31.729  45.158  0.00  0.00     0.150 C 
ATOM     58  S2  SGN d  62      23.735  33.317  49.482  0.00  0.00     0.251 S 
ATOM     59  C5  SGN d  62      20.935  31.880  47.451  0.00  0.00     0.091 C 
ATOM     60  O5  SGN d  62      21.109  31.506  46.054  0.00  0.00    -0.349 OA
ATOM     61  O4S SGN d  62      24.804  32.441  49.827  0.00  0.00    -0.572 OA
ATOM     62  O6  SGN d  62      22.249  32.413  49.314  0.00  0.00    -0.254 OA
ATOM     63  O3  SGN d  62      17.343  30.994  47.703  0.00  0.00    -0.391 OA
ATOM     64  S1  SGN d  62      16.903  30.437  43.930  0.00  0.00     0.156 S 
ATOM     65  O6S SGN d  62      23.984  34.065  48.253  0.00  0.00    -0.572 OA
ATOM     66  O4  SGN d  62      19.608  31.511  49.416  0.00  0.00    -0.348 OA
ATOM     67  C6  SGN d  62      22.210  31.552  48.190  0.00  0.00     0.067 C 
ATOM     68  O5S SGN d  62      23.498  34.259  50.543  0.00  0.00    -0.572 OA
ATOM     69  O1S SGN d  62      15.756  31.067  43.309  0.00  0.00    -0.296 OA
ATOM     70  O2S SGN d  62      16.543  29.280  44.698  0.00  0.00    -0.296 OA
ATOM     71  C2  SGN d  62      18.728  31.125  45.789  0.00  0.00     0.081 C 
ATOM     72  C4  SGN d  62      19.735  31.126  48.049  0.00  0.00     0.095 C 
ATOM     73  N   SGN d  62      17.585  31.578  45.061  0.00  0.00    -0.210 NA
ATOM     74  C3  SGN d  62      18.520  31.594  47.232  0.00  0.00     0.083 C 
ATOM     75  H   SGN d  62      18.149  30.802  42.421  0.00  0.00     0.231 HD
ATOM     76  H   SGN d  62      20.232  31.269  44.227  0.00  0.00     0.131 H 
ATOM     77  H   SGN d  62      20.735  32.928  47.538  0.00  0.00     0.090 H 
ATOM     78  H   SGN d  62      16.590  31.301  47.175  0.00  0.00     0.210 HD
ATOM     79  H   SGN d  62      23.059  31.724  47.561  0.00  0.00     0.080 H 
ATOM     80  H   SGN d  62      22.236  30.524  48.485  0.00  0.00     0.080 H 
ATOM     81  H   SGN d  62      16.047  31.841  42.802  0.00  0.00     0.231 HD
ATOM     82  H   SGN d  62      17.340  28.893  45.093  0.00  0.00     0.231 HD
ATOM     83  H   SGN d  62      18.849  30.062  45.771  0.00  0.00     0.076 H 
ATOM     84  H   SGN d  62      19.834  30.061  48.010  0.00  0.00     0.091 H 
ATOM     85  H   SGN d  62      16.860  31.820  45.737  0.00  0.00     0.140 HD
ATOM     86  H   SGN d  62      18.430  32.657  47.309  0.00  0.00     0.089 H 
ATOM     87  O4  IDS d  63      19.704  33.110  44.889  0.00  0.00    -0.348 OA
ATOM     88  O62 IDS d  63      21.156  36.500  44.887  0.00  0.00    -0.646 OA
ATOM     89  C2  IDS d  63      17.511  33.997  42.873  0.00  0.00     0.134 C 
ATOM     90  O2S IDS d  63      14.625  34.600  43.847  0.00  0.00    -0.572 OA
ATOM     91  O61 IDS d  63      22.463  34.905  44.229  0.00  0.00    -0.646 OA
ATOM     92  C3  IDS d  63      18.680  33.047  42.580  0.00  0.00     0.094 C 
ATOM     93  C1  IDS d  63      17.953  35.469  42.650  0.00  0.00     0.161 C 
ATOM     94  O5  IDS d  63      19.016  35.761  43.594  0.00  0.00    -0.340 OA
ATOM     95  C4  IDS d  63      19.913  33.411  43.515  0.00  0.00     0.103 C 
ATOM     96  C6  IDS d  63      21.372  35.472  44.242  0.00  0.00     0.206 C 
ATOM     97  S   IDS d  63      15.736  34.776  44.773  0.00  0.00     0.252 S 
ATOM     98  O3  IDS d  63      19.005  33.279  41.227  0.00  0.00    -0.390 OA
ATOM     99  C5  IDS d  63      20.230  34.926  43.389  0.00  0.00     0.152 C 
ATOM    100  O2  IDS d  63      17.051  33.754  44.176  0.00  0.00    -0.244 OA
ATOM    101  O1S IDS d  63      15.433  34.285  46.105  0.00  0.00    -0.572 OA
ATOM    102  O3S IDS d  63      16.034  36.179  44.803  0.00  0.00    -0.572 OA
ATOM    103  H   IDS d  63      16.698  33.820  42.201  0.00  0.00     0.097 H 
ATOM    104  H   IDS d  63      18.433  32.022  42.762  0.00  0.00     0.091 H 
ATOM    105  H   IDS d  63      17.185  36.195  42.819  0.00  0.00     0.133 H 
ATOM    106  H   IDS d  63      20.728  32.805  43.177  0.00  0.00     0.092 H 
ATOM    107  H   IDS d  63      19.223  34.216  41.103  0.00  0.00     0.210 HD
ATOM    108  H   IDS d  63      20.583  35.000  42.382  0.00  0.00     0.104 H 
ATOM    109  O4  SGN d  64      18.378  35.542  41.254  0.00  0.00    -0.348 OA
ATOM    110  O6  SGN d  64      16.196  38.456  39.262  0.00  0.00    -0.254 OA
ATOM    111  C3  SGN d  64      20.382  36.594  40.327  0.00  0.00     0.083 C 
ATOM    112  S2  SGN d  64      16.575  39.793  40.380  0.00  0.00     0.251 S 
ATOM    113  C5  SGN d  64      18.121  36.988  39.348  0.00  0.00     0.091 C 
ATOM    114  O1S SGN d  64      23.718  39.644  40.510  0.00  0.00    -0.296 OA
ATOM    115  C2  SGN d  64      20.870  37.866  39.705  0.00  0.00     0.081 C 
ATOM    116  O4S SGN d  64      15.974  39.486  41.652  0.00  0.00    -0.572 OA
ATOM    117  O3S SGN d  64      23.180  37.774  41.868  0.00  0.00    -0.296 OA
ATOM    118  S1  SGN d  64      23.516  38.204  40.522  0.00  0.00     0.156 S 
ATOM    119  O6S SGN d  64      18.005  39.957  40.540  0.00  0.00    -0.572 OA
ATOM    120  O5S SGN d  64      16.020  41.007  39.845  0.00  0.00    -0.572 OA
ATOM    121  O3  SGN d  64      21.137  36.407  41.469  0.00  0.00    -0.391 OA
ATOM    122  C1  SGN d  64      20.090  38.114  38.439  0.00  0.00     0.150 C 
ATOM    123  O2S SGN d  64      24.698  37.515  40.083  0.00  0.00    -0.296 OA
ATOM    124  C4  SGN d  64      18.878  36.753  40.668  0.00  0.00     0.095 C 
ATOM    125  O5  SGN d  64      18.685  38.197  38.759  0.00  0.00    -0.349 OA
ATOM    126  C6  SGN d  64      16.641  37.154  39.618  0.00  0.00     0.067 C 
ATOM    127  N   SGN d  64      22.264  37.729  39.363  0.00  0.00    -0.210 NA
ATOM    128  H   SGN d  64      20.484  35.751  39.675  0.00  0.00     0.089 H 
ATOM    129  H   SGN d  64      18.227  36.158  38.680  0.00  0.00     0.090 H 
ATOM    130  H   SGN d  64      22.908  40.086  40.810  0.00  0.00     0.231 HD
ATOM    131  H   SGN d  64      20.740  38.675  40.392  0.00  0.00     0.076 H 
ATOM    132  H   SGN d  64      22.383  38.239  42.166  0.00  0.00     0.231 HD
ATOM    133  H   SGN d  64      21.038  37.177  42.051  0.00  0.00     0.210 HD
ATOM    134  H   SGN d  64      20.375  39.032  37.969  0.00  0.00     0.131 H 
ATOM    135  H   SGN d  64      25.435  37.728  40.676  0.00  0.00     0.231 HD
ATOM    136  H   SGN d  64      18.744  37.565  41.353  0.00  0.00     0.091 H 
ATOM    137  H   SGN d  64      16.099  36.432  39.045  0.00  0.00     0.080 H 
ATOM    138  H   SGN d  64      16.470  37.012  40.665  0.00  0.00     0.080 H 
ATOM    139  H   SGN d  64      22.416  38.285  38.521  0.00  0.00     0.140 HD
ATOM    140  C1  IDS d  61      19.502  30.403  50.333  0.00  0.00     0.167 C 
ATOM    141  O5  IDS d  61      18.260  29.694  50.082  0.00  0.00    -0.311 OA
ATOM    142  C5  IDS d  61      17.054  30.228  50.516  0.00  0.00     0.147 C 
ATOM    143  C6  IDS d  61      15.740  29.463  50.094  0.00  0.00     0.233 C 
ATOM    144  C2  IDS d  61      19.453  30.968  51.748  0.00  0.00     0.135 C 
ATOM    145  O1S IDS d  61      18.882  27.711  51.384  0.00  0.00    -0.572 OA
ATOM    146  O3S IDS d  61      21.195  28.228  51.824  0.00  0.00    -0.572 OA
ATOM    147  O3  IDS d  61      18.548  33.099  51.563  0.00  0.00    -0.389 OA
ATOM    148  C4  IDS d  61      16.994  31.293  51.364  0.00  0.00    -0.034 C 
ATOM    149  C3  IDS d  61      18.222  31.833  52.016  0.00  0.00     0.086 C 
ATOM    150  O61 IDS d  61      14.645  29.859  50.493  0.00  0.00    -0.642 OA
ATOM    151  O62 IDS d  61      15.817  28.432  49.381  0.00  0.00    -0.642 OA
ATOM    152  O2S IDS d  61      19.695  27.408  53.498  0.00  0.00    -0.572 OA
ATOM    153  S   IDS d  61      19.834  28.219  52.337  0.00  0.00     0.252 S 
ATOM    154  O2  IDS d  61      19.394  29.906  52.715  0.00  0.00    -0.244 OA
ATOM    155  H   IDS d  61      20.332  29.740  50.210  0.00  0.00     0.134 H 
ATOM    156  H   IDS d  61      20.340  31.560  51.836  0.00  0.00     0.097 H 
ATOM    157  H   IDS d  61      19.350  33.408  52.014  0.00  0.00     0.210 HD
ATOM    158  H   IDS d  61      16.082  31.734  51.559  0.00  0.00     0.085 H 
ATOM    159  H   IDS d  61      17.979  31.849  53.058  0.00  0.00     0.093 H 
ENDROOT
TORSDOF 50
ENDMDL
MODEL 72
REMARK VINA RESULT:      -5.0      4.870     17.130
REMARK  0 active torsions:
REMARK  status: ('A' for Active; 'I' for Inactive)
REMARK       I    between atoms: O3S_3  and  S1_55 
REMARK       I    between atoms: O3_4  and  C3_87 
REMARK       I    between atoms: O4_5  and  C1_15 
REMARK       I    between atoms: O4_5  and  C4_57 
REMARK       I    between atoms: O4_7  and  C1_36 
REMARK       I    between atoms: O4_7  and  C4_89 
REMARK       I    between atoms: C4_8  and  O4_18 
REMARK       I    between atoms: C2_9  and  O2_84 
REMARK       I    between atoms: C6_10  and  C5_32 
REMARK       I    between atoms: C6_10  and  O6_102 
REMARK       I    between atoms: O6_11  and  C6_93 
REMARK       I    between atoms: O6_11  and  S2_25 
REMARK       I    between atoms: C1_13  and  O4_74 
REMARK       I    between atoms: C3_14  and  O3_71 
REMARK       I    between atoms: O4_18  and  C1_54 
REMARK       I    between atoms: S2_19  and  O6_39 
REMARK       I    between atoms: O2S_21  and  S1_45 
REMARK       I    between atoms: C5_22  and  C6_23 
REMARK       I    between atoms: C5_24  and  C6_77 
REMARK       I    between atoms: O1_27  and  C1_48 
REMARK       I    between atoms: C5_28  and  C6_30 
REMARK       I    between atoms: C5_29  and  C6_93 
REMARK       I    between atoms: O1S_31  and  S1_44 
REMARK       I    between atoms: C3_33  and  O3_69 
REMARK       I    between atoms: C2_37  and  N_99 
REMARK       I    between atoms: S2_38  and  O6_102 
REMARK       I    between atoms: O6_39  and  C6_77 
REMARK       I    between atoms: C2_40  and  O2_103 
REMARK       I    between atoms: O3S_42  and  S1_44 
REMARK       I    between atoms: S1_44  and  N_99 
REMARK       I    between atoms: S1_44  and  O2S_81 
REMARK       I    between atoms: S1_45  and  N_94 
REMARK       I    between atoms: S1_45  and  O1S_46 
REMARK       I    between atoms: S1_45  and  O3S_58 
REMARK       I    between atoms: O3_52  and  C3_105 
REMARK       I    between atoms: S1_55  and  N_100 
REMARK       I    between atoms: S1_55  and  O1S_79 
REMARK       I    between atoms: S1_55  and  O2S_83 
REMARK       I    between atoms: O3_56  and  C3_64 
REMARK       I    between atoms: C4_60  and  O4_61 
REMARK       I    between atoms: O4_61  and  C1_73 
REMARK       I    between atoms: C6_63  and  C5_80 
REMARK       I    between atoms: C3_65  and  O3_82 
REMARK       I    between atoms: S_67  and  O2_84 
REMARK       I    between atoms: C2_68  and  O2_98 
REMARK       I    between atoms: O4_74  and  C4_97 
REMARK       I    between atoms: C2_85  and  N_94 
REMARK       I    between atoms: C2_95  and  N_100 
REMARK       I    between atoms: O2_98  and  S_104 
REMARK       I    between atoms: S_101  and  O2_103 
ROOT
ATOM      1  O6S SGN d  66      23.384  37.346  30.839  0.00  0.00    -0.572 OA
ATOM      2  C4  SGN d  66      19.590  36.271  33.550  0.00  0.00     0.095 C 
ATOM      3  C6  SGN d  66      19.451  37.392  31.292  0.00  0.00     0.067 C 
ATOM      4  O4  SGN d  66      19.703  37.618  34.213  0.00  0.00    -0.348 OA
ATOM      5  O5S SGN d  66      21.992  39.272  30.725  0.00  0.00    -0.572 OA
ATOM      6  O2S SGN d  66      18.113  30.784  33.125  0.00  0.00    -0.296 OA
ATOM      7  O5  SGN d  66      18.654  35.067  31.625  0.00  0.00    -0.350 OA
ATOM      8  O1  SGN d  66      16.703  34.463  32.897  0.00  0.00    -0.369 OA
ATOM      9  C5  SGN d  66      18.780  36.390  32.250  0.00  0.00     0.091 C 
ATOM     10  S2  SGN d  66      22.184  37.971  31.360  0.00  0.00     0.251 S 
ATOM     11  S1  SGN d  66      17.310  31.525  34.078  0.00  0.00     0.156 S 
ATOM     12  O1S SGN d  66      16.969  30.711  35.235  0.00  0.00    -0.296 OA
ATOM     13  C1  SGN d  66      18.017  34.053  32.473  0.00  0.00     0.147 C 
ATOM     14  O3S SGN d  66      16.063  31.971  33.476  0.00  0.00    -0.296 OA
ATOM     15  C3  SGN d  66      18.983  35.214  34.487  0.00  0.00     0.083 C 
ATOM     16  O3  SGN d  66      19.851  35.017  35.602  0.00  0.00    -0.391 OA
ATOM     17  C2  SGN d  66      18.885  33.884  33.736  0.00  0.00     0.081 C 
ATOM     18  O4S SGN d  66      22.308  38.108  32.805  0.00  0.00    -0.572 OA
ATOM     19  N   SGN d  66      18.309  32.887  34.650  0.00  0.00    -0.210 NA
ATOM     20  O6  SGN d  66      20.785  36.953  30.944  0.00  0.00    -0.254 OA
ATOM     21  H   SGN d  66      20.579  35.939  33.312  0.00  0.00     0.091 H 
ATOM     22  H   SGN d  66      19.510  38.348  31.769  0.00  0.00     0.080 H 
ATOM     23  H   SGN d  66      18.866  37.458  30.398  0.00  0.00     0.080 H 
ATOM     24  H   SGN d  66      18.937  30.499  33.549  0.00  0.00     0.231 HD
ATOM     25  H   SGN d  66      16.133  34.577  32.121  0.00  0.00     0.212 HD
ATOM     26  H   SGN d  66      17.800  36.756  32.474  0.00  0.00     0.090 H 
ATOM     27  H   SGN d  66      17.783  30.397  35.660  0.00  0.00     0.231 HD
ATOM     28  H   SGN d  66      17.929  33.148  31.911  0.00  0.00     0.131 H 
ATOM     29  H   SGN d  66      16.255  32.518  32.699  0.00  0.00     0.231 HD
ATOM     30  H   SGN d  66      18.019  35.543  34.815  0.00  0.00     0.089 H 
ATOM     31  H   SGN d  66      20.719  34.720  35.287  0.00  0.00     0.210 HD
ATOM     32  H   SGN d  66      19.853  33.557  33.418  0.00  0.00     0.076 H 
ATOM     33  H   SGN d  66      19.096  32.470  35.147  0.00  0.00     0.140 HD
ATOM     34  O61 IDS d  65      17.187  36.727  38.339  0.00  0.00    -0.646 OA
ATOM     35  O3  IDS d  65      17.770  41.153  35.498  0.00  0.00    -0.390 OA
ATOM     36  C5  IDS d  65      18.536  37.680  36.611  0.00  0.00     0.152 C 
ATOM     37  C6  IDS d  65      18.353  36.799  37.876  0.00  0.00     0.206 C 
ATOM     38  O5  IDS d  65      19.960  37.708  36.285  0.00  0.00    -0.340 OA
ATOM     39  C1  IDS d  65      20.340  38.496  35.128  0.00  0.00     0.161 C 
ATOM     40  O1S IDS d  65      18.573  42.768  33.166  0.00  0.00    -0.572 OA
ATOM     41  C4  IDS d  65      17.938  39.125  36.739  0.00  0.00     0.103 C 
ATOM     42  O4  IDS d  65      17.473  39.134  38.091  0.00  0.00    -0.348 OA
ATOM     43  C2  IDS d  65      19.286  39.556  34.688  0.00  0.00     0.134 C 
ATOM     44  O62 IDS d  65      19.354  36.189  38.358  0.00  0.00    -0.646 OA
ATOM     45  C3  IDS d  65      18.688  40.188  35.905  0.00  0.00     0.094 C 
ATOM     46  O2S IDS d  65      17.658  40.624  32.666  0.00  0.00    -0.572 OA
ATOM     47  O3S IDS d  65      19.533  41.406  31.438  0.00  0.00    -0.572 OA
ATOM     48  O2  IDS d  65      19.909  40.603  33.959  0.00  0.00    -0.244 OA
ATOM     49  S   IDS d  65      18.878  41.403  32.743  0.00  0.00     0.252 S 
ATOM     50  H   IDS d  65      17.373  41.571  36.278  0.00  0.00     0.210 HD
ATOM     51  H   IDS d  65      17.974  37.239  35.815  0.00  0.00     0.104 H 
ATOM     52  H   IDS d  65      21.348  38.846  35.221  0.00  0.00     0.133 H 
ATOM     53  H   IDS d  65      17.074  39.487  36.222  0.00  0.00     0.092 H 
ATOM     54  H   IDS d  65      18.549  39.063  34.090  0.00  0.00     0.097 H 
ATOM     55  H   IDS d  65      19.466  40.624  36.496  0.00  0.00     0.091 H 
ATOM     56  O3S SGN d  62      21.297  39.983  46.366  0.00  0.00    -0.296 OA
ATOM     57  C1  SGN d  62      19.481  42.944  46.285  0.00  0.00     0.150 C 
ATOM     58  S2  SGN d  62      17.411  48.469  47.031  0.00  0.00     0.251 S 
ATOM     59  C5  SGN d  62      18.762  45.005  47.485  0.00  0.00     0.091 C 
ATOM     60  O5  SGN d  62      19.636  44.384  46.500  0.00  0.00    -0.349 OA
ATOM     61  O4S SGN d  62      18.336  49.548  47.138  0.00  0.00    -0.572 OA
ATOM     62  O6  SGN d  62      17.935  47.129  48.022  0.00  0.00    -0.254 OA
ATOM     63  O3  SGN d  62      18.620  42.133  49.827  0.00  0.00    -0.391 OA
ATOM     64  S1  SGN d  62      20.352  39.694  47.420  0.00  0.00     0.156 S 
ATOM     65  O6S SGN d  62      17.229  48.009  45.657  0.00  0.00    -0.572 OA
ATOM     66  O4  SGN d  62      18.086  44.970  49.786  0.00  0.00    -0.348 OA
ATOM     67  C6  SGN d  62      19.102  46.475  47.556  0.00  0.00     0.067 C 
ATOM     68  O5S SGN d  62      16.128  48.858  47.551  0.00  0.00    -0.572 OA
ATOM     69  O1S SGN d  62      19.729  38.399  47.248  0.00  0.00    -0.296 OA
ATOM     70  O2S SGN d  62      21.042  39.807  48.673  0.00  0.00    -0.296 OA
ATOM     71  C2  SGN d  62      19.507  42.244  47.636  0.00  0.00     0.081 C 
ATOM     72  C4  SGN d  62      18.948  44.325  48.852  0.00  0.00     0.095 C 
ATOM     73  N   SGN d  62      19.083  40.892  47.456  0.00  0.00    -0.210 NA
ATOM     74  C3  SGN d  62      18.524  42.864  48.633  0.00  0.00     0.083 C 
ATOM     75  H   SGN d  62      20.852  39.913  45.506  0.00  0.00     0.231 HD
ATOM     76  H   SGN d  62      20.287  42.647  45.648  0.00  0.00     0.131 H 
ATOM     77  H   SGN d  62      17.736  44.892  47.204  0.00  0.00     0.090 H 
ATOM     78  H   SGN d  62      18.349  41.216  49.667  0.00  0.00     0.210 HD
ATOM     79  H   SGN d  62      19.370  46.841  46.587  0.00  0.00     0.080 H 
ATOM     80  H   SGN d  62      19.934  46.652  48.205  0.00  0.00     0.080 H 
ATOM     81  H   SGN d  62      19.277  38.369  46.390  0.00  0.00     0.231 HD
ATOM     82  H   SGN d  62      21.442  40.688  48.744  0.00  0.00     0.231 HD
ATOM     83  H   SGN d  62      20.504  42.329  48.015  0.00  0.00     0.076 H 
ATOM     84  H   SGN d  62      19.949  44.380  49.228  0.00  0.00     0.091 H 
ATOM     85  H   SGN d  62      18.452  40.657  48.222  0.00  0.00     0.140 HD
ATOM     86  H   SGN d  62      17.513  42.838  48.283  0.00  0.00     0.089 H 
ATOM     87  O4  IDS d  63      18.262  42.579  45.626  0.00  0.00    -0.348 OA
ATOM     88  O62 IDS d  63      15.542  43.813  43.463  0.00  0.00    -0.646 OA
ATOM     89  C2  IDS d  63      17.650  39.646  44.802  0.00  0.00     0.134 C 
ATOM     90  O2S IDS d  63      16.073  37.769  46.708  0.00  0.00    -0.572 OA
ATOM     91  O61 IDS d  63      17.528  44.537  42.999  0.00  0.00    -0.646 OA
ATOM     92  C3  IDS d  63      18.892  40.457  44.408  0.00  0.00     0.094 C 
ATOM     93  C1  IDS d  63      16.503  39.902  43.788  0.00  0.00     0.161 C 
ATOM     94  O5  IDS d  63      16.158  41.310  43.854  0.00  0.00    -0.340 OA
ATOM     95  C4  IDS d  63      18.525  42.003  44.352  0.00  0.00     0.103 C 
ATOM     96  C6  IDS d  63      16.751  43.634  43.307  0.00  0.00     0.206 C 
ATOM     97  S   IDS d  63      15.851  39.207  46.787  0.00  0.00     0.252 S 
ATOM     98  O3  IDS d  63      19.238  39.989  43.123  0.00  0.00    -0.390 OA
ATOM     99  C5  IDS d  63      17.275  42.209  43.455  0.00  0.00     0.152 C 
ATOM    100  O2  IDS d  63      17.300  39.973  46.121  0.00  0.00    -0.244 OA
ATOM    101  O1S IDS d  63      15.753  39.680  48.155  0.00  0.00    -0.572 OA
ATOM    102  O3S IDS d  63      14.642  39.481  46.065  0.00  0.00    -0.572 OA
ATOM    103  H   IDS d  63      17.854  38.596  44.770  0.00  0.00     0.097 H 
ATOM    104  H   IDS d  63      19.696  40.344  45.105  0.00  0.00     0.091 H 
ATOM    105  H   IDS d  63      15.603  39.357  43.985  0.00  0.00     0.133 H 
ATOM    106  H   IDS d  63      19.387  42.496  43.953  0.00  0.00     0.092 H 
ATOM    107  H   IDS d  63      18.486  40.109  42.522  0.00  0.00     0.210 HD
ATOM    108  H   IDS d  63      17.648  41.952  42.486  0.00  0.00     0.104 H 
ATOM    109  O4  SGN d  64      17.031  39.493  42.489  0.00  0.00    -0.348 OA
ATOM    110  O6  SGN d  64      14.580  36.595  40.813  0.00  0.00    -0.254 OA
ATOM    111  C3  SGN d  64      16.885  40.668  40.348  0.00  0.00     0.083 C 
ATOM    112  S2  SGN d  64      13.066  37.532  40.904  0.00  0.00     0.251 S 
ATOM    113  C5  SGN d  64      16.336  38.243  40.554  0.00  0.00     0.091 C 
ATOM    114  O1S SGN d  64      14.855  43.577  37.541  0.00  0.00    -0.296 OA
ATOM    115  C2  SGN d  64      16.070  40.743  39.094  0.00  0.00     0.081 C 
ATOM    116  O4S SGN d  64      12.750  37.724  42.296  0.00  0.00    -0.572 OA
ATOM    117  O3S SGN d  64      15.938  43.860  39.632  0.00  0.00    -0.296 OA
ATOM    118  S1  SGN d  64      16.105  43.407  38.263  0.00  0.00     0.156 S 
ATOM    119  O6S SGN d  64      13.201  38.817  40.250  0.00  0.00    -0.572 OA
ATOM    120  O5S SGN d  64      12.024  36.782  40.255  0.00  0.00    -0.572 OA
ATOM    121  O3  SGN d  64      16.829  41.924  40.921  0.00  0.00    -0.391 OA
ATOM    122  C1  SGN d  64      16.107  39.399  38.413  0.00  0.00     0.150 C 
ATOM    123  O2S SGN d  64      17.166  44.150  37.641  0.00  0.00    -0.296 OA
ATOM    124  C4  SGN d  64      16.262  39.597  41.281  0.00  0.00     0.095 C 
ATOM    125  O5  SGN d  64      15.585  38.399  39.314  0.00  0.00    -0.349 OA
ATOM    126  C6  SGN d  64      15.737  37.154  41.418  0.00  0.00     0.067 C 
ATOM    127  N   SGN d  64      16.647  41.721  38.205  0.00  0.00    -0.210 NA
ATOM    128  H   SGN d  64      17.902  40.391  40.163  0.00  0.00     0.089 H 
ATOM    129  H   SGN d  64      17.348  37.960  40.349  0.00  0.00     0.090 H 
ATOM    130  H   SGN d  64      14.156  43.067  37.979  0.00  0.00     0.231 HD
ATOM    131  H   SGN d  64      15.064  41.016  39.334  0.00  0.00     0.076 H 
ATOM    132  H   SGN d  64      15.222  43.360  40.054  0.00  0.00     0.231 HD
ATOM    133  H   SGN d  64      15.904  42.165  41.083  0.00  0.00     0.210 HD
ATOM    134  H   SGN d  64      15.511  39.385  37.525  0.00  0.00     0.131 H 
ATOM    135  H   SGN d  64      16.939  45.093  37.635  0.00  0.00     0.231 HD
ATOM    136  H   SGN d  64      15.254  39.866  41.520  0.00  0.00     0.091 H 
ATOM    137  H   SGN d  64      16.464  36.382  41.560  0.00  0.00     0.080 H 
ATOM    138  H   SGN d  64      15.455  37.583  42.356  0.00  0.00     0.080 H 
ATOM    139  H   SGN d  64      16.477  41.390  37.255  0.00  0.00     0.140 HD
ATOM    140  C1  IDS d  61      18.738  45.376  51.007  0.00  0.00     0.167 C 
ATOM    141  O5  IDS d  61      19.173  44.197  51.732  0.00  0.00    -0.311 OA
ATOM    142  C5  IDS d  61      18.249  43.429  52.428  0.00  0.00     0.147 C 
ATOM    143  C6  IDS d  61      18.778  42.094  53.083  0.00  0.00     0.233 C 
ATOM    144  C2  IDS d  61      17.715  46.115  51.863  0.00  0.00     0.135 C 
ATOM    145  O1S IDS d  61      20.655  45.418  53.257  0.00  0.00    -0.572 OA
ATOM    146  O3S IDS d  61      20.582  47.597  52.229  0.00  0.00    -0.572 OA
ATOM    147  O3  IDS d  61      15.638  45.270  51.261  0.00  0.00    -0.389 OA
ATOM    148  C4  IDS d  61      16.972  43.850  52.647  0.00  0.00    -0.034 C 
ATOM    149  C3  IDS d  61      16.545  45.237  52.305  0.00  0.00     0.086 C 
ATOM    150  O61 IDS d  61      18.018  41.399  53.757  0.00  0.00    -0.642 OA
ATOM    151  O62 IDS d  61      19.981  41.761  52.943  0.00  0.00    -0.642 OA
ATOM    152  O2S IDS d  61      20.375  47.255  54.588  0.00  0.00    -0.572 OA
ATOM    153  S   IDS d  61      20.085  46.739  53.293  0.00  0.00     0.252 S 
ATOM    154  O2  IDS d  61      18.321  46.589  53.078  0.00  0.00    -0.244 OA
ATOM    155  H   IDS d  61      19.580  46.000  50.786  0.00  0.00     0.134 H 
ATOM    156  H   IDS d  61      17.360  46.909  51.240  0.00  0.00     0.097 H 
ATOM    157  H   IDS d  61      15.390  46.189  51.076  0.00  0.00     0.210 HD
ATOM    158  H   IDS d  61      16.287  43.196  53.058  0.00  0.00     0.085 H 
ATOM    159  H   IDS d  61      16.105  45.605  53.208  0.00  0.00     0.093 H 
ENDROOT
TORSDOF 50
ENDMDL
MODEL 73
REMARK VINA RESULT:      -5.0      4.790     14.254
REMARK  0 active torsions:
REMARK  status: ('A' for Active; 'I' for Inactive)
REMARK       I    between atoms: O3S_3  and  S1_55 
REMARK       I    between atoms: O3_4  and  C3_87 
REMARK       I    between atoms: O4_5  and  C1_15 
REMARK       I    between atoms: O4_5  and  C4_57 
REMARK       I    between atoms: O4_7  and  C1_36 
REMARK       I    between atoms: O4_7  and  C4_89 
REMARK       I    between atoms: C4_8  and  O4_18 
REMARK       I    between atoms: C2_9  and  O2_84 
REMARK       I    between atoms: C6_10  and  C5_32 
REMARK       I    between atoms: C6_10  and  O6_102 
REMARK       I    between atoms: O6_11  and  C6_93 
REMARK       I    between atoms: O6_11  and  S2_25 
REMARK       I    between atoms: C1_13  and  O4_74 
REMARK       I    between atoms: C3_14  and  O3_71 
REMARK       I    between atoms: O4_18  and  C1_54 
REMARK       I    between atoms: S2_19  and  O6_39 
REMARK       I    between atoms: O2S_21  and  S1_45 
REMARK       I    between atoms: C5_22  and  C6_23 
REMARK       I    between atoms: C5_24  and  C6_77 
REMARK       I    between atoms: O1_27  and  C1_48 
REMARK       I    between atoms: C5_28  and  C6_30 
REMARK       I    between atoms: C5_29  and  C6_93 
REMARK       I    between atoms: O1S_31  and  S1_44 
REMARK       I    between atoms: C3_33  and  O3_69 
REMARK       I    between atoms: C2_37  and  N_99 
REMARK       I    between atoms: S2_38  and  O6_102 
REMARK       I    between atoms: O6_39  and  C6_77 
REMARK       I    between atoms: C2_40  and  O2_103 
REMARK       I    between atoms: O3S_42  and  S1_44 
REMARK       I    between atoms: S1_44  and  N_99 
REMARK       I    between atoms: S1_44  and  O2S_81 
REMARK       I    between atoms: S1_45  and  N_94 
REMARK       I    between atoms: S1_45  and  O1S_46 
REMARK       I    between atoms: S1_45  and  O3S_58 
REMARK       I    between atoms: O3_52  and  C3_105 
REMARK       I    between atoms: S1_55  and  N_100 
REMARK       I    between atoms: S1_55  and  O1S_79 
REMARK       I    between atoms: S1_55  and  O2S_83 
REMARK       I    between atoms: O3_56  and  C3_64 
REMARK       I    between atoms: C4_60  and  O4_61 
REMARK       I    between atoms: O4_61  and  C1_73 
REMARK       I    between atoms: C6_63  and  C5_80 
REMARK       I    between atoms: C3_65  and  O3_82 
REMARK       I    between atoms: S_67  and  O2_84 
REMARK       I    between atoms: C2_68  and  O2_98 
REMARK       I    between atoms: O4_74  and  C4_97 
REMARK       I    between atoms: C2_85  and  N_94 
REMARK       I    between atoms: C2_95  and  N_100 
REMARK       I    between atoms: O2_98  and  S_104 
REMARK       I    between atoms: S_101  and  O2_103 
ROOT
ATOM      1  O6S SGN d  66      19.344  46.321  36.297  0.00  0.00    -0.572 OA
ATOM      2  C4  SGN d  66      17.797  41.827  35.749  0.00  0.00     0.095 C 
ATOM      3  C6  SGN d  66      16.311  43.865  35.632  0.00  0.00     0.067 C 
ATOM      4  O4  SGN d  66      17.567  41.742  37.234  0.00  0.00    -0.348 OA
ATOM      5  O5S SGN d  66      17.338  46.211  37.569  0.00  0.00    -0.572 OA
ATOM      6  O2S SGN d  66      18.804  39.815  30.513  0.00  0.00    -0.296 OA
ATOM      7  O5  SGN d  66      16.801  42.513  33.611  0.00  0.00    -0.350 OA
ATOM      8  O1  SGN d  66      15.979  40.284  33.229  0.00  0.00    -0.369 OA
ATOM      9  C5  SGN d  66      16.577  42.459  35.062  0.00  0.00     0.091 C 
ATOM     10  S2  SGN d  66      18.306  45.441  36.794  0.00  0.00     0.251 S 
ATOM     11  S1  SGN d  66      18.207  38.837  31.401  0.00  0.00     0.156 S 
ATOM     12  O1S SGN d  66      18.737  37.504  31.160  0.00  0.00    -0.296 OA
ATOM     13  C1  SGN d  66      17.056  41.210  32.988  0.00  0.00     0.147 C 
ATOM     14  O3S SGN d  66      16.765  38.773  31.215  0.00  0.00    -0.296 OA
ATOM     15  C3  SGN d  66      18.130  40.456  35.137  0.00  0.00     0.083 C 
ATOM     16  O3  SGN d  66      19.358  39.980  35.685  0.00  0.00    -0.391 OA
ATOM     17  C2  SGN d  66      18.330  40.623  33.628  0.00  0.00     0.081 C 
ATOM     18  O4S SGN d  66      18.915  44.397  37.607  0.00  0.00    -0.572 OA
ATOM     19  N   SGN d  66      18.653  39.305  33.063  0.00  0.00    -0.210 NA
ATOM     20  O6  SGN d  66      17.447  44.732  35.405  0.00  0.00    -0.254 OA
ATOM     21  H   SGN d  66      18.650  42.452  35.585  0.00  0.00     0.091 H 
ATOM     22  H   SGN d  66      16.133  43.788  36.685  0.00  0.00     0.080 H 
ATOM     23  H   SGN d  66      15.457  44.281  35.140  0.00  0.00     0.080 H 
ATOM     24  H   SGN d  66      19.763  39.839  30.657  0.00  0.00     0.231 HD
ATOM     25  H   SGN d  66      15.162  40.627  32.836  0.00  0.00     0.212 HD
ATOM     26  H   SGN d  66      15.711  41.859  35.251  0.00  0.00     0.090 H 
ATOM     27  H   SGN d  66      19.700  37.513  31.277  0.00  0.00     0.231 HD
ATOM     28  H   SGN d  66      17.155  41.352  31.932  0.00  0.00     0.131 H 
ATOM     29  H   SGN d  66      16.379  39.650  31.369  0.00  0.00     0.231 HD
ATOM     30  H   SGN d  66      17.334  39.772  35.345  0.00  0.00     0.089 H 
ATOM     31  H   SGN d  66      20.066  40.612  35.486  0.00  0.00     0.210 HD
ATOM     32  H   SGN d  66      19.132  41.303  33.426  0.00  0.00     0.076 H 
ATOM     33  H   SGN d  66      19.668  39.214  33.119  0.00  0.00     0.140 HD
ATOM     34  O61 IDS d  65      17.533  36.860  37.795  0.00  0.00    -0.646 OA
ATOM     35  O3  IDS d  65      14.975  40.687  40.405  0.00  0.00    -0.390 OA
ATOM     36  C5  IDS d  65      17.536  39.227  38.125  0.00  0.00     0.152 C 
ATOM     37  C6  IDS d  65      18.265  37.874  37.913  0.00  0.00     0.206 C 
ATOM     38  O5  IDS d  65      18.551  40.258  38.328  0.00  0.00    -0.340 OA
ATOM     39  C1  IDS d  65      18.064  41.606  38.557  0.00  0.00     0.161 C 
ATOM     40  O1S IDS d  65      14.011  43.429  40.896  0.00  0.00    -0.572 OA
ATOM     41  C4  IDS d  65      16.476  39.215  39.282  0.00  0.00     0.103 C 
ATOM     42  O4  IDS d  65      16.626  37.893  39.806  0.00  0.00    -0.348 OA
ATOM     43  C2  IDS d  65      16.577  41.691  39.016  0.00  0.00     0.134 C 
ATOM     44  O62 IDS d  65      19.531  37.854  37.846  0.00  0.00    -0.646 OA
ATOM     45  C3  IDS d  65      16.297  40.582  39.980  0.00  0.00     0.094 C 
ATOM     46  O2S IDS d  65      14.000  42.728  38.617  0.00  0.00    -0.572 OA
ATOM     47  O3S IDS d  65      14.700  44.932  39.155  0.00  0.00    -0.572 OA
ATOM     48  O2  IDS d  65      16.344  42.901  39.719  0.00  0.00    -0.244 OA
ATOM     49  S   IDS d  65      14.683  43.542  39.603  0.00  0.00     0.252 S 
ATOM     50  H   IDS d  65      14.779  39.973  41.031  0.00  0.00     0.210 HD
ATOM     51  H   IDS d  65      16.957  39.434  37.249  0.00  0.00     0.104 H 
ATOM     52  H   IDS d  65      18.767  42.172  39.132  0.00  0.00     0.133 H 
ATOM     53  H   IDS d  65      15.415  39.266  39.152  0.00  0.00     0.092 H 
ATOM     54  H   IDS d  65      15.958  41.631  38.146  0.00  0.00     0.097 H 
ATOM     55  H   IDS d  65      16.972  40.653  40.807  0.00  0.00     0.091 H 
ATOM     56  O3S SGN d  62      22.615  33.608  45.245  0.00  0.00    -0.296 OA
ATOM     57  C1  SGN d  62      19.830  33.538  47.321  0.00  0.00     0.150 C 
ATOM     58  S2  SGN d  62      16.054  33.403  51.913  0.00  0.00     0.251 S 
ATOM     59  C5  SGN d  62      18.827  32.784  49.472  0.00  0.00     0.091 C 
ATOM     60  O5  SGN d  62      19.417  33.860  48.688  0.00  0.00    -0.349 OA
ATOM     61  O4S SGN d  62      16.381  34.120  53.101  0.00  0.00    -0.572 OA
ATOM     62  O6  SGN d  62      17.448  32.516  51.345  0.00  0.00    -0.254 OA
ATOM     63  O3  SGN d  62      20.874  30.032  48.063  0.00  0.00    -0.391 OA
ATOM     64  S1  SGN d  62      22.388  32.181  45.266  0.00  0.00     0.156 S 
ATOM     65  O6S SGN d  62      15.565  34.267  50.842  0.00  0.00    -0.572 OA
ATOM     66  O4  SGN d  62      19.198  30.582  50.349  0.00  0.00    -0.348 OA
ATOM     67  C6  SGN d  62      18.495  33.327  50.841  0.00  0.00     0.067 C 
ATOM     68  O5S SGN d  62      15.049  32.412  52.188  0.00  0.00    -0.572 OA
ATOM     69  O1S SGN d  62      22.375  31.617  43.933  0.00  0.00    -0.296 OA
ATOM     70  O2S SGN d  62      23.392  31.587  46.102  0.00  0.00    -0.296 OA
ATOM     71  C2  SGN d  62      20.685  32.280  47.352  0.00  0.00     0.081 C 
ATOM     72  C4  SGN d  62      19.809  31.603  49.564  0.00  0.00     0.095 C 
ATOM     73  N   SGN d  62      20.854  31.812  46.013  0.00  0.00    -0.210 NA
ATOM     74  C3  SGN d  62      20.011  31.136  48.114  0.00  0.00     0.083 C 
ATOM     75  H   SGN d  62      21.947  34.033  44.684  0.00  0.00     0.231 HD
ATOM     76  H   SGN d  62      20.362  34.393  46.959  0.00  0.00     0.131 H 
ATOM     77  H   SGN d  62      17.933  32.425  49.007  0.00  0.00     0.090 H 
ATOM     78  H   SGN d  62      20.988  29.752  47.142  0.00  0.00     0.210 HD
ATOM     79  H   SGN d  62      18.173  34.345  50.769  0.00  0.00     0.080 H 
ATOM     80  H   SGN d  62      19.349  33.307  51.486  0.00  0.00     0.080 H 
ATOM     81  H   SGN d  62      21.683  32.047  43.406  0.00  0.00     0.231 HD
ATOM     82  H   SGN d  62      23.363  31.995  46.981  0.00  0.00     0.231 HD
ATOM     83  H   SGN d  62      21.606  32.537  47.831  0.00  0.00     0.076 H 
ATOM     84  H   SGN d  62      20.745  31.858  50.018  0.00  0.00     0.091 H 
ATOM     85  H   SGN d  62      20.746  30.798  46.019  0.00  0.00     0.140 HD
ATOM     86  H   SGN d  62      19.064  30.865  47.695  0.00  0.00     0.089 H 
ATOM     87  O4  IDS d  63      18.739  33.305  46.420  0.00  0.00    -0.348 OA
ATOM     88  O62 IDS d  63      15.148  33.915  45.846  0.00  0.00    -0.646 OA
ATOM     89  C2  IDS d  63      19.187  32.799  43.387  0.00  0.00     0.134 C 
ATOM     90  O2S IDS d  63      19.469  29.906  42.296  0.00  0.00    -0.572 OA
ATOM     91  O61 IDS d  63      16.265  35.555  46.712  0.00  0.00    -0.646 OA
ATOM     92  C3  IDS d  63      19.689  34.009  44.187  0.00  0.00     0.094 C 
ATOM     93  C1  IDS d  63      17.746  33.063  42.871  0.00  0.00     0.161 C 
ATOM     94  O5  IDS d  63      16.884  33.225  44.027  0.00  0.00    -0.340 OA
ATOM     95  C4  IDS d  63      18.701  34.295  45.400  0.00  0.00     0.103 C 
ATOM     96  C6  IDS d  63      16.145  34.638  45.901  0.00  0.00     0.206 C 
ATOM     97  S   IDS d  63      18.697  30.133  43.511  0.00  0.00     0.252 S 
ATOM     98  O3  IDS d  63      19.667  35.083  43.273  0.00  0.00    -0.390 OA
ATOM     99  C5  IDS d  63      17.245  34.396  44.871  0.00  0.00     0.152 C 
ATOM    100  O2  IDS d  63      19.280  31.656  44.195  0.00  0.00    -0.244 OA
ATOM    101  O1S IDS d  63      18.951  29.126  44.526  0.00  0.00    -0.572 OA
ATOM    102  O3S IDS d  63      17.314  30.136  43.131  0.00  0.00    -0.572 OA
ATOM    103  H   IDS d  63      19.794  32.637  42.521  0.00  0.00     0.097 H 
ATOM    104  H   IDS d  63      20.664  33.854  44.599  0.00  0.00     0.091 H 
ATOM    105  H   IDS d  63      17.330  32.269  42.287  0.00  0.00     0.133 H 
ATOM    106  H   IDS d  63      19.030  35.215  45.837  0.00  0.00     0.092 H 
ATOM    107  H   IDS d  63      18.768  35.192  42.924  0.00  0.00     0.210 HD
ATOM    108  H   IDS d  63      17.278  35.294  44.290  0.00  0.00     0.104 H 
ATOM    109  O4  SGN d  64      17.842  34.263  42.043  0.00  0.00    -0.348 OA
ATOM    110  O6  SGN d  64      16.447  33.458  38.219  0.00  0.00    -0.254 OA
ATOM    111  C3  SGN d  64      16.373  36.219  42.026  0.00  0.00     0.083 C 
ATOM    112  S2  SGN d  64      14.849  32.839  38.712  0.00  0.00     0.251 S 
ATOM    113  C5  SGN d  64      17.057  35.074  39.918  0.00  0.00     0.091 C 
ATOM    114  O1S SGN d  64      12.364  38.187  42.747  0.00  0.00    -0.296 OA
ATOM    115  C2  SGN d  64      15.187  36.801  41.321  0.00  0.00     0.081 C 
ATOM    116  O4S SGN d  64      15.056  31.618  39.446  0.00  0.00    -0.572 OA
ATOM    117  O3S SGN d  64      13.943  37.187  44.207  0.00  0.00    -0.296 OA
ATOM    118  S1  SGN d  64      13.737  38.236  43.225  0.00  0.00     0.156 S 
ATOM    119  O6S SGN d  64      14.145  33.797  39.541  0.00  0.00    -0.572 OA
ATOM    120  O5S SGN d  64      14.073  32.584  37.528  0.00  0.00    -0.572 OA
ATOM    121  O3  SGN d  64      16.010  36.091  43.352  0.00  0.00    -0.391 OA
ATOM    122  C1  SGN d  64      15.530  36.980  39.865  0.00  0.00     0.150 C 
ATOM    123  O2S SGN d  64      14.031  39.510  43.820  0.00  0.00    -0.296 OA
ATOM    124  C4  SGN d  64      16.697  34.840  41.396  0.00  0.00     0.095 C 
ATOM    125  O5  SGN d  64      15.893  35.701  39.304  0.00  0.00    -0.349 OA
ATOM    126  C6  SGN d  64      17.382  33.756  39.246  0.00  0.00     0.067 C 
ATOM    127  N   SGN d  64      14.882  38.094  41.881  0.00  0.00    -0.210 NA
ATOM    128  H   SGN d  64      17.245  36.833  41.939  0.00  0.00     0.089 H 
ATOM    129  H   SGN d  64      17.920  35.699  39.816  0.00  0.00     0.090 H 
ATOM    130  H   SGN d  64      12.190  37.320  42.351  0.00  0.00     0.231 HD
ATOM    131  H   SGN d  64      14.346  36.148  41.432  0.00  0.00     0.076 H 
ATOM    132  H   SGN d  64      13.745  36.325  43.807  0.00  0.00     0.231 HD
ATOM    133  H   SGN d  64      15.219  35.533  43.419  0.00  0.00     0.210 HD
ATOM    134  H   SGN d  64      14.703  37.363  39.304  0.00  0.00     0.131 H 
ATOM    135  H   SGN d  64      13.437  39.660  44.572  0.00  0.00     0.231 HD
ATOM    136  H   SGN d  64      15.857  34.185  41.502  0.00  0.00     0.091 H 
ATOM    137  H   SGN d  64      18.362  33.815  38.820  0.00  0.00     0.080 H 
ATOM    138  H   SGN d  64      17.336  32.981  39.982  0.00  0.00     0.080 H 
ATOM    139  H   SGN d  64      14.514  38.665  41.120  0.00  0.00     0.140 HD
ATOM    140  C1  IDS d  61      20.032  30.077  51.412  0.00  0.00     0.167 C 
ATOM    141  O5  IDS d  61      21.180  29.399  50.838  0.00  0.00    -0.311 OA
ATOM    142  C5  IDS d  61      21.036  28.133  50.288  0.00  0.00     0.147 C 
ATOM    143  C6  IDS d  61      22.300  27.517  49.571  0.00  0.00     0.233 C 
ATOM    144  C2  IDS d  61      19.219  29.057  52.202  0.00  0.00     0.135 C 
ATOM    145  O1S IDS d  61      22.453  29.328  52.933  0.00  0.00    -0.572 OA
ATOM    146  O3S IDS d  61      21.048  30.725  54.305  0.00  0.00    -0.572 OA
ATOM    147  O3  IDS d  61      17.662  28.182  50.718  0.00  0.00    -0.389 OA
ATOM    148  C4  IDS d  61      19.904  27.393  50.453  0.00  0.00    -0.034 C 
ATOM    149  C3  IDS d  61      18.823  27.829  51.383  0.00  0.00     0.086 C 
ATOM    150  O61 IDS d  61      22.248  26.375  49.111  0.00  0.00    -0.642 OA
ATOM    151  O62 IDS d  61      23.365  28.178  49.501  0.00  0.00    -0.642 OA
ATOM    152  O2S IDS d  61      21.956  28.641  55.054  0.00  0.00    -0.572 OA
ATOM    153  S   IDS d  61      21.434  29.368  53.948  0.00  0.00     0.252 S 
ATOM    154  O2  IDS d  61      19.983  28.550  53.310  0.00  0.00    -0.244 OA
ATOM    155  H   IDS d  61      20.358  30.880  52.039  0.00  0.00     0.134 H 
ATOM    156  H   IDS d  61      18.342  29.588  52.511  0.00  0.00     0.097 H 
ATOM    157  H   IDS d  61      16.990  28.457  51.362  0.00  0.00     0.210 HD
ATOM    158  H   IDS d  61      19.792  26.514  49.925  0.00  0.00     0.085 H 
ATOM    159  H   IDS d  61      18.661  26.980  52.013  0.00  0.00     0.093 H 
ENDROOT
TORSDOF 50
ENDMDL
MODEL 74
REMARK VINA RESULT:      -4.9      1.919      2.482
REMARK  0 active torsions:
REMARK  status: ('A' for Active; 'I' for Inactive)
REMARK       I    between atoms: O3S_3  and  S1_55 
REMARK       I    between atoms: O3_4  and  C3_87 
REMARK       I    between atoms: O4_5  and  C1_15 
REMARK       I    between atoms: O4_5  and  C4_57 
REMARK       I    between atoms: O4_7  and  C1_36 
REMARK       I    between atoms: O4_7  and  C4_89 
REMARK       I    between atoms: C4_8  and  O4_18 
REMARK       I    between atoms: C2_9  and  O2_84 
REMARK       I    between atoms: C6_10  and  C5_32 
REMARK       I    between atoms: C6_10  and  O6_102 
REMARK       I    between atoms: O6_11  and  C6_93 
REMARK       I    between atoms: O6_11  and  S2_25 
REMARK       I    between atoms: C1_13  and  O4_74 
REMARK       I    between atoms: C3_14  and  O3_71 
REMARK       I    between atoms: O4_18  and  C1_54 
REMARK       I    between atoms: S2_19  and  O6_39 
REMARK       I    between atoms: O2S_21  and  S1_45 
REMARK       I    between atoms: C5_22  and  C6_23 
REMARK       I    between atoms: C5_24  and  C6_77 
REMARK       I    between atoms: O1_27  and  C1_48 
REMARK       I    between atoms: C5_28  and  C6_30 
REMARK       I    between atoms: C5_29  and  C6_93 
REMARK       I    between atoms: O1S_31  and  S1_44 
REMARK       I    between atoms: C3_33  and  O3_69 
REMARK       I    between atoms: C2_37  and  N_99 
REMARK       I    between atoms: S2_38  and  O6_102 
REMARK       I    between atoms: O6_39  and  C6_77 
REMARK       I    between atoms: C2_40  and  O2_103 
REMARK       I    between atoms: O3S_42  and  S1_44 
REMARK       I    between atoms: S1_44  and  N_99 
REMARK       I    between atoms: S1_44  and  O2S_81 
REMARK       I    between atoms: S1_45  and  N_94 
REMARK       I    between atoms: S1_45  and  O1S_46 
REMARK       I    between atoms: S1_45  and  O3S_58 
REMARK       I    between atoms: O3_52  and  C3_105 
REMARK       I    between atoms: S1_55  and  N_100 
REMARK       I    between atoms: S1_55  and  O1S_79 
REMARK       I    between atoms: S1_55  and  O2S_83 
REMARK       I    between atoms: O3_56  and  C3_64 
REMARK       I    between atoms: C4_60  and  O4_61 
REMARK       I    between atoms: O4_61  and  C1_73 
REMARK       I    between atoms: C6_63  and  C5_80 
REMARK       I    between atoms: C3_65  and  O3_82 
REMARK       I    between atoms: S_67  and  O2_84 
REMARK       I    between atoms: C2_68  and  O2_98 
REMARK       I    between atoms: O4_74  and  C4_97 
REMARK       I    between atoms: C2_85  and  N_94 
REMARK       I    between atoms: C2_95  and  N_100 
REMARK       I    between atoms: O2_98  and  S_104 
REMARK       I    between atoms: S_101  and  O2_103 
ROOT
ATOM      1  O6S SGN d  66      23.324  35.421  55.851  0.00  0.00    -0.572 OA
ATOM      2  C4  SGN d  66      19.797  37.330  53.241  0.00  0.00     0.095 C 
ATOM      3  C6  SGN d  66      19.445  35.650  55.092  0.00  0.00     0.067 C 
ATOM      4  O4  SGN d  66      19.946  36.208  52.249  0.00  0.00    -0.348 OA
ATOM      5  O5S SGN d  66      21.898  33.591  55.328  0.00  0.00    -0.572 OA
ATOM      6  O2S SGN d  66      18.373  42.554  55.018  0.00  0.00    -0.296 OA
ATOM      7  O5  SGN d  66      18.716  38.008  55.340  0.00  0.00    -0.350 OA
ATOM      8  O1  SGN d  66      16.892  39.006  54.128  0.00  0.00    -0.369 OA
ATOM      9  C5  SGN d  66      18.875  36.897  54.392  0.00  0.00     0.091 C 
ATOM     10  S2  SGN d  66      22.165  35.006  55.087  0.00  0.00     0.251 S 
ATOM     11  S1  SGN d  66      17.645  42.127  53.840  0.00  0.00     0.156 S 
ATOM     12  O1S SGN d  66      17.418  43.235  52.923  0.00  0.00    -0.296 OA
ATOM     13  C1  SGN d  66      18.171  39.235  54.751  0.00  0.00     0.147 C 
ATOM     14  O3S SGN d  66      16.343  41.585  54.197  0.00  0.00    -0.296 OA
ATOM     15  C3  SGN d  66      19.289  38.622  52.580  0.00  0.00     0.083 C 
ATOM     16  O3  SGN d  66      20.254  39.078  51.633  0.00  0.00    -0.391 OA
ATOM     17  C2  SGN d  66      19.147  39.705  53.653  0.00  0.00     0.081 C 
ATOM     18  O4S SGN d  66      22.411  35.258  53.673  0.00  0.00    -0.572 OA
ATOM     19  N   SGN d  66      18.668  40.932  53.001  0.00  0.00    -0.210 NA
ATOM     20  O6  SGN d  66      20.750  35.928  55.651  0.00  0.00    -0.254 OA
ATOM     21  H   SGN d  66      20.767  37.547  53.637  0.00  0.00     0.091 H 
ATOM     22  H   SGN d  66      19.530  34.856  54.380  0.00  0.00     0.080 H 
ATOM     23  H   SGN d  66      18.784  35.368  55.886  0.00  0.00     0.080 H 
ATOM     24  H   SGN d  66      19.236  42.910  54.754  0.00  0.00     0.231 HD
ATOM     25  H   SGN d  66      16.255  38.709  54.797  0.00  0.00     0.212 HD
ATOM     26  H   SGN d  66      17.912  36.643  54.000  0.00  0.00     0.090 H 
ATOM     27  H   SGN d  66      18.270  43.620  52.665  0.00  0.00     0.231 HD
ATOM     28  H   SGN d  66      18.048  39.959  55.528  0.00  0.00     0.131 H 
ATOM     29  H   SGN d  66      16.459  40.842  54.810  0.00  0.00     0.231 HD
ATOM     30  H   SGN d  66      18.352  38.431  52.100  0.00  0.00     0.089 H 
ATOM     31  H   SGN d  66      21.096  39.246  52.085  0.00  0.00     0.210 HD
ATOM     32  H   SGN d  66      20.090  39.896  54.123  0.00  0.00     0.076 H 
ATOM     33  H   SGN d  66      19.502  41.436  52.700  0.00  0.00     0.140 HD
ATOM     34  O61 IDS d  65      17.812  38.270  48.332  0.00  0.00    -0.646 OA
ATOM     35  O3  IDS d  65      18.077  33.224  49.905  0.00  0.00    -0.390 OA
ATOM     36  C5  IDS d  65      18.990  36.837  49.839  0.00  0.00     0.152 C 
ATOM     37  C6  IDS d  65      18.931  38.031  48.850  0.00  0.00     0.206 C 
ATOM     38  O5  IDS d  65      20.380  36.668  50.257  0.00  0.00    -0.340 OA
ATOM     39  C1  IDS d  65      20.646  35.583  51.184  0.00  0.00     0.161 C 
ATOM     40  O1S IDS d  65      18.649  31.012  51.768  0.00  0.00    -0.572 OA
ATOM     41  C4  IDS d  65      18.383  35.503  49.277  0.00  0.00     0.103 C 
ATOM     42  O4  IDS d  65      18.037  35.876  47.941  0.00  0.00    -0.348 OA
ATOM     43  C2  IDS d  65      19.542  34.485  51.234  0.00  0.00     0.134 C 
ATOM     44  O62 IDS d  65      19.979  38.709  48.631  0.00  0.00    -0.646 OA
ATOM     45  C3  IDS d  65      19.042  34.227  49.849  0.00  0.00     0.094 C 
ATOM     46  O2S IDS d  65      17.728  32.977  52.757  0.00  0.00    -0.572 OA
ATOM     47  O3S IDS d  65      19.477  31.822  53.871  0.00  0.00    -0.572 OA
ATOM     48  O2  IDS d  65      20.083  33.259  51.700  0.00  0.00    -0.244 OA
ATOM     49  S   IDS d  65      18.938  32.201  52.568  0.00  0.00     0.252 S 
ATOM     50  H   IDS d  65      17.743  33.046  49.012  0.00  0.00     0.210 HD
ATOM     51  H   IDS d  65      18.368  37.069  50.677  0.00  0.00     0.104 H 
ATOM     52  H   IDS d  65      21.652  35.233  51.080  0.00  0.00     0.133 H 
ATOM     53  H   IDS d  65      17.473  35.048  49.607  0.00  0.00     0.092 H 
ATOM     54  H   IDS d  65      18.764  34.828  51.884  0.00  0.00     0.097 H 
ATOM     55  H   IDS d  65      19.861  33.936  49.225  0.00  0.00     0.091 H 
ATOM     56  O3S SGN d  62      22.550  37.135  40.076  0.00  0.00    -0.296 OA
ATOM     57  C1  SGN d  62      20.689  34.332  39.207  0.00  0.00     0.150 C 
ATOM     58  S2  SGN d  62      18.606  29.295  36.830  0.00  0.00     0.251 S 
ATOM     59  C5  SGN d  62      20.045  32.699  37.441  0.00  0.00     0.091 C 
ATOM     60  O5  SGN d  62      20.840  32.999  38.624  0.00  0.00    -0.349 OA
ATOM     61  O4S SGN d  62      19.520  28.250  36.509  0.00  0.00    -0.572 OA
ATOM     62  O6  SGN d  62      19.234  30.831  36.285  0.00  0.00    -0.254 OA
ATOM     63  O3  SGN d  62      20.151  36.097  35.961  0.00  0.00    -0.391 OA
ATOM     64  S1  SGN d  62      21.705  37.732  39.068  0.00  0.00     0.156 S 
ATOM     65  O6S SGN d  62      18.312  29.376  38.259  0.00  0.00    -0.572 OA
ATOM     66  O4  SGN d  62      19.571  33.377  35.189  0.00  0.00    -0.348 OA
ATOM     67  C6  SGN d  62      20.366  31.290  37.002  0.00  0.00     0.067 C 
ATOM     68  O5S SGN d  62      17.367  29.109  36.125  0.00  0.00    -0.572 OA
ATOM     69  O1S SGN d  62      21.090  38.956  39.535  0.00  0.00    -0.296 OA
ATOM     70  O2S SGN d  62      22.499  37.934  37.890  0.00  0.00    -0.296 OA
ATOM     71  C2  SGN d  62      20.843  35.369  38.103  0.00  0.00     0.081 C 
ATOM     72  C4  SGN d  62      20.359  33.714  36.328  0.00  0.00     0.095 C 
ATOM     73  N   SGN d  62      20.426  36.638  38.609  0.00  0.00    -0.210 NA
ATOM     74  C3  SGN d  62      19.940  35.078  36.900  0.00  0.00     0.083 C 
ATOM     75  H   SGN d  62      22.034  36.988  40.884  0.00  0.00     0.231 HD
ATOM     76  H   SGN d  62      21.441  34.417  39.963  0.00  0.00     0.131 H 
ATOM     77  H   SGN d  62      19.000  32.771  37.660  0.00  0.00     0.090 H 
ATOM     78  H   SGN d  62      19.881  36.948  36.341  0.00  0.00     0.210 HD
ATOM     79  H   SGN d  62      20.544  30.667  37.853  0.00  0.00     0.080 H 
ATOM     80  H   SGN d  62      21.249  31.263  36.396  0.00  0.00     0.080 H 
ATOM     81  H   SGN d  62      20.565  38.772  40.330  0.00  0.00     0.231 HD
ATOM     82  H   SGN d  62      22.890  37.089  37.615  0.00  0.00     0.231 HD
ATOM     83  H   SGN d  62      21.867  35.350  37.795  0.00  0.00     0.076 H 
ATOM     84  H   SGN d  62      21.387  33.723  36.032  0.00  0.00     0.091 H 
ATOM     85  H   SGN d  62      19.867  37.094  37.887  0.00  0.00     0.140 HD
ATOM     86  H   SGN d  62      18.903  35.047  37.164  0.00  0.00     0.089 H 
ATOM     87  O4  IDS d  63      19.423  34.554  39.842  0.00  0.00    -0.348 OA
ATOM     88  O62 IDS d  63      16.507  32.889  41.366  0.00  0.00    -0.646 OA
ATOM     89  C2  IDS d  63      18.788  37.179  41.378  0.00  0.00     0.134 C 
ATOM     90  O2S IDS d  63      17.411  39.558  39.933  0.00  0.00    -0.572 OA
ATOM     91  O61 IDS d  63      18.434  31.992  41.773  0.00  0.00    -0.646 OA
ATOM     92  C3  IDS d  63      19.977  36.245  41.635  0.00  0.00     0.094 C 
ATOM     93  C1  IDS d  63      17.552  36.703  42.191  0.00  0.00     0.161 C 
ATOM     94  O5  IDS d  63      17.194  35.380  41.718  0.00  0.00    -0.340 OA
ATOM     95  C4  IDS d  63      19.584  34.756  41.240  0.00  0.00     0.103 C 
ATOM     96  C6  IDS d  63      17.701  32.973  41.661  0.00  0.00     0.206 C 
ATOM     97  S   IDS d  63      17.174  38.203  39.451  0.00  0.00     0.252 S 
ATOM     98  O3  IDS d  63      20.218  36.337  43.022  0.00  0.00    -0.390 OA
ATOM     99  C5  IDS d  63      18.257  34.365  41.946  0.00  0.00     0.152 C 
ATOM    100  O2  IDS d  63      18.548  37.231  39.997  0.00  0.00    -0.244 OA
ATOM    101  O1S IDS d  63      17.187  38.119  38.002  0.00  0.00    -0.572 OA
ATOM    102  O3S IDS d  63      15.903  37.792  39.973  0.00  0.00    -0.572 OA
ATOM    103  H   IDS d  63      19.004  38.173  41.710  0.00  0.00     0.097 H 
ATOM    104  H   IDS d  63      20.840  36.510  41.061  0.00  0.00     0.091 H 
ATOM    105  H   IDS d  63      16.682  37.316  42.078  0.00  0.00     0.133 H 
ATOM    106  H   IDS d  63      20.400  34.141  41.558  0.00  0.00     0.092 H 
ATOM    107  H   IDS d  63      19.415  36.089  43.507  0.00  0.00     0.210 HD
ATOM    108  H   IDS d  63      18.549  34.337  42.975  0.00  0.00     0.104 H 
ATOM    109  O4  SGN d  64      17.973  36.728  43.590  0.00  0.00    -0.348 OA
ATOM    110  O6  SGN d  64      15.431  39.162  45.788  0.00  0.00    -0.254 OA
ATOM    111  C3  SGN d  64      17.623  35.028  45.314  0.00  0.00     0.083 C 
ATOM    112  S2  SGN d  64      13.916  38.342  45.327  0.00  0.00     0.251 S 
ATOM    113  C5  SGN d  64      17.131  37.438  45.730  0.00  0.00     0.091 C 
ATOM    114  O1S SGN d  64      15.312  31.552  47.057  0.00  0.00    -0.296 OA
ATOM    115  C2  SGN d  64      16.702  34.650  46.432  0.00  0.00     0.081 C 
ATOM    116  O4S SGN d  64      13.719  38.543  43.915  0.00  0.00    -0.572 OA
ATOM    117  O3S SGN d  64      16.569  31.799  45.060  0.00  0.00    -0.296 OA
ATOM    118  S1  SGN d  64      16.624  31.862  46.510  0.00  0.00     0.156 S 
ATOM    119  O6S SGN d  64      13.974  36.924  45.617  0.00  0.00    -0.572 OA
ATOM    120  O5S SGN d  64      12.834  38.930  46.070  0.00  0.00    -0.572 OA
ATOM    121  O3  SGN d  64      17.598  33.975  44.419  0.00  0.00    -0.391 OA
ATOM    122  C1  SGN d  64      16.700  35.759  47.452  0.00  0.00     0.150 C 
ATOM    123  O2S SGN d  64      17.614  30.938  46.990  0.00  0.00    -0.296 OA
ATOM    124  C4  SGN d  64      17.100  36.333  44.659  0.00  0.00     0.095 C 
ATOM    125  O5  SGN d  64      16.274  36.984  46.817  0.00  0.00    -0.349 OA
ATOM    126  C6  SGN d  64      16.627  38.742  45.148  0.00  0.00     0.067 C 
ATOM    127  N   SGN d  64      17.184  33.448  47.066  0.00  0.00    -0.210 NA
ATOM    128  H   SGN d  64      18.624  35.206  45.647  0.00  0.00     0.089 H 
ATOM    129  H   SGN d  64      18.126  37.617  46.083  0.00  0.00     0.090 H 
ATOM    130  H   SGN d  64      14.662  32.187  46.720  0.00  0.00     0.231 HD
ATOM    131  H   SGN d  64      15.716  34.490  46.048  0.00  0.00     0.076 H 
ATOM    132  H   SGN d  64      15.900  32.422  44.735  0.00  0.00     0.231 HD
ATOM    133  H   SGN d  64      16.686  33.822  44.125  0.00  0.00     0.210 HD
ATOM    134  H   SGN d  64      16.029  35.557  48.260  0.00  0.00     0.131 H 
ATOM    135  H   SGN d  64      17.373  30.038  46.721  0.00  0.00     0.231 HD
ATOM    136  H   SGN d  64      16.112  36.177  44.277  0.00  0.00     0.091 H 
ATOM    137  H   SGN d  64      17.376  39.495  45.279  0.00  0.00     0.080 H 
ATOM    138  H   SGN d  64      16.421  38.591  44.109  0.00  0.00     0.080 H 
ATOM    139  H   SGN d  64      16.938  33.517  48.053  0.00  0.00     0.140 HD
ATOM    140  C1  IDS d  61      20.321  33.289  33.960  0.00  0.00     0.167 C 
ATOM    141  O5  IDS d  61      20.835  34.602  33.618  0.00  0.00    -0.311 OA
ATOM    142  C5  IDS d  61      19.987  35.564  33.085  0.00  0.00     0.147 C 
ATOM    143  C6  IDS d  61      20.591  37.004  32.861  0.00  0.00     0.233 C 
ATOM    144  C2  IDS d  61      19.365  32.847  32.857  0.00  0.00     0.135 C 
ATOM    145  O1S IDS d  61      22.424  33.779  31.941  0.00  0.00    -0.572 OA
ATOM    146  O3S IDS d  61      22.229  31.409  32.332  0.00  0.00    -0.572 OA
ATOM    147  O3  IDS d  61      17.256  33.579  33.499  0.00  0.00    -0.389 OA
ATOM    148  C4  IDS d  61      18.727  35.266  32.660  0.00  0.00    -0.034 C 
ATOM    149  C3  IDS d  61      18.250  33.856  32.578  0.00  0.00     0.086 C 
ATOM    150  O61 IDS d  61      19.903  37.884  32.341  0.00  0.00    -0.642 OA
ATOM    151  O62 IDS d  61      21.782  37.241  33.180  0.00  0.00    -0.642 OA
ATOM    152  O2S IDS d  61      22.232  32.380  30.145  0.00  0.00    -0.572 OA
ATOM    153  S   IDS d  61      21.839  32.540  31.503  0.00  0.00     0.252 S 
ATOM    154  O2  IDS d  61      20.065  32.694  31.611  0.00  0.00    -0.244 OA
ATOM    155  H   IDS d  61      21.130  32.597  34.069  0.00  0.00     0.134 H 
ATOM    156  H   IDS d  61      18.944  31.929  33.212  0.00  0.00     0.097 H 
ATOM    157  H   IDS d  61      16.979  32.653  33.408  0.00  0.00     0.210 HD
ATOM    158  H   IDS d  61      18.091  36.032  32.389  0.00  0.00     0.085 H 
ATOM    159  H   IDS d  61      17.885  33.761  31.577  0.00  0.00     0.093 H 
ENDROOT
TORSDOF 50
ENDMDL
MODEL 75
REMARK VINA RESULT:      -4.9      4.872      7.582
REMARK  0 active torsions:
REMARK  status: ('A' for Active; 'I' for Inactive)
REMARK       I    between atoms: O3S_3  and  S1_55 
REMARK       I    between atoms: O3_4  and  C3_87 
REMARK       I    between atoms: O4_5  and  C1_15 
REMARK       I    between atoms: O4_5  and  C4_57 
REMARK       I    between atoms: O4_7  and  C1_36 
REMARK       I    between atoms: O4_7  and  C4_89 
REMARK       I    between atoms: C4_8  and  O4_18 
REMARK       I    between atoms: C2_9  and  O2_84 
REMARK       I    between atoms: C6_10  and  C5_32 
REMARK       I    between atoms: C6_10  and  O6_102 
REMARK       I    between atoms: O6_11  and  C6_93 
REMARK       I    between atoms: O6_11  and  S2_25 
REMARK       I    between atoms: C1_13  and  O4_74 
REMARK       I    between atoms: C3_14  and  O3_71 
REMARK       I    between atoms: O4_18  and  C1_54 
REMARK       I    between atoms: S2_19  and  O6_39 
REMARK       I    between atoms: O2S_21  and  S1_45 
REMARK       I    between atoms: C5_22  and  C6_23 
REMARK       I    between atoms: C5_24  and  C6_77 
REMARK       I    between atoms: O1_27  and  C1_48 
REMARK       I    between atoms: C5_28  and  C6_30 
REMARK       I    between atoms: C5_29  and  C6_93 
REMARK       I    between atoms: O1S_31  and  S1_44 
REMARK       I    between atoms: C3_33  and  O3_69 
REMARK       I    between atoms: C2_37  and  N_99 
REMARK       I    between atoms: S2_38  and  O6_102 
REMARK       I    between atoms: O6_39  and  C6_77 
REMARK       I    between atoms: C2_40  and  O2_103 
REMARK       I    between atoms: O3S_42  and  S1_44 
REMARK       I    between atoms: S1_44  and  N_99 
REMARK       I    between atoms: S1_44  and  O2S_81 
REMARK       I    between atoms: S1_45  and  N_94 
REMARK       I    between atoms: S1_45  and  O1S_46 
REMARK       I    between atoms: S1_45  and  O3S_58 
REMARK       I    between atoms: O3_52  and  C3_105 
REMARK       I    between atoms: S1_55  and  N_100 
REMARK       I    between atoms: S1_55  and  O1S_79 
REMARK       I    between atoms: S1_55  and  O2S_83 
REMARK       I    between atoms: O3_56  and  C3_64 
REMARK       I    between atoms: C4_60  and  O4_61 
REMARK       I    between atoms: O4_61  and  C1_73 
REMARK       I    between atoms: C6_63  and  C5_80 
REMARK       I    between atoms: C3_65  and  O3_82 
REMARK       I    between atoms: S_67  and  O2_84 
REMARK       I    between atoms: C2_68  and  O2_98 
REMARK       I    between atoms: O4_74  and  C4_97 
REMARK       I    between atoms: C2_85  and  N_94 
REMARK       I    between atoms: C2_95  and  N_100 
REMARK       I    between atoms: O2_98  and  S_104 
REMARK       I    between atoms: S_101  and  O2_103 
ROOT
ATOM      1  O6S SGN d  66      15.562  38.655  51.707  0.00  0.00    -0.572 OA
ATOM      2  C4  SGN d  66      14.662  40.696  47.474  0.00  0.00     0.095 C 
ATOM      3  C6  SGN d  66      12.915  39.570  48.908  0.00  0.00     0.067 C 
ATOM      4  O4  SGN d  66      14.954  39.384  46.797  0.00  0.00    -0.348 OA
ATOM      5  O5S SGN d  66      14.136  37.118  50.584  0.00  0.00    -0.572 OA
ATOM      6  O2S SGN d  66      14.184  46.361  47.861  0.00  0.00    -0.296 OA
ATOM      7  O5  SGN d  66      12.917  42.029  48.575  0.00  0.00    -0.350 OA
ATOM      8  O1  SGN d  66      12.383  43.124  46.500  0.00  0.00    -0.369 OA
ATOM      9  C5  SGN d  66      13.198  40.734  47.940  0.00  0.00     0.091 C 
ATOM     10  S2  SGN d  66      14.902  38.353  50.452  0.00  0.00     0.251 S 
ATOM     11  S1  SGN d  66      14.080  45.865  46.503  0.00  0.00     0.156 S 
ATOM     12  O1S SGN d  66      14.706  46.774  45.554  0.00  0.00    -0.296 OA
ATOM     13  C1  SGN d  66      13.156  43.192  47.714  0.00  0.00     0.147 C 
ATOM     14  O3S SGN d  66      12.688  45.714  46.107  0.00  0.00    -0.296 OA
ATOM     15  C3  SGN d  66      14.987  41.897  46.571  0.00  0.00     0.083 C 
ATOM     16  O3  SGN d  66      16.388  41.915  46.296  0.00  0.00    -0.391 OA
ATOM     17  C2  SGN d  66      14.647  43.187  47.320  0.00  0.00     0.081 C 
ATOM     18  O4S SGN d  66      15.906  38.237  49.403  0.00  0.00    -0.572 OA
ATOM     19  N   SGN d  66      14.971  44.322  46.445  0.00  0.00    -0.210 NA
ATOM     20  O6  SGN d  66      13.757  39.665  50.082  0.00  0.00    -0.254 OA
ATOM     21  H   SGN d  66      15.300  40.772  48.329  0.00  0.00     0.091 H 
ATOM     22  H   SGN d  66      13.111  38.644  48.410  0.00  0.00     0.080 H 
ATOM     23  H   SGN d  66      11.891  39.618  49.215  0.00  0.00     0.080 H 
ATOM     24  H   SGN d  66      15.119  46.452  48.102  0.00  0.00     0.231 HD
ATOM     25  H   SGN d  66      11.438  43.125  46.717  0.00  0.00     0.212 HD
ATOM     26  H   SGN d  66      12.552  40.622  47.094  0.00  0.00     0.090 H 
ATOM     27  H   SGN d  66      15.639  46.896  45.792  0.00  0.00     0.231 HD
ATOM     28  H   SGN d  66      12.875  44.074  48.250  0.00  0.00     0.131 H 
ATOM     29  H   SGN d  66      12.240  45.112  46.721  0.00  0.00     0.231 HD
ATOM     30  H   SGN d  66      14.427  41.820  45.663  0.00  0.00     0.089 H 
ATOM     31  H   SGN d  66      16.879  41.984  47.129  0.00  0.00     0.210 HD
ATOM     32  H   SGN d  66      15.217  43.261  48.224  0.00  0.00     0.076 H 
ATOM     33  H   SGN d  66      15.947  44.552  46.630  0.00  0.00     0.140 HD
ATOM     34  O61 IDS d  65      15.891  40.983  42.246  0.00  0.00    -0.646 OA
ATOM     35  O3  IDS d  65      13.765  36.459  43.983  0.00  0.00    -0.390 OA
ATOM     36  C5  IDS d  65      15.623  39.680  44.232  0.00  0.00     0.152 C 
ATOM     37  C6  IDS d  65      16.448  40.618  43.311  0.00  0.00     0.206 C 
ATOM     38  O5  IDS d  65      16.469  39.300  45.361  0.00  0.00    -0.340 OA
ATOM     39  C1  IDS d  65      15.876  38.407  46.339  0.00  0.00     0.161 C 
ATOM     40  O1S IDS d  65      12.592  34.625  45.971  0.00  0.00    -0.572 OA
ATOM     41  C4  IDS d  65      15.023  38.426  43.504  0.00  0.00     0.103 C 
ATOM     42  O4  IDS d  65      15.549  38.572  42.182  0.00  0.00    -0.348 OA
ATOM     43  C2  IDS d  65      14.633  37.618  45.828  0.00  0.00     0.134 C 
ATOM     44  O62 IDS d  65      17.606  40.984  43.675  0.00  0.00    -0.646 OA
ATOM     45  C3  IDS d  65      14.870  37.187  44.416  0.00  0.00     0.094 C 
ATOM     46  O2S IDS d  65      11.938  36.910  46.168  0.00  0.00    -0.572 OA
ATOM     47  O3S IDS d  65      12.414  35.661  48.130  0.00  0.00    -0.572 OA
ATOM     48  O2  IDS d  65      14.455  36.430  46.585  0.00  0.00    -0.244 OA
ATOM     49  S   IDS d  65      12.770  35.863  46.728  0.00  0.00     0.252 S 
ATOM     50  H   IDS d  65      13.905  36.173  43.067  0.00  0.00     0.210 HD
ATOM     51  H   IDS d  65      14.762  40.217  44.568  0.00  0.00     0.104 H 
ATOM     52  H   IDS d  65      16.630  37.829  46.832  0.00  0.00     0.133 H 
ATOM     53  H   IDS d  65      13.986  38.265  43.297  0.00  0.00     0.092 H 
ATOM     54  H   IDS d  65      13.778  38.255  45.915  0.00  0.00     0.097 H 
ATOM     55  H   IDS d  65      15.761  36.596  44.371  0.00  0.00     0.091 H 
ATOM     56  O3S SGN d  62      23.608  37.091  38.098  0.00  0.00    -0.296 OA
ATOM     57  C1  SGN d  62      21.718  34.652  36.501  0.00  0.00     0.150 C 
ATOM     58  S2  SGN d  62      19.753  29.813  33.656  0.00  0.00     0.251 S 
ATOM     59  C5  SGN d  62      21.620  32.863  34.770  0.00  0.00     0.091 C 
ATOM     60  O5  SGN d  62      21.736  33.225  36.176  0.00  0.00    -0.349 OA
ATOM     61  O4S SGN d  62      20.335  28.548  33.957  0.00  0.00    -0.572 OA
ATOM     62  O6  SGN d  62      21.003  31.019  33.466  0.00  0.00    -0.254 OA
ATOM     63  O3  SGN d  62      23.497  35.758  33.410  0.00  0.00    -0.391 OA
ATOM     64  S1  SGN d  62      23.632  37.631  36.758  0.00  0.00     0.156 S 
ATOM     65  O6S SGN d  62      18.804  30.260  34.673  0.00  0.00    -0.572 OA
ATOM     66  O4  SGN d  62      22.608  33.133  32.601  0.00  0.00    -0.348 OA
ATOM     67  C6  SGN d  62      21.678  31.358  34.664  0.00  0.00     0.067 C 
ATOM     68  O5S SGN d  62      19.069  29.761  32.393  0.00  0.00    -0.572 OA
ATOM     69  O1S SGN d  62      23.268  39.032  36.734  0.00  0.00    -0.296 OA
ATOM     70  O2S SGN d  62      24.938  37.396  36.212  0.00  0.00    -0.296 OA
ATOM     71  C2  SGN d  62      22.725  35.368  35.612  0.00  0.00     0.081 C 
ATOM     72  C4  SGN d  62      22.753  33.522  33.964  0.00  0.00     0.095 C 
ATOM     73  N   SGN d  62      22.513  36.776  35.728  0.00  0.00    -0.210 NA
ATOM     74  C3  SGN d  62      22.535  35.035  34.129  0.00  0.00     0.083 C 
ATOM     75  H   SGN d  62      22.732  37.239  38.490  0.00  0.00     0.231 HD
ATOM     76  H   SGN d  62      21.956  34.726  37.541  0.00  0.00     0.131 H 
ATOM     77  H   SGN d  62      20.692  33.211  34.367  0.00  0.00     0.090 H 
ATOM     78  H   SGN d  62      23.342  36.708  33.527  0.00  0.00     0.210 HD
ATOM     79  H   SGN d  62      21.192  30.908  35.504  0.00  0.00     0.080 H 
ATOM     80  H   SGN d  62      22.689  31.007  34.654  0.00  0.00     0.080 H 
ATOM     81  H   SGN d  62      22.382  39.143  37.113  0.00  0.00     0.231 HD
ATOM     82  H   SGN d  62      25.138  36.447  36.249  0.00  0.00     0.231 HD
ATOM     83  H   SGN d  62      23.699  35.058  35.927  0.00  0.00     0.076 H 
ATOM     84  H   SGN d  62      23.733  33.240  34.290  0.00  0.00     0.091 H 
ATOM     85  H   SGN d  62      22.577  37.180  34.793  0.00  0.00     0.140 HD
ATOM     86  H   SGN d  62      21.559  35.292  33.773  0.00  0.00     0.089 H 
ATOM     87  O4  IDS d  63      20.443  35.279  36.311  0.00  0.00    -0.348 OA
ATOM     88  O62 IDS d  63      16.816  34.666  36.048  0.00  0.00    -0.646 OA
ATOM     89  C2  IDS d  63      19.934  38.245  37.083  0.00  0.00     0.134 C 
ATOM     90  O2S IDS d  63      20.298  40.505  34.986  0.00  0.00    -0.572 OA
ATOM     91  O61 IDS d  63      17.878  33.472  37.507  0.00  0.00    -0.646 OA
ATOM     92  C3  IDS d  63      20.472  37.147  38.011  0.00  0.00     0.094 C 
ATOM     93  C1  IDS d  63      18.381  38.240  37.098  0.00  0.00     0.161 C 
ATOM     94  O5  IDS d  63      17.937  36.959  36.581  0.00  0.00    -0.340 OA
ATOM     95  C4  IDS d  63      19.910  35.733  37.549  0.00  0.00     0.103 C 
ATOM     96  C6  IDS d  63      17.645  34.544  36.951  0.00  0.00     0.206 C 
ATOM     97  S   IDS d  63      19.947  39.166  34.530  0.00  0.00     0.252 S 
ATOM     98  O3  IDS d  63      19.976  37.477  39.290  0.00  0.00    -0.390 OA
ATOM     99  C5  IDS d  63      18.365  35.806  37.419  0.00  0.00     0.152 C 
ATOM    100  O2  IDS d  63      20.472  38.053  35.801  0.00  0.00    -0.244 OA
ATOM    101  O1S IDS d  63      20.681  38.774  33.341  0.00  0.00    -0.572 OA
ATOM    102  O3S IDS d  63      18.535  39.168  34.280  0.00  0.00    -0.572 OA
ATOM    103  H   IDS d  63      20.237  39.213  37.423  0.00  0.00     0.097 H 
ATOM    104  H   IDS d  63      21.540  37.085  38.000  0.00  0.00     0.091 H 
ATOM    105  H   IDS d  63      17.928  38.992  36.486  0.00  0.00     0.133 H 
ATOM    106  H   IDS d  63      20.214  35.035  38.301  0.00  0.00     0.092 H 
ATOM    107  H   IDS d  63      19.008  37.522  39.259  0.00  0.00     0.210 HD
ATOM    108  H   IDS d  63      18.059  35.935  38.436  0.00  0.00     0.104 H 
ATOM    109  O4  SGN d  64      18.003  38.469  38.490  0.00  0.00    -0.348 OA
ATOM    110  O6  SGN d  64      15.567  41.817  38.762  0.00  0.00    -0.254 OA
ATOM    111  C3  SGN d  64      16.318  37.296  39.821  0.00  0.00     0.083 C 
ATOM    112  S2  SGN d  64      14.344  41.274  37.584  0.00  0.00     0.251 S 
ATOM    113  C5  SGN d  64      16.439  39.787  39.757  0.00  0.00     0.091 C 
ATOM    114  O1S SGN d  64      12.515  34.873  40.179  0.00  0.00    -0.296 OA
ATOM    115  C2  SGN d  64      14.888  37.380  40.258  0.00  0.00     0.081 C 
ATOM    116  O4S SGN d  64      14.976  41.208  36.292  0.00  0.00    -0.572 OA
ATOM    117  O3S SGN d  64      14.628  34.404  39.207  0.00  0.00    -0.296 OA
ATOM    118  S1  SGN d  64      13.942  34.761  40.436  0.00  0.00     0.156 S 
ATOM    119  O6S SGN d  64      13.811  39.974  37.937  0.00  0.00    -0.572 OA
ATOM    120  O5S SGN d  64      13.271  42.232  37.566  0.00  0.00    -0.572 OA
ATOM    121  O3  SGN d  64      16.442  36.109  39.125  0.00  0.00    -0.391 OA
ATOM    122  C1  SGN d  64      14.696  38.653  41.040  0.00  0.00     0.150 C 
ATOM    123  O2S SGN d  64      14.209  33.764  41.437  0.00  0.00    -0.296 OA
ATOM    124  C4  SGN d  64      16.632  38.514  38.914  0.00  0.00     0.095 C 
ATOM    125  O5  SGN d  64      15.052  39.777  40.208  0.00  0.00    -0.349 OA
ATOM    126  C6  SGN d  64      16.729  41.016  38.921  0.00  0.00     0.067 C 
ATOM    127  N   SGN d  64      14.584  36.264  41.119  0.00  0.00    -0.210 NA
ATOM    128  H   SGN d  64      17.002  37.315  40.644  0.00  0.00     0.089 H 
ATOM    129  H   SGN d  64      17.107  39.812  40.593  0.00  0.00     0.090 H 
ATOM    130  H   SGN d  64      12.361  35.549  39.502  0.00  0.00     0.231 HD
ATOM    131  H   SGN d  64      14.249  37.364  39.400  0.00  0.00     0.076 H 
ATOM    132  H   SGN d  64      14.449  35.075  38.530  0.00  0.00     0.231 HD
ATOM    133  H   SGN d  64      15.817  36.103  38.382  0.00  0.00     0.210 HD
ATOM    134  H   SGN d  64      13.680  38.781  41.349  0.00  0.00     0.131 H 
ATOM    135  H   SGN d  64      13.882  32.904  41.131  0.00  0.00     0.231 HD
ATOM    136  H   SGN d  64      15.991  38.504  38.057  0.00  0.00     0.091 H 
ATOM    137  H   SGN d  64      17.489  41.594  39.403  0.00  0.00     0.080 H 
ATOM    138  H   SGN d  64      17.055  40.696  37.953  0.00  0.00     0.080 H 
ATOM    139  H   SGN d  64      13.897  36.595  41.797  0.00  0.00     0.140 HD
ATOM    140  C1  IDS d  61      23.817  32.621  32.003  0.00  0.00     0.167 C 
ATOM    141  O5  IDS d  61      24.803  33.683  31.932  0.00  0.00    -0.311 OA
ATOM    142  C5  IDS d  61      24.690  34.673  30.964  0.00  0.00     0.147 C 
ATOM    143  C6  IDS d  61      25.725  35.861  31.033  0.00  0.00     0.233 C 
ATOM    144  C2  IDS d  61      23.487  32.177  30.582  0.00  0.00     0.135 C 
ATOM    145  O1S IDS d  61      26.693  32.190  31.471  0.00  0.00    -0.572 OA
ATOM    146  O3S IDS d  61      25.618  30.061  31.821  0.00  0.00    -0.572 OA
ATOM    147  O3  IDS d  61      21.687  33.478  29.901  0.00  0.00    -0.389 OA
ATOM    148  C4  IDS d  61      23.811  34.578  29.928  0.00  0.00    -0.034 C 
ATOM    149  C3  IDS d  61      23.044  33.324  29.674  0.00  0.00     0.086 C 
ATOM    150  O61 IDS d  61      25.708  36.740  30.170  0.00  0.00    -0.642 OA
ATOM    151  O62 IDS d  61      26.586  35.891  31.946  0.00  0.00    -0.642 OA
ATOM    152  O2S IDS d  61      27.044  30.518  29.954  0.00  0.00    -0.572 OA
ATOM    153  S   IDS d  61      26.075  31.047  30.853  0.00  0.00     0.252 S 
ATOM    154  O2  IDS d  61      24.646  31.610  29.947  0.00  0.00    -0.244 OA
ATOM    155  H   IDS d  61      24.200  31.807  32.583  0.00  0.00     0.134 H 
ATOM    156  H   IDS d  61      22.689  31.472  30.694  0.00  0.00     0.097 H 
ATOM    157  H   IDS d  61      21.233  32.639  29.723  0.00  0.00     0.210 HD
ATOM    158  H   IDS d  61      23.672  35.390  29.306  0.00  0.00     0.085 H 
ATOM    159  H   IDS d  61      23.239  33.102  28.647  0.00  0.00     0.093 H 
ENDROOT
TORSDOF 50
ENDMDL
MODEL 76
REMARK VINA RESULT:      -4.9      5.636      8.847
REMARK  0 active torsions:
REMARK  status: ('A' for Active; 'I' for Inactive)
REMARK       I    between atoms: O3S_3  and  S1_55 
REMARK       I    between atoms: O3_4  and  C3_87 
REMARK       I    between atoms: O4_5  and  C1_15 
REMARK       I    between atoms: O4_5  and  C4_57 
REMARK       I    between atoms: O4_7  and  C1_36 
REMARK       I    between atoms: O4_7  and  C4_89 
REMARK       I    between atoms: C4_8  and  O4_18 
REMARK       I    between atoms: C2_9  and  O2_84 
REMARK       I    between atoms: C6_10  and  C5_32 
REMARK       I    between atoms: C6_10  and  O6_102 
REMARK       I    between atoms: O6_11  and  C6_93 
REMARK       I    between atoms: O6_11  and  S2_25 
REMARK       I    between atoms: C1_13  and  O4_74 
REMARK       I    between atoms: C3_14  and  O3_71 
REMARK       I    between atoms: O4_18  and  C1_54 
REMARK       I    between atoms: S2_19  and  O6_39 
REMARK       I    between atoms: O2S_21  and  S1_45 
REMARK       I    between atoms: C5_22  and  C6_23 
REMARK       I    between atoms: C5_24  and  C6_77 
REMARK       I    between atoms: O1_27  and  C1_48 
REMARK       I    between atoms: C5_28  and  C6_30 
REMARK       I    between atoms: C5_29  and  C6_93 
REMARK       I    between atoms: O1S_31  and  S1_44 
REMARK       I    between atoms: C3_33  and  O3_69 
REMARK       I    between atoms: C2_37  and  N_99 
REMARK       I    between atoms: S2_38  and  O6_102 
REMARK       I    between atoms: O6_39  and  C6_77 
REMARK       I    between atoms: C2_40  and  O2_103 
REMARK       I    between atoms: O3S_42  and  S1_44 
REMARK       I    between atoms: S1_44  and  N_99 
REMARK       I    between atoms: S1_44  and  O2S_81 
REMARK       I    between atoms: S1_45  and  N_94 
REMARK       I    between atoms: S1_45  and  O1S_46 
REMARK       I    between atoms: S1_45  and  O3S_58 
REMARK       I    between atoms: O3_52  and  C3_105 
REMARK       I    between atoms: S1_55  and  N_100 
REMARK       I    between atoms: S1_55  and  O1S_79 
REMARK       I    between atoms: S1_55  and  O2S_83 
REMARK       I    between atoms: O3_56  and  C3_64 
REMARK       I    between atoms: C4_60  and  O4_61 
REMARK       I    between atoms: O4_61  and  C1_73 
REMARK       I    between atoms: C6_63  and  C5_80 
REMARK       I    between atoms: C3_65  and  O3_82 
REMARK       I    between atoms: S_67  and  O2_84 
REMARK       I    between atoms: C2_68  and  O2_98 
REMARK       I    between atoms: O4_74  and  C4_97 
REMARK       I    between atoms: C2_85  and  N_94 
REMARK       I    between atoms: C2_95  and  N_100 
REMARK       I    between atoms: O2_98  and  S_104 
REMARK       I    between atoms: S_101  and  O2_103 
ROOT
ATOM      1  O6S SGN d  66      21.464  28.408  52.156  0.00  0.00    -0.572 OA
ATOM      2  C4  SGN d  66      17.750  29.961  49.569  0.00  0.00     0.095 C 
ATOM      3  C6  SGN d  66      18.518  27.557  49.651  0.00  0.00     0.067 C 
ATOM      4  O4  SGN d  66      18.683  30.221  48.416  0.00  0.00    -0.348 OA
ATOM      5  O5S SGN d  66      21.696  27.324  50.051  0.00  0.00    -0.572 OA
ATOM      6  O2S SGN d  66      13.052  30.642  52.720  0.00  0.00    -0.296 OA
ATOM      7  O5  SGN d  66      16.368  28.257  50.672  0.00  0.00    -0.350 OA
ATOM      8  O1  SGN d  66      14.432  28.959  49.428  0.00  0.00    -0.369 OA
ATOM      9  C5  SGN d  66      17.298  28.492  49.560  0.00  0.00     0.091 C 
ATOM     10  S2  SGN d  66      20.945  28.325  50.805  0.00  0.00     0.251 S 
ATOM     11  S1  SGN d  66      12.882  31.043  51.337  0.00  0.00     0.156 S 
ATOM     12  O1S SGN d  66      12.021  32.211  51.223  0.00  0.00    -0.296 OA
ATOM     13  C1  SGN d  66      15.173  29.106  50.655  0.00  0.00     0.147 C 
ATOM     14  O3S SGN d  66      12.275  29.977  50.554  0.00  0.00    -0.296 OA
ATOM     15  C3  SGN d  66      16.543  30.913  49.561  0.00  0.00     0.083 C 
ATOM     16  O3  SGN d  66      16.998  32.254  49.736  0.00  0.00    -0.391 OA
ATOM     17  C2  SGN d  66      15.637  30.574  50.748  0.00  0.00     0.081 C 
ATOM     18  O4S SGN d  66      21.042  29.635  50.176  0.00  0.00    -0.572 OA
ATOM     19  N   SGN d  66      14.494  31.497  50.727  0.00  0.00    -0.210 NA
ATOM     20  O6  SGN d  66      19.249  27.788  50.878  0.00  0.00    -0.254 OA
ATOM     21  H   SGN d  66      18.287  30.153  50.474  0.00  0.00     0.091 H 
ATOM     22  H   SGN d  66      19.164  27.741  48.817  0.00  0.00     0.080 H 
ATOM     23  H   SGN d  66      18.176  26.543  49.640  0.00  0.00     0.080 H 
ATOM     24  H   SGN d  66      13.457  31.367  53.220  0.00  0.00     0.231 HD
ATOM     25  H   SGN d  66      14.126  28.043  49.343  0.00  0.00     0.212 HD
ATOM     26  H   SGN d  66      16.791  28.282  48.641  0.00  0.00     0.090 H 
ATOM     27  H   SGN d  66      12.399  32.942  51.737  0.00  0.00     0.231 HD
ATOM     28  H   SGN d  66      14.543  28.822  51.472  0.00  0.00     0.131 H 
ATOM     29  H   SGN d  66      12.826  29.181  50.610  0.00  0.00     0.231 HD
ATOM     30  H   SGN d  66      16.017  30.812  48.635  0.00  0.00     0.089 H 
ATOM     31  H   SGN d  66      17.472  32.327  50.579  0.00  0.00     0.210 HD
ATOM     32  H   SGN d  66      16.167  30.684  51.671  0.00  0.00     0.076 H 
ATOM     33  H   SGN d  66      14.781  32.314  51.267  0.00  0.00     0.140 HD
ATOM     34  O61 IDS d  65      15.966  33.411  45.849  0.00  0.00    -0.646 OA
ATOM     35  O3  IDS d  65      19.487  29.783  44.287  0.00  0.00    -0.390 OA
ATOM     36  C5  IDS d  65      17.707  32.006  46.690  0.00  0.00     0.152 C 
ATOM     37  C6  IDS d  65      16.914  33.340  46.669  0.00  0.00     0.206 C 
ATOM     38  O5  IDS d  65      18.812  32.155  47.634  0.00  0.00    -0.340 OA
ATOM     39  C1  IDS d  65      19.686  31.006  47.790  0.00  0.00     0.161 C 
ATOM     40  O1S IDS d  65      21.292  27.473  44.602  0.00  0.00    -0.572 OA
ATOM     41  C4  IDS d  65      18.203  31.528  45.281  0.00  0.00     0.103 C 
ATOM     42  O4  IDS d  65      17.780  32.604  44.438  0.00  0.00    -0.348 OA
ATOM     43  C2  IDS d  65      19.620  29.977  46.621  0.00  0.00     0.134 C 
ATOM     44  O62 IDS d  65      17.234  34.266  47.474  0.00  0.00    -0.646 OA
ATOM     45  C3  IDS d  65      19.516  30.713  45.324  0.00  0.00     0.094 C 
ATOM     46  O2S IDS d  65      19.222  27.330  45.778  0.00  0.00    -0.572 OA
ATOM     47  O3S IDS d  65      21.216  26.593  46.835  0.00  0.00    -0.572 OA
ATOM     48  O2  IDS d  65      20.819  29.222  46.558  0.00  0.00    -0.244 OA
ATOM     49  S   IDS d  65      20.646  27.569  45.910  0.00  0.00     0.252 S 
ATOM     50  H   IDS d  65      19.419  30.247  43.438  0.00  0.00     0.210 HD
ATOM     51  H   IDS d  65      17.042  31.230  47.005  0.00  0.00     0.104 H 
ATOM     52  H   IDS d  65      20.666  31.313  48.091  0.00  0.00     0.133 H 
ATOM     53  H   IDS d  65      17.825  30.684  44.743  0.00  0.00     0.092 H 
ATOM     54  H   IDS d  65      18.777  29.339  46.789  0.00  0.00     0.097 H 
ATOM     55  H   IDS d  65      20.351  31.374  45.223  0.00  0.00     0.091 H 
ATOM     56  O3S SGN d  62      20.717  41.077  42.600  0.00  0.00    -0.296 OA
ATOM     57  C1  SGN d  62      21.312  39.599  39.512  0.00  0.00     0.150 C 
ATOM     58  S2  SGN d  62      23.357  38.073  34.140  0.00  0.00     0.251 S 
ATOM     59  C5  SGN d  62      22.060  39.882  37.153  0.00  0.00     0.091 C 
ATOM     60  O5  SGN d  62      22.364  39.440  38.507  0.00  0.00    -0.349 OA
ATOM     61  O4S SGN d  62      24.755  38.162  33.879  0.00  0.00    -0.572 OA
ATOM     62  O6  SGN d  62      22.807  39.512  34.965  0.00  0.00    -0.254 OA
ATOM     63  O3  SGN d  62      19.922  42.762  38.095  0.00  0.00    -0.391 OA
ATOM     64  S1  SGN d  62      19.757  41.814  41.811  0.00  0.00     0.156 S 
ATOM     65  O6S SGN d  62      22.998  36.899  34.931  0.00  0.00    -0.572 OA
ATOM     66  O4  SGN d  62      21.393  41.763  35.821  0.00  0.00    -0.348 OA
ATOM     67  C6  SGN d  62      23.279  39.643  36.294  0.00  0.00     0.067 C 
ATOM     68  O5S SGN d  62      22.620  38.028  32.906  0.00  0.00    -0.572 OA
ATOM     69  O1S SGN d  62      18.446  41.822  42.426  0.00  0.00    -0.296 OA
ATOM     70  O2S SGN d  62      20.274  43.136  41.608  0.00  0.00    -0.296 OA
ATOM     71  C2  SGN d  62      20.790  41.028  39.450  0.00  0.00     0.081 C 
ATOM     72  C4  SGN d  62      21.670  41.370  37.163  0.00  0.00     0.095 C 
ATOM     73  N   SGN d  62      19.592  41.108  40.223  0.00  0.00    -0.210 NA
ATOM     74  C3  SGN d  62      20.402  41.446  38.029  0.00  0.00     0.083 C 
ATOM     75  H   SGN d  62      20.389  40.177  42.751  0.00  0.00     0.231 HD
ATOM     76  H   SGN d  62      21.758  39.361  40.454  0.00  0.00     0.131 H 
ATOM     77  H   SGN d  62      21.233  39.333  36.754  0.00  0.00     0.090 H 
ATOM     78  H   SGN d  62      19.124  42.788  38.644  0.00  0.00     0.210 HD
ATOM     79  H   SGN d  62      23.779  38.748  36.600  0.00  0.00     0.080 H 
ATOM     80  H   SGN d  62      23.981  40.446  36.381  0.00  0.00     0.080 H 
ATOM     81  H   SGN d  62      18.138  40.909  42.543  0.00  0.00     0.231 HD
ATOM     82  H   SGN d  62      21.150  43.081  41.195  0.00  0.00     0.231 HD
ATOM     83  H   SGN d  62      21.571  41.664  39.810  0.00  0.00     0.076 H 
ATOM     84  H   SGN d  62      22.435  42.013  37.548  0.00  0.00     0.091 H 
ATOM     85  H   SGN d  62      18.919  41.668  39.700  0.00  0.00     0.140 HD
ATOM     86  H   SGN d  62      19.648  40.815  37.607  0.00  0.00     0.089 H 
ATOM     87  O4  IDS d  63      20.196  38.717  39.335  0.00  0.00    -0.348 OA
ATOM     88  O62 IDS d  63      19.098  35.550  37.800  0.00  0.00    -0.646 OA
ATOM     89  C2  IDS d  63      17.854  38.597  41.373  0.00  0.00     0.134 C 
ATOM     90  O2S IDS d  63      15.321  40.349  40.969  0.00  0.00    -0.572 OA
ATOM     91  O61 IDS d  63      21.092  35.557  38.642  0.00  0.00    -0.646 OA
ATOM     92  C3  IDS d  63      19.342  38.407  41.692  0.00  0.00     0.094 C 
ATOM     93  C1  IDS d  63      17.222  37.242  40.952  0.00  0.00     0.161 C 
ATOM     94  O5  IDS d  63      17.888  36.800  39.742  0.00  0.00    -0.340 OA
ATOM     95  C4  IDS d  63      20.090  37.808  40.423  0.00  0.00     0.103 C 
ATOM     96  C6  IDS d  63      19.896  35.841  38.693  0.00  0.00     0.206 C 
ATOM     97  S   IDS d  63      16.098  39.947  39.804  0.00  0.00     0.252 S 
ATOM     98  O3  IDS d  63      19.369  37.483  42.758  0.00  0.00    -0.390 OA
ATOM     99  C5  IDS d  63      19.341  36.541  39.930  0.00  0.00     0.152 C 
ATOM    100  O2  IDS d  63      17.728  39.589  40.388  0.00  0.00    -0.244 OA
ATOM    101  O1S IDS d  63      16.255  41.024  38.843  0.00  0.00    -0.572 OA
ATOM    102  O3S IDS d  63      15.415  38.833  39.213  0.00  0.00    -0.572 OA
ATOM    103  H   IDS d  63      17.316  38.926  42.238  0.00  0.00     0.097 H 
ATOM    104  H   IDS d  63      19.829  39.325  41.946  0.00  0.00     0.091 H 
ATOM    105  H   IDS d  63      16.177  37.288  40.729  0.00  0.00     0.133 H 
ATOM    106  H   IDS d  63      21.084  37.582  40.747  0.00  0.00     0.092 H 
ATOM    107  H   IDS d  63      18.920  36.667  42.490  0.00  0.00     0.210 HD
ATOM    108  H   IDS d  63      19.509  35.853  40.732  0.00  0.00     0.104 H 
ATOM    109  O4  SGN d  64      17.426  36.347  42.089  0.00  0.00    -0.348 OA
ATOM    110  O6  SGN d  64      13.777  34.862  43.391  0.00  0.00    -0.254 OA
ATOM    111  C3  SGN d  64      18.217  34.033  42.081  0.00  0.00     0.083 C 
ATOM    112  S2  SGN d  64      13.254  34.201  41.820  0.00  0.00     0.251 S 
ATOM    113  C5  SGN d  64      16.195  34.723  43.369  0.00  0.00     0.091 C 
ATOM    114  O1S SGN d  64      18.778  30.031  40.046  0.00  0.00    -0.296 OA
ATOM    115  C2  SGN d  64      17.729  32.616  42.081  0.00  0.00     0.081 C 
ATOM    116  O4S SGN d  64      13.061  35.308  40.919  0.00  0.00    -0.572 OA
ATOM    117  O3S SGN d  64      19.653  32.191  39.602  0.00  0.00    -0.296 OA
ATOM    118  S1  SGN d  64      19.560  31.130  40.589  0.00  0.00     0.156 S 
ATOM    119  O6S SGN d  64      14.241  33.292  41.275  0.00  0.00    -0.572 OA
ATOM    120  O5S SGN d  64      12.017  33.493  42.011  0.00  0.00    -0.572 OA
ATOM    121  O3  SGN d  64      18.969  34.183  40.931  0.00  0.00    -0.391 OA
ATOM    122  C1  SGN d  64      16.912  32.387  43.325  0.00  0.00     0.150 C 
ATOM    123  O2S SGN d  64      20.882  30.694  40.946  0.00  0.00    -0.296 OA
ATOM    124  C4  SGN d  64      16.989  34.980  42.075  0.00  0.00     0.095 C 
ATOM    125  O5  SGN d  64      15.808  33.317  43.343  0.00  0.00    -0.349 OA
ATOM    126  C6  SGN d  64      14.977  35.621  43.420  0.00  0.00     0.067 C 
ATOM    127  N   SGN d  64      18.859  31.720  42.105  0.00  0.00    -0.210 NA
ATOM    128  H   SGN d  64      18.808  34.265  42.942  0.00  0.00     0.089 H 
ATOM    129  H   SGN d  64      16.779  34.938  44.240  0.00  0.00     0.090 H 
ATOM    130  H   SGN d  64      17.892  30.349  39.813  0.00  0.00     0.231 HD
ATOM    131  H   SGN d  64      17.141  32.438  41.205  0.00  0.00     0.076 H 
ATOM    132  H   SGN d  64      18.761  32.486  39.359  0.00  0.00     0.231 HD
ATOM    133  H   SGN d  64      18.424  33.969  40.158  0.00  0.00     0.210 HD
ATOM    134  H   SGN d  64      16.508  31.397  43.361  0.00  0.00     0.131 H 
ATOM    135  H   SGN d  64      21.334  30.354  40.158  0.00  0.00     0.231 HD
ATOM    136  H   SGN d  64      16.396  34.801  41.203  0.00  0.00     0.091 H 
ATOM    137  H   SGN d  64      15.005  36.196  44.322  0.00  0.00     0.080 H 
ATOM    138  H   SGN d  64      14.993  36.261  42.563  0.00  0.00     0.080 H 
ATOM    139  H   SGN d  64      18.570  30.898  42.635  0.00  0.00     0.140 HD
ATOM    140  C1  IDS d  61      22.078  42.962  35.405  0.00  0.00     0.167 C 
ATOM    141  O5  IDS d  61      21.584  44.087  36.177  0.00  0.00    -0.311 OA
ATOM    142  C5  IDS d  61      20.344  44.639  35.886  0.00  0.00     0.147 C 
ATOM    143  C6  IDS d  61      19.822  45.774  36.850  0.00  0.00     0.233 C 
ATOM    144  C2  IDS d  61      21.748  43.207  33.936  0.00  0.00     0.135 C 
ATOM    145  O1S IDS d  61      23.410  45.597  35.545  0.00  0.00    -0.572 OA
ATOM    146  O3S IDS d  61      24.852  44.033  34.413  0.00  0.00    -0.572 OA
ATOM    147  O3  IDS d  61      19.668  42.238  33.573  0.00  0.00    -0.389 OA
ATOM    148  C4  IDS d  61      19.651  44.315  34.758  0.00  0.00    -0.034 C 
ATOM    149  C3  IDS d  61      20.265  43.482  33.685  0.00  0.00     0.086 C 
ATOM    150  O61 IDS d  61      18.754  46.338  36.612  0.00  0.00    -0.642 OA
ATOM    151  O62 IDS d  61      20.513  46.122  37.839  0.00  0.00    -0.642 OA
ATOM    152  O2S IDS d  61      24.331  46.201  33.544  0.00  0.00    -0.572 OA
ATOM    153  S   IDS d  61      23.851  45.080  34.277  0.00  0.00     0.252 S 
ATOM    154  O2  IDS d  61      22.442  44.367  33.448  0.00  0.00    -0.244 OA
ATOM    155  H   IDS d  61      23.133  42.855  35.550  0.00  0.00     0.134 H 
ATOM    156  H   IDS d  61      22.041  42.307  33.437  0.00  0.00     0.097 H 
ATOM    157  H   IDS d  61      20.099  41.735  32.864  0.00  0.00     0.210 HD
ATOM    158  H   IDS d  61      18.682  44.652  34.645  0.00  0.00     0.085 H 
ATOM    159  H   IDS d  61      20.124  44.057  32.794  0.00  0.00     0.093 H 
ENDROOT
TORSDOF 50
ENDMDL
MODEL 77
REMARK VINA RESULT:      -4.9      4.248     16.819
REMARK  0 active torsions:
REMARK  status: ('A' for Active; 'I' for Inactive)
REMARK       I    between atoms: O3S_3  and  S1_55 
REMARK       I    between atoms: O3_4  and  C3_87 
REMARK       I    between atoms: O4_5  and  C1_15 
REMARK       I    between atoms: O4_5  and  C4_57 
REMARK       I    between atoms: O4_7  and  C1_36 
REMARK       I    between atoms: O4_7  and  C4_89 
REMARK       I    between atoms: C4_8  and  O4_18 
REMARK       I    between atoms: C2_9  and  O2_84 
REMARK       I    between atoms: C6_10  and  C5_32 
REMARK       I    between atoms: C6_10  and  O6_102 
REMARK       I    between atoms: O6_11  and  C6_93 
REMARK       I    between atoms: O6_11  and  S2_25 
REMARK       I    between atoms: C1_13  and  O4_74 
REMARK       I    between atoms: C3_14  and  O3_71 
REMARK       I    between atoms: O4_18  and  C1_54 
REMARK       I    between atoms: S2_19  and  O6_39 
REMARK       I    between atoms: O2S_21  and  S1_45 
REMARK       I    between atoms: C5_22  and  C6_23 
REMARK       I    between atoms: C5_24  and  C6_77 
REMARK       I    between atoms: O1_27  and  C1_48 
REMARK       I    between atoms: C5_28  and  C6_30 
REMARK       I    between atoms: C5_29  and  C6_93 
REMARK       I    between atoms: O1S_31  and  S1_44 
REMARK       I    between atoms: C3_33  and  O3_69 
REMARK       I    between atoms: C2_37  and  N_99 
REMARK       I    between atoms: S2_38  and  O6_102 
REMARK       I    between atoms: O6_39  and  C6_77 
REMARK       I    between atoms: C2_40  and  O2_103 
REMARK       I    between atoms: O3S_42  and  S1_44 
REMARK       I    between atoms: S1_44  and  N_99 
REMARK       I    between atoms: S1_44  and  O2S_81 
REMARK       I    between atoms: S1_45  and  N_94 
REMARK       I    between atoms: S1_45  and  O1S_46 
REMARK       I    between atoms: S1_45  and  O3S_58 
REMARK       I    between atoms: O3_52  and  C3_105 
REMARK       I    between atoms: S1_55  and  N_100 
REMARK       I    between atoms: S1_55  and  O1S_79 
REMARK       I    between atoms: S1_55  and  O2S_83 
REMARK       I    between atoms: O3_56  and  C3_64 
REMARK       I    between atoms: C4_60  and  O4_61 
REMARK       I    between atoms: O4_61  and  C1_73 
REMARK       I    between atoms: C6_63  and  C5_80 
REMARK       I    between atoms: C3_65  and  O3_82 
REMARK       I    between atoms: S_67  and  O2_84 
REMARK       I    between atoms: C2_68  and  O2_98 
REMARK       I    between atoms: O4_74  and  C4_97 
REMARK       I    between atoms: C2_85  and  N_94 
REMARK       I    between atoms: C2_95  and  N_100 
REMARK       I    between atoms: O2_98  and  S_104 
REMARK       I    between atoms: S_101  and  O2_103 
ROOT
ATOM      1  O6S SGN d  66      24.198  36.446  31.798  0.00  0.00    -0.572 OA
ATOM      2  C4  SGN d  66      20.073  35.638  34.083  0.00  0.00     0.095 C 
ATOM      3  C6  SGN d  66      20.258  36.825  31.863  0.00  0.00     0.067 C 
ATOM      4  O4  SGN d  66      20.232  36.952  34.800  0.00  0.00    -0.348 OA
ATOM      5  O5S SGN d  66      22.994  38.488  31.614  0.00  0.00    -0.572 OA
ATOM      6  O2S SGN d  66      18.185  30.315  33.325  0.00  0.00    -0.296 OA
ATOM      7  O5  SGN d  66      19.237  34.571  32.035  0.00  0.00    -0.350 OA
ATOM      8  O1  SGN d  66      17.122  34.109  33.087  0.00  0.00    -0.369 OA
ATOM      9  C5  SGN d  66      19.411  35.862  32.714  0.00  0.00     0.091 C 
ATOM     10  S2  SGN d  66      23.010  37.160  32.220  0.00  0.00     0.251 S 
ATOM     11  S1  SGN d  66      17.356  31.099  34.219  0.00  0.00     0.156 S 
ATOM     12  O1S SGN d  66      16.832  30.288  35.309  0.00  0.00    -0.296 OA
ATOM     13  C1  SGN d  66      18.434  33.596  32.780  0.00  0.00     0.147 C 
ATOM     14  O3S SGN d  66      16.218  31.668  33.513  0.00  0.00    -0.296 OA
ATOM     15  C3  SGN d  66      19.286  34.615  34.919  0.00  0.00     0.083 C 
ATOM     16  O3  SGN d  66      20.018  34.313  36.106  0.00  0.00    -0.391 OA
ATOM     17  C2  SGN d  66      19.152  33.318  34.117  0.00  0.00     0.081 C 
ATOM     18  O4S SGN d  66      22.998  37.247  33.673  0.00  0.00    -0.572 OA
ATOM     19  N   SGN d  66      18.404  32.352  34.933  0.00  0.00    -0.210 NA
ATOM     20  O6  SGN d  66      21.578  36.280  31.633  0.00  0.00    -0.254 OA
ATOM     21  H   SGN d  66      21.049  35.227  33.933  0.00  0.00     0.091 H 
ATOM     22  H   SGN d  66      20.349  37.760  32.376  0.00  0.00     0.080 H 
ATOM     23  H   SGN d  66      19.774  36.966  30.918  0.00  0.00     0.080 H 
ATOM     24  H   SGN d  66      18.935  29.948  33.818  0.00  0.00     0.231 HD
ATOM     25  H   SGN d  66      16.646  34.293  32.263  0.00  0.00     0.212 HD
ATOM     26  H   SGN d  66      18.448  36.306  32.854  0.00  0.00     0.090 H 
ATOM     27  H   SGN d  66      17.569  29.893  35.800  0.00  0.00     0.231 HD
ATOM     28  H   SGN d  66      18.326  32.717  32.181  0.00  0.00     0.131 H 
ATOM     29  H   SGN d  66      16.534  32.216  32.778  0.00  0.00     0.231 HD
ATOM     30  H   SGN d  66      18.325  35.018  35.161  0.00  0.00     0.089 H 
ATOM     31  H   SGN d  66      20.884  33.950  35.868  0.00  0.00     0.210 HD
ATOM     32  H   SGN d  66      20.116  32.916  33.884  0.00  0.00     0.076 H 
ATOM     33  H   SGN d  66      19.099  31.855  35.491  0.00  0.00     0.140 HD
ATOM     34  O61 IDS d  65      17.246  36.179  38.626  0.00  0.00    -0.646 OA
ATOM     35  O3  IDS d  65      18.486  40.609  36.011  0.00  0.00    -0.390 OA
ATOM     36  C5  IDS d  65      18.838  37.054  37.073  0.00  0.00     0.152 C 
ATOM     37  C6  IDS d  65      18.454  36.161  38.282  0.00  0.00     0.206 C 
ATOM     38  O5  IDS d  65      20.284  36.965  36.890  0.00  0.00    -0.340 OA
ATOM     39  C1  IDS d  65      20.846  37.747  35.803  0.00  0.00     0.161 C 
ATOM     40  O1S IDS d  65      19.655  42.208  33.827  0.00  0.00    -0.572 OA
ATOM     41  C4  IDS d  65      18.355  38.543  37.191  0.00  0.00     0.103 C 
ATOM     42  O4  IDS d  65      17.758  38.557  38.491  0.00  0.00    -0.348 OA
ATOM     43  C2  IDS d  65      19.935  38.907  35.300  0.00  0.00     0.134 C 
ATOM     44  O62 IDS d  65      19.346  35.453  38.839  0.00  0.00    -0.646 OA
ATOM     45  C3  IDS d  65      19.273  39.557  36.472  0.00  0.00     0.094 C 
ATOM     46  O2S IDS d  65      18.617  40.165  33.165  0.00  0.00    -0.572 OA
ATOM     47  O3S IDS d  65      20.666  40.812  32.155  0.00  0.00    -0.572 OA
ATOM     48  O2  IDS d  65      20.715  39.913  34.672  0.00  0.00    -0.244 OA
ATOM     49  S   IDS d  65      19.884  40.832  33.389  0.00  0.00     0.252 S 
ATOM     50  H   IDS d  65      18.050  41.040  36.762  0.00  0.00     0.210 HD
ATOM     51  H   IDS d  65      18.324  36.686  36.211  0.00  0.00     0.104 H 
ATOM     52  H   IDS d  65      21.864  38.004  36.007  0.00  0.00     0.133 H 
ATOM     53  H   IDS d  65      17.582  38.993  36.604  0.00  0.00     0.092 H 
ATOM     54  H   IDS d  65      19.223  38.495  34.615  0.00  0.00     0.097 H 
ATOM     55  H   IDS d  65      20.021  39.907  37.152  0.00  0.00     0.091 H 
ATOM     56  O3S SGN d  62      20.785  38.851  47.126  0.00  0.00    -0.296 OA
ATOM     57  C1  SGN d  62      19.245  41.962  46.970  0.00  0.00     0.150 C 
ATOM     58  S2  SGN d  62      17.587  47.626  47.700  0.00  0.00     0.251 S 
ATOM     59  C5  SGN d  62      18.586  44.046  48.164  0.00  0.00     0.091 C 
ATOM     60  O5  SGN d  62      19.499  43.376  47.248  0.00  0.00    -0.349 OA
ATOM     61  O4S SGN d  62      18.585  48.616  47.934  0.00  0.00    -0.572 OA
ATOM     62  O6  SGN d  62      17.892  46.219  48.690  0.00  0.00    -0.254 OA
ATOM     63  O3  SGN d  62      17.965  41.138  50.379  0.00  0.00    -0.391 OA
ATOM     64  S1  SGN d  62      19.718  38.619  48.072  0.00  0.00     0.156 S 
ATOM     65  O6S SGN d  62      17.506  47.219  46.299  0.00  0.00    -0.572 OA
ATOM     66  O4  SGN d  62      17.680  44.010  50.385  0.00  0.00    -0.348 OA
ATOM     67  C6  SGN d  62      19.040  45.478  48.318  0.00  0.00     0.067 C 
ATOM     68  O5S SGN d  62      16.296  48.112  48.103  0.00  0.00    -0.572 OA
ATOM     69  O1S SGN d  62      19.007  37.389  47.794  0.00  0.00    -0.296 OA
ATOM     70  O2S SGN d  62      20.284  38.638  49.390  0.00  0.00    -0.296 OA
ATOM     71  C2  SGN d  62      19.075  41.227  48.292  0.00  0.00     0.081 C 
ATOM     72  C4  SGN d  62      18.574  43.316  49.518  0.00  0.00     0.095 C 
ATOM     73  N   SGN d  62      18.558  39.922  48.023  0.00  0.00    -0.210 NA
ATOM     74  C3  SGN d  62      18.052  41.904  49.208  0.00  0.00     0.083 C 
ATOM     75  H   SGN d  62      20.425  38.842  46.225  0.00  0.00     0.231 HD
ATOM     76  H   SGN d  62      20.083  41.611  46.405  0.00  0.00     0.131 H 
ATOM     77  H   SGN d  62      17.588  44.031  47.779  0.00  0.00     0.090 H 
ATOM     78  H   SGN d  62      17.634  40.252  50.162  0.00  0.00     0.210 HD
ATOM     79  H   SGN d  62      19.436  45.844  47.394  0.00  0.00     0.080 H 
ATOM     80  H   SGN d  62      19.814  45.564  49.053  0.00  0.00     0.080 H 
ATOM     81  H   SGN d  62      18.643  37.421  46.895  0.00  0.00     0.231 HD
ATOM     82  H   SGN d  62      20.748  39.478  49.530  0.00  0.00     0.231 HD
ATOM     83  H   SGN d  62      20.032  41.214  48.770  0.00  0.00     0.076 H 
ATOM     84  H   SGN d  62      19.533  43.273  49.992  0.00  0.00     0.091 H 
ATOM     85  H   SGN d  62      17.835  39.724  48.716  0.00  0.00     0.140 HD
ATOM     86  H   SGN d  62      17.083  41.976  48.759  0.00  0.00     0.089 H 
ATOM     87  O4  IDS d  63      18.072  41.722  46.181  0.00  0.00    -0.348 OA
ATOM     88  O62 IDS d  63      15.699  43.247  43.806  0.00  0.00    -0.646 OA
ATOM     89  C2  IDS d  63      17.300  38.877  45.200  0.00  0.00     0.134 C 
ATOM     90  O2S IDS d  63      15.384  37.097  46.876  0.00  0.00    -0.572 OA
ATOM     91  O61 IDS d  63      17.777  43.805  43.565  0.00  0.00    -0.646 OA
ATOM     92  C3  IDS d  63      18.639  39.586  44.958  0.00  0.00     0.094 C 
ATOM     93  C1  IDS d  63      16.286  39.260  44.087  0.00  0.00     0.161 C 
ATOM     94  O5  IDS d  63      16.058  40.690  44.169  0.00  0.00    -0.340 OA
ATOM     95  C4  IDS d  63      18.413  41.159  44.921  0.00  0.00     0.103 C 
ATOM     96  C6  IDS d  63      16.899  42.966  43.763  0.00  0.00     0.206 C 
ATOM     97  S   IDS d  63      15.278  38.546  46.981  0.00  0.00     0.252 S 
ATOM     98  O3  IDS d  63      19.072  39.122  43.698  0.00  0.00    -0.390 OA
ATOM     99  C5  IDS d  63      17.281  41.497  43.912  0.00  0.00     0.152 C 
ATOM    100  O2  IDS d  63      16.847  39.199  46.489  0.00  0.00    -0.244 OA
ATOM    101  O1S IDS d  63      15.083  38.991  48.349  0.00  0.00    -0.572 OA
ATOM    102  O3S IDS d  63      14.176  38.944  46.154  0.00  0.00    -0.572 OA
ATOM    103  H   IDS d  63      17.415  37.814  45.151  0.00  0.00     0.097 H 
ATOM    104  H   IDS d  63      19.356  39.384  45.726  0.00  0.00     0.091 H 
ATOM    105  H   IDS d  63      15.329  38.790  44.176  0.00  0.00     0.133 H 
ATOM    106  H   IDS d  63      19.349  41.584  44.625  0.00  0.00     0.092 H 
ATOM    107  H   IDS d  63      18.398  39.324  43.030  0.00  0.00     0.210 HD
ATOM    108  H   IDS d  63      17.728  41.234  42.977  0.00  0.00     0.104 H 
ATOM    109  O4  SGN d  64      16.907  38.839  42.833  0.00  0.00    -0.348 OA
ATOM    110  O6  SGN d  64      14.400  36.212  40.825  0.00  0.00    -0.254 OA
ATOM    111  C3  SGN d  64      17.078  40.078  40.730  0.00  0.00     0.083 C 
ATOM    112  S2  SGN d  64      12.969  37.277  40.799  0.00  0.00     0.251 S 
ATOM    113  C5  SGN d  64      16.306  37.706  40.797  0.00  0.00     0.091 C 
ATOM    114  O1S SGN d  64      15.596  43.227  37.840  0.00  0.00    -0.296 OA
ATOM    115  C2  SGN d  64      16.403  40.256  39.405  0.00  0.00     0.081 C 
ATOM    116  O4S SGN d  64      12.532  37.460  42.159  0.00  0.00    -0.572 OA
ATOM    117  O3S SGN d  64      16.483  43.359  40.036  0.00  0.00    -0.296 OA
ATOM    118  S1  SGN d  64      16.748  42.928  38.675  0.00  0.00     0.156 S 
ATOM    119  O6S SGN d  64      13.279  38.562  40.206  0.00  0.00    -0.572 OA
ATOM    120  O5S SGN d  64      11.939  36.638  40.025  0.00  0.00    -0.572 OA
ATOM    121  O3  SGN d  64      17.071  41.318  41.338  0.00  0.00    -0.391 OA
ATOM    122  C1  SGN d  64      16.394  38.933  38.686  0.00  0.00     0.150 C 
ATOM    123  O2S SGN d  64      17.925  43.591  38.186  0.00  0.00    -0.296 OA
ATOM    124  C4  SGN d  64      16.275  39.042  41.560  0.00  0.00     0.095 C 
ATOM    125  O5  SGN d  64      15.701  37.960  39.495  0.00  0.00    -0.349 OA
ATOM    126  C6  SGN d  64      15.533  36.651  41.560  0.00  0.00     0.067 C 
ATOM    127  N   SGN d  64      17.148  41.203  38.612  0.00  0.00    -0.210 NA
ATOM    128  H   SGN d  64      18.081  39.717  40.637  0.00  0.00     0.089 H 
ATOM    129  H   SGN d  64      17.306  37.340  40.683  0.00  0.00     0.090 H 
ATOM    130  H   SGN d  64      14.816  42.769  38.189  0.00  0.00     0.231 HD
ATOM    131  H   SGN d  64      15.405  40.611  39.555  0.00  0.00     0.076 H 
ATOM    132  H   SGN d  64      15.688  42.912  40.368  0.00  0.00     0.231 HD
ATOM    133  H   SGN d  64      16.158  41.636  41.417  0.00  0.00     0.210 HD
ATOM    134  H   SGN d  64      15.892  38.995  37.743  0.00  0.00     0.131 H 
ATOM    135  H   SGN d  64      17.781  44.550  38.192  0.00  0.00     0.231 HD
ATOM    136  H   SGN d  64      15.274  39.392  41.708  0.00  0.00     0.091 H 
ATOM    137  H   SGN d  64      16.174  35.815  41.745  0.00  0.00     0.080 H 
ATOM    138  H   SGN d  64      15.196  37.080  42.480  0.00  0.00     0.080 H 
ATOM    139  H   SGN d  64      17.047  40.913  37.639  0.00  0.00     0.140 HD
ATOM    140  C1  IDS d  61      18.238  44.326  51.677  0.00  0.00     0.167 C 
ATOM    141  O5  IDS d  61      18.496  43.094  52.400  0.00  0.00    -0.311 OA
ATOM    142  C5  IDS d  61      17.444  42.392  52.974  0.00  0.00     0.147 C 
ATOM    143  C6  IDS d  61      17.789  41.000  53.631  0.00  0.00     0.233 C 
ATOM    144  C2  IDS d  61      17.201  45.129  52.453  0.00  0.00     0.135 C 
ATOM    145  O1S IDS d  61      19.914  44.140  54.105  0.00  0.00    -0.572 OA
ATOM    146  O3S IDS d  61      20.131  46.343  53.150  0.00  0.00    -0.572 OA
ATOM    147  O3  IDS d  61      15.130  44.486  51.621  0.00  0.00    -0.389 OA
ATOM    148  C4  IDS d  61      16.192  42.918  53.081  0.00  0.00    -0.034 C 
ATOM    149  C3  IDS d  61      15.921  44.346  52.748  0.00  0.00     0.086 C 
ATOM    150  O61 IDS d  61      16.908  40.357  54.203  0.00  0.00    -0.642 OA
ATOM    151  O62 IDS d  61      18.967  40.566  53.600  0.00  0.00    -0.642 OA
ATOM    152  O2S IDS d  61      19.659  45.959  55.465  0.00  0.00    -0.572 OA
ATOM    153  S   IDS d  61      19.457  45.505  54.131  0.00  0.00     0.252 S 
ATOM    154  O2  IDS d  61      17.718  45.516  53.738  0.00  0.00    -0.244 OA
ATOM    155  H   IDS d  61      19.148  44.878  51.562  0.00  0.00     0.134 H 
ATOM    156  H   IDS d  61      16.979  45.968  51.826  0.00  0.00     0.097 H 
ATOM    157  H   IDS d  61      14.981  45.428  51.444  0.00  0.00     0.210 HD
ATOM    158  H   IDS d  61      15.416  42.317  53.400  0.00  0.00     0.085 H 
ATOM    159  H   IDS d  61      15.425  44.728  53.615  0.00  0.00     0.093 H 
ENDROOT
TORSDOF 50
ENDMDL
MODEL 78
REMARK VINA RESULT:      -4.9      3.857      5.756
REMARK  0 active torsions:
REMARK  status: ('A' for Active; 'I' for Inactive)
REMARK       I    between atoms: O3S_3  and  S1_55 
REMARK       I    between atoms: O3_4  and  C3_87 
REMARK       I    between atoms: O4_5  and  C1_15 
REMARK       I    between atoms: O4_5  and  C4_57 
REMARK       I    between atoms: O4_7  and  C1_36 
REMARK       I    between atoms: O4_7  and  C4_89 
REMARK       I    between atoms: C4_8  and  O4_18 
REMARK       I    between atoms: C2_9  and  O2_84 
REMARK       I    between atoms: C6_10  and  C5_32 
REMARK       I    between atoms: C6_10  and  O6_102 
REMARK       I    between atoms: O6_11  and  C6_93 
REMARK       I    between atoms: O6_11  and  S2_25 
REMARK       I    between atoms: C1_13  and  O4_74 
REMARK       I    between atoms: C3_14  and  O3_71 
REMARK       I    between atoms: O4_18  and  C1_54 
REMARK       I    between atoms: S2_19  and  O6_39 
REMARK       I    between atoms: O2S_21  and  S1_45 
REMARK       I    between atoms: C5_22  and  C6_23 
REMARK       I    between atoms: C5_24  and  C6_77 
REMARK       I    between atoms: O1_27  and  C1_48 
REMARK       I    between atoms: C5_28  and  C6_30 
REMARK       I    between atoms: C5_29  and  C6_93 
REMARK       I    between atoms: O1S_31  and  S1_44 
REMARK       I    between atoms: C3_33  and  O3_69 
REMARK       I    between atoms: C2_37  and  N_99 
REMARK       I    between atoms: S2_38  and  O6_102 
REMARK       I    between atoms: O6_39  and  C6_77 
REMARK       I    between atoms: C2_40  and  O2_103 
REMARK       I    between atoms: O3S_42  and  S1_44 
REMARK       I    between atoms: S1_44  and  N_99 
REMARK       I    between atoms: S1_44  and  O2S_81 
REMARK       I    between atoms: S1_45  and  N_94 
REMARK       I    between atoms: S1_45  and  O1S_46 
REMARK       I    between atoms: S1_45  and  O3S_58 
REMARK       I    between atoms: O3_52  and  C3_105 
REMARK       I    between atoms: S1_55  and  N_100 
REMARK       I    between atoms: S1_55  and  O1S_79 
REMARK       I    between atoms: S1_55  and  O2S_83 
REMARK       I    between atoms: O3_56  and  C3_64 
REMARK       I    between atoms: C4_60  and  O4_61 
REMARK       I    between atoms: O4_61  and  C1_73 
REMARK       I    between atoms: C6_63  and  C5_80 
REMARK       I    between atoms: C3_65  and  O3_82 
REMARK       I    between atoms: S_67  and  O2_84 
REMARK       I    between atoms: C2_68  and  O2_98 
REMARK       I    between atoms: O4_74  and  C4_97 
REMARK       I    between atoms: C2_85  and  N_94 
REMARK       I    between atoms: C2_95  and  N_100 
REMARK       I    between atoms: O2_98  and  S_104 
REMARK       I    between atoms: S_101  and  O2_103 
ROOT
ATOM      1  O6S SGN d  66      21.127  44.426  48.533  0.00  0.00    -0.572 OA
ATOM      2  C4  SGN d  66      17.753  41.623  46.623  0.00  0.00     0.095 C 
ATOM      3  C6  SGN d  66      18.446  41.559  49.049  0.00  0.00     0.067 C 
ATOM      4  O4  SGN d  66      18.809  40.603  46.292  0.00  0.00    -0.348 OA
ATOM      5  O5S SGN d  66      21.556  42.264  49.429  0.00  0.00    -0.572 OA
ATOM      6  O2S SGN d  66      12.763  44.318  46.065  0.00  0.00    -0.296 OA
ATOM      7  O5  SGN d  66      16.218  42.412  48.370  0.00  0.00    -0.350 OA
ATOM      8  O1  SGN d  66      14.444  41.044  47.490  0.00  0.00    -0.369 OA
ATOM      9  C5  SGN d  66      17.267  41.429  48.067  0.00  0.00     0.091 C 
ATOM     10  S2  SGN d  66      20.755  43.026  48.475  0.00  0.00     0.251 S 
ATOM     11  S1  SGN d  66      12.752  42.969  45.534  0.00  0.00     0.156 S 
ATOM     12  O1S SGN d  66      11.938  42.876  44.331  0.00  0.00    -0.296 OA
ATOM     13  C1  SGN d  66      15.053  42.350  47.481  0.00  0.00     0.147 C 
ATOM     14  O3S SGN d  66      12.206  42.030  46.503  0.00  0.00    -0.296 OA
ATOM     15  C3  SGN d  66      16.577  41.579  45.632  0.00  0.00     0.083 C 
ATOM     16  O3  SGN d  66      17.045  41.926  44.329  0.00  0.00    -0.391 OA
ATOM     17  C2  SGN d  66      15.542  42.628  46.045  0.00  0.00     0.081 C 
ATOM     18  O4S SGN d  66      20.951  42.537  47.118  0.00  0.00    -0.572 OA
ATOM     19  N   SGN d  66      14.431  42.575  45.084  0.00  0.00    -0.210 NA
ATOM     20  O6  SGN d  66      19.048  42.872  48.956  0.00  0.00    -0.254 OA
ATOM     21  H   SGN d  66      18.195  42.593  46.533  0.00  0.00     0.091 H 
ATOM     22  H   SGN d  66      19.182  40.818  48.814  0.00  0.00     0.080 H 
ATOM     23  H   SGN d  66      18.082  41.417  50.046  0.00  0.00     0.080 H 
ATOM     24  H   SGN d  66      13.130  44.923  45.402  0.00  0.00     0.231 HD
ATOM     25  H   SGN d  66      14.126  40.842  48.384  0.00  0.00     0.212 HD
ATOM     26  H   SGN d  66      16.856  40.447  48.175  0.00  0.00     0.090 H 
ATOM     27  H   SGN d  66      12.277  43.492  43.663  0.00  0.00     0.231 HD
ATOM     28  H   SGN d  66      14.332  43.066  47.816  0.00  0.00     0.131 H 
ATOM     29  H   SGN d  66      12.728  42.068  47.320  0.00  0.00     0.231 HD
ATOM     30  H   SGN d  66      16.151  40.598  45.630  0.00  0.00     0.089 H 
ATOM     31  H   SGN d  66      17.428  42.817  44.350  0.00  0.00     0.210 HD
ATOM     32  H   SGN d  66      15.972  43.608  46.037  0.00  0.00     0.076 H 
ATOM     33  H   SGN d  66      14.679  43.216  44.330  0.00  0.00     0.140 HD
ATOM     34  O61 IDS d  65      16.464  38.078  42.789  0.00  0.00    -0.646 OA
ATOM     35  O3  IDS d  65      20.039  36.558  46.382  0.00  0.00    -0.390 OA
ATOM     36  C5  IDS d  65      18.069  38.960  44.324  0.00  0.00     0.152 C 
ATOM     37  C6  IDS d  65      17.317  38.982  42.967  0.00  0.00     0.206 C 
ATOM     38  O5  IDS d  65      19.070  40.024  44.301  0.00  0.00    -0.340 OA
ATOM     39  C1  IDS d  65      19.893  40.161  45.489  0.00  0.00     0.161 C 
ATOM     40  O1S IDS d  65      21.741  36.841  48.773  0.00  0.00    -0.572 OA
ATOM     41  C4  IDS d  65      18.701  37.571  44.690  0.00  0.00     0.103 C 
ATOM     42  O4  IDS d  65      18.398  36.794  43.529  0.00  0.00    -0.348 OA
ATOM     43  C2  IDS d  65      19.926  38.901  46.405  0.00  0.00     0.134 C 
ATOM     44  O62 IDS d  65      17.573  39.899  42.130  0.00  0.00    -0.646 OA
ATOM     45  C3  IDS d  65      19.980  37.674  45.551  0.00  0.00     0.094 C 
ATOM     46  O2S IDS d  65      19.554  37.777  48.950  0.00  0.00    -0.572 OA
ATOM     47  O3S IDS d  65      21.405  38.961  49.849  0.00  0.00    -0.572 OA
ATOM     48  O2  IDS d  65      21.106  38.892  47.193  0.00  0.00    -0.244 OA
ATOM     49  S   IDS d  65      20.961  38.078  48.774  0.00  0.00     0.252 S 
ATOM     50  H   IDS d  65      20.074  35.754  45.841  0.00  0.00     0.210 HD
ATOM     51  H   IDS d  65      17.355  39.130  45.102  0.00  0.00     0.104 H 
ATOM     52  H   IDS d  65      20.842  40.591  45.246  0.00  0.00     0.133 H 
ATOM     53  H   IDS d  65      18.361  36.921  45.469  0.00  0.00     0.092 H 
ATOM     54  H   IDS d  65      19.055  38.920  47.026  0.00  0.00     0.097 H 
ATOM     55  H   IDS d  65      20.838  37.723  44.914  0.00  0.00     0.091 H 
ATOM     56  O3S SGN d  62      21.728  36.074  35.032  0.00  0.00    -0.296 OA
ATOM     57  C1  SGN d  62      22.613  32.940  36.244  0.00  0.00     0.150 C 
ATOM     58  S2  SGN d  62      25.181  27.691  37.348  0.00  0.00     0.251 S 
ATOM     59  C5  SGN d  62      23.616  30.709  35.775  0.00  0.00     0.091 C 
ATOM     60  O5  SGN d  62      23.762  32.040  36.348  0.00  0.00    -0.349 OA
ATOM     61  O4S SGN d  62      26.601  27.587  37.285  0.00  0.00    -0.572 OA
ATOM     62  O6  SGN d  62      24.583  28.586  35.972  0.00  0.00    -0.254 OA
ATOM     63  O3  SGN d  62      21.463  31.689  32.919  0.00  0.00    -0.391 OA
ATOM     64  S1  SGN d  62      20.877  35.262  34.194  0.00  0.00     0.156 S 
ATOM     65  O6S SGN d  62      24.710  28.327  38.576  0.00  0.00    -0.572 OA
ATOM     66  O4  SGN d  62      23.143  29.496  33.759  0.00  0.00    -0.348 OA
ATOM     67  C6  SGN d  62      24.913  29.963  35.978  0.00  0.00     0.067 C 
ATOM     68  O5S SGN d  62      24.580  26.388  37.255  0.00  0.00    -0.572 OA
ATOM     69  O1S SGN d  62      19.508  35.735  34.195  0.00  0.00    -0.296 OA
ATOM     70  O2S SGN d  62      21.446  35.239  32.877  0.00  0.00    -0.296 OA
ATOM     71  C2  SGN d  62      22.137  32.958  34.798  0.00  0.00     0.081 C 
ATOM     72  C4  SGN d  62      23.264  30.818  34.281  0.00  0.00     0.095 C 
ATOM     73  N   SGN d  62      20.865  33.607  34.747  0.00  0.00    -0.210 NA
ATOM     74  C3  SGN d  62      21.913  31.550  34.240  0.00  0.00     0.083 C 
ATOM     75  H   SGN d  62      21.363  36.105  35.930  0.00  0.00     0.231 HD
ATOM     76  H   SGN d  62      22.949  33.897  36.582  0.00  0.00     0.131 H 
ATOM     77  H   SGN d  62      22.822  30.176  36.256  0.00  0.00     0.090 H 
ATOM     78  H   SGN d  62      20.611  32.152  32.915  0.00  0.00     0.210 HD
ATOM     79  H   SGN d  62      25.354  30.234  36.915  0.00  0.00     0.080 H 
ATOM     80  H   SGN d  62      25.622  30.198  35.211  0.00  0.00     0.080 H 
ATOM     81  H   SGN d  62      19.166  35.734  35.103  0.00  0.00     0.231 HD
ATOM     82  H   SGN d  62      22.360  34.917  32.926  0.00  0.00     0.231 HD
ATOM     83  H   SGN d  62      22.891  33.456  34.225  0.00  0.00     0.076 H 
ATOM     84  H   SGN d  62      23.999  31.339  33.704  0.00  0.00     0.091 H 
ATOM     85  H   SGN d  62      20.266  33.071  34.118  0.00  0.00     0.140 HD
ATOM     86  H   SGN d  62      21.193  30.995  34.803  0.00  0.00     0.089 H 
ATOM     87  O4  IDS d  63      21.500  32.566  37.067  0.00  0.00    -0.348 OA
ATOM     88  O62 IDS d  63      20.493  30.635  40.042  0.00  0.00    -0.646 OA
ATOM     89  C2  IDS d  63      18.951  34.328  37.288  0.00  0.00     0.134 C 
ATOM     90  O2S IDS d  63      16.521  33.829  35.420  0.00  0.00    -0.572 OA
ATOM     91  O61 IDS d  63      22.385  31.677  40.181  0.00  0.00    -0.646 OA
ATOM     92  C3  IDS d  63      20.391  34.782  37.559  0.00  0.00     0.094 C 
ATOM     93  C1  IDS d  63      18.333  33.719  38.577  0.00  0.00     0.161 C 
ATOM     94  O5  IDS d  63      19.113  32.549  38.931  0.00  0.00    -0.340 OA
ATOM     95  C4  IDS d  63      21.255  33.547  38.066  0.00  0.00     0.103 C 
ATOM     96  C6  IDS d  63      21.198  31.629  39.860  0.00  0.00     0.206 C 
ATOM     97  S   IDS d  63      17.407  32.719  35.741  0.00  0.00     0.252 S 
ATOM     98  O3  IDS d  63      20.281  35.754  38.576  0.00  0.00    -0.390 OA
ATOM     99  C5  IDS d  63      20.531  32.862  39.257  0.00  0.00     0.152 C 
ATOM    100  O2  IDS d  63      18.957  33.434  36.207  0.00  0.00    -0.244 OA
ATOM    101  O1S IDS d  63      17.694  31.884  34.588  0.00  0.00    -0.572 OA
ATOM    102  O3S IDS d  63      16.763  31.958  36.773  0.00  0.00    -0.572 OA
ATOM    103  H   IDS d  63      18.332  35.160  37.021  0.00  0.00     0.097 H 
ATOM    104  H   IDS d  63      20.871  35.170  36.685  0.00  0.00     0.091 H 
ATOM    105  H   IDS d  63      17.319  33.393  38.474  0.00  0.00     0.133 H 
ATOM    106  H   IDS d  63      22.203  33.950  38.356  0.00  0.00     0.092 H 
ATOM    107  H   IDS d  63      19.842  35.365  39.349  0.00  0.00     0.210 HD
ATOM    108  H   IDS d  63      20.595  33.609  40.020  0.00  0.00     0.104 H 
ATOM    109  O4  SGN d  64      18.392  34.783  39.578  0.00  0.00    -0.348 OA
ATOM    110  O6  SGN d  64      14.588  35.552  41.046  0.00  0.00    -0.254 OA
ATOM    111  C3  SGN d  64      19.120  34.639  41.908  0.00  0.00     0.083 C 
ATOM    112  S2  SGN d  64      14.219  33.880  41.542  0.00  0.00     0.251 S 
ATOM    113  C5  SGN d  64      16.990  35.769  41.267  0.00  0.00     0.091 C 
ATOM    114  O1S SGN d  64      19.794  32.308  45.727  0.00  0.00    -0.296 OA
ATOM    115  C2  SGN d  64      18.600  34.456  43.301  0.00  0.00     0.081 C 
ATOM    116  O4S SGN d  64      14.152  33.072  40.352  0.00  0.00    -0.572 OA
ATOM    117  O3S SGN d  64      20.767  32.162  43.568  0.00  0.00    -0.296 OA
ATOM    118  S1  SGN d  64      20.542  33.030  44.709  0.00  0.00     0.156 S 
ATOM    119  O6S SGN d  64      15.236  33.358  42.433  0.00  0.00    -0.572 OA
ATOM    120  O5S SGN d  64      12.952  33.874  42.222  0.00  0.00    -0.572 OA
ATOM    121  O3  SGN d  64      19.995  33.594  41.681  0.00  0.00    -0.391 OA
ATOM    122  C1  SGN d  64      17.648  35.581  43.613  0.00  0.00     0.150 C 
ATOM    123  O2S SGN d  64      21.807  33.481  45.222  0.00  0.00    -0.296 OA
ATOM    124  C4  SGN d  64      17.924  34.595  40.922  0.00  0.00     0.095 C 
ATOM    125  O5  SGN d  64      16.573  35.571  42.650  0.00  0.00    -0.349 OA
ATOM    126  C6  SGN d  64      15.797  35.777  40.335  0.00  0.00     0.067 C 
ATOM    127  N   SGN d  64      19.697  34.513  44.235  0.00  0.00    -0.210 NA
ATOM    128  H   SGN d  64      19.621  35.575  41.776  0.00  0.00     0.089 H 
ATOM    129  H   SGN d  64      17.483  36.712  41.152  0.00  0.00     0.090 H 
ATOM    130  H   SGN d  64      18.947  32.015  45.358  0.00  0.00     0.231 HD
ATOM    131  H   SGN d  64      18.104  33.511  43.378  0.00  0.00     0.076 H 
ATOM    132  H   SGN d  64      19.913  31.856  43.221  0.00  0.00     0.231 HD
ATOM    133  H   SGN d  64      19.530  32.751  41.805  0.00  0.00     0.210 HD
ATOM    134  H   SGN d  64      17.218  35.482  44.587  0.00  0.00     0.131 H 
ATOM    135  H   SGN d  64      22.331  32.716  45.505  0.00  0.00     0.231 HD
ATOM    136  H   SGN d  64      17.424  33.652  41.000  0.00  0.00     0.091 H 
ATOM    137  H   SGN d  64      15.743  36.726  39.846  0.00  0.00     0.080 H 
ATOM    138  H   SGN d  64      15.921  34.990  39.620  0.00  0.00     0.080 H 
ATOM    139  H   SGN d  64      19.333  34.931  45.091  0.00  0.00     0.140 HD
ATOM    140  C1  IDS d  61      23.899  29.269  32.552  0.00  0.00     0.167 C 
ATOM    141  O5  IDS d  61      23.353  30.087  31.485  0.00  0.00    -0.311 OA
ATOM    142  C5  IDS d  61      22.166  29.721  30.865  0.00  0.00     0.147 C 
ATOM    143  C6  IDS d  61      21.573  30.728  29.805  0.00  0.00     0.233 C 
ATOM    144  C2  IDS d  61      23.733  27.803  32.164  0.00  0.00     0.135 C 
ATOM    145  O1S IDS d  61      25.274  29.794  29.989  0.00  0.00    -0.572 OA
ATOM    146  O3S IDS d  61      26.789  28.676  31.494  0.00  0.00    -0.572 OA
ATOM    147  O3  IDS d  61      21.680  27.136  33.022  0.00  0.00    -0.389 OA
ATOM    148  C4  IDS d  61      21.590  28.503  31.062  0.00  0.00    -0.034 C 
ATOM    149  C3  IDS d  61      22.293  27.425  31.816  0.00  0.00     0.086 C 
ATOM    150  O61 IDS d  61      20.551  30.434  29.185  0.00  0.00    -0.642 OA
ATOM    151  O62 IDS d  61      22.162  31.812  29.572  0.00  0.00    -0.642 OA
ATOM    152  O2S IDS d  61      26.419  27.964  29.239  0.00  0.00    -0.572 OA
ATOM    153  S   IDS d  61      25.834  28.535  30.404  0.00  0.00     0.252 S 
ATOM    154  O2  IDS d  61      24.505  27.500  30.989  0.00  0.00    -0.244 OA
ATOM    155  H   IDS d  61      24.929  29.513  32.709  0.00  0.00     0.134 H 
ATOM    156  H   IDS d  61      24.056  27.255  33.025  0.00  0.00     0.097 H 
ATOM    157  H   IDS d  61      22.172  26.432  33.474  0.00  0.00     0.210 HD
ATOM    158  H   IDS d  61      20.647  28.321  30.682  0.00  0.00     0.085 H 
ATOM    159  H   IDS d  61      22.263  26.583  31.158  0.00  0.00     0.093 H 
ENDROOT
TORSDOF 50
ENDMDL
MODEL 79
REMARK VINA RESULT:      -4.9      4.511     16.064
REMARK  0 active torsions:
REMARK  status: ('A' for Active; 'I' for Inactive)
REMARK       I    between atoms: O3S_3  and  S1_55 
REMARK       I    between atoms: O3_4  and  C3_87 
REMARK       I    between atoms: O4_5  and  C1_15 
REMARK       I    between atoms: O4_5  and  C4_57 
REMARK       I    between atoms: O4_7  and  C1_36 
REMARK       I    between atoms: O4_7  and  C4_89 
REMARK       I    between atoms: C4_8  and  O4_18 
REMARK       I    between atoms: C2_9  and  O2_84 
REMARK       I    between atoms: C6_10  and  C5_32 
REMARK       I    between atoms: C6_10  and  O6_102 
REMARK       I    between atoms: O6_11  and  C6_93 
REMARK       I    between atoms: O6_11  and  S2_25 
REMARK       I    between atoms: C1_13  and  O4_74 
REMARK       I    between atoms: C3_14  and  O3_71 
REMARK       I    between atoms: O4_18  and  C1_54 
REMARK       I    between atoms: S2_19  and  O6_39 
REMARK       I    between atoms: O2S_21  and  S1_45 
REMARK       I    between atoms: C5_22  and  C6_23 
REMARK       I    between atoms: C5_24  and  C6_77 
REMARK       I    between atoms: O1_27  and  C1_48 
REMARK       I    between atoms: C5_28  and  C6_30 
REMARK       I    between atoms: C5_29  and  C6_93 
REMARK       I    between atoms: O1S_31  and  S1_44 
REMARK       I    between atoms: C3_33  and  O3_69 
REMARK       I    between atoms: C2_37  and  N_99 
REMARK       I    between atoms: S2_38  and  O6_102 
REMARK       I    between atoms: O6_39  and  C6_77 
REMARK       I    between atoms: C2_40  and  O2_103 
REMARK       I    between atoms: O3S_42  and  S1_44 
REMARK       I    between atoms: S1_44  and  N_99 
REMARK       I    between atoms: S1_44  and  O2S_81 
REMARK       I    between atoms: S1_45  and  N_94 
REMARK       I    between atoms: S1_45  and  O1S_46 
REMARK       I    between atoms: S1_45  and  O3S_58 
REMARK       I    between atoms: O3_52  and  C3_105 
REMARK       I    between atoms: S1_55  and  N_100 
REMARK       I    between atoms: S1_55  and  O1S_79 
REMARK       I    between atoms: S1_55  and  O2S_83 
REMARK       I    between atoms: O3_56  and  C3_64 
REMARK       I    between atoms: C4_60  and  O4_61 
REMARK       I    between atoms: O4_61  and  C1_73 
REMARK       I    between atoms: C6_63  and  C5_80 
REMARK       I    between atoms: C3_65  and  O3_82 
REMARK       I    between atoms: S_67  and  O2_84 
REMARK       I    between atoms: C2_68  and  O2_98 
REMARK       I    between atoms: O4_74  and  C4_97 
REMARK       I    between atoms: C2_85  and  N_94 
REMARK       I    between atoms: C2_95  and  N_100 
REMARK       I    between atoms: O2_98  and  S_104 
REMARK       I    between atoms: S_101  and  O2_103 
ROOT
ATOM      1  O6S SGN d  66      16.076  28.540  36.296  0.00  0.00    -0.572 OA
ATOM      2  C4  SGN d  66      18.604  32.569  35.776  0.00  0.00     0.095 C 
ATOM      3  C6  SGN d  66      19.454  30.271  35.169  0.00  0.00     0.067 C 
ATOM      4  O4  SGN d  66      19.134  32.398  37.173  0.00  0.00    -0.348 OA
ATOM      5  O5S SGN d  66      18.251  27.999  37.094  0.00  0.00    -0.572 OA
ATOM      6  O2S SGN d  66      17.152  35.442  31.073  0.00  0.00    -0.296 OA
ATOM      7  O5  SGN d  66      18.948  31.957  33.422  0.00  0.00    -0.350 OA
ATOM      8  O1  SGN d  66      20.232  33.958  33.045  0.00  0.00    -0.369 OA
ATOM      9  C5  SGN d  66      19.458  31.762  34.785  0.00  0.00     0.091 C 
ATOM     10  S2  SGN d  66      17.385  29.074  36.618  0.00  0.00     0.251 S 
ATOM     11  S1  SGN d  66      18.146  36.122  31.880  0.00  0.00     0.156 S 
ATOM     12  O1S SGN d  66      17.945  37.564  31.870  0.00  0.00    -0.296 OA
ATOM     13  C1  SGN d  66      18.925  33.354  32.976  0.00  0.00     0.147 C 
ATOM     14  O3S SGN d  66      19.489  35.866  31.383  0.00  0.00    -0.296 OA
ATOM     15  C3  SGN d  66      18.527  34.049  35.364  0.00  0.00     0.083 C 
ATOM     16  O3  SGN d  66      17.598  34.726  36.208  0.00  0.00    -0.391 OA
ATOM     17  C2  SGN d  66      17.999  34.137  33.930  0.00  0.00     0.081 C 
ATOM     18  O4S SGN d  66      17.240  30.115  37.626  0.00  0.00    -0.572 OA
ATOM     19  N   SGN d  66      17.927  35.557  33.557  0.00  0.00    -0.210 NA
ATOM     20  O6  SGN d  66      18.110  29.737  35.133  0.00  0.00    -0.254 OA
ATOM     21  H   SGN d  66      17.603  32.193  35.757  0.00  0.00     0.091 H 
ATOM     22  H   SGN d  66      19.848  30.162  36.158  0.00  0.00     0.080 H 
ATOM     23  H   SGN d  66      20.057  29.733  34.467  0.00  0.00     0.080 H 
ATOM     24  H   SGN d  66      16.268  35.628  31.425  0.00  0.00     0.231 HD
ATOM     25  H   SGN d  66      20.838  33.485  32.453  0.00  0.00     0.212 HD
ATOM     26  H   SGN d  66      20.470  32.109  34.824  0.00  0.00     0.090 H 
ATOM     27  H   SGN d  66      17.055  37.768  32.197  0.00  0.00     0.231 HD
ATOM     28  H   SGN d  66      18.588  33.382  31.962  0.00  0.00     0.131 H 
ATOM     29  H   SGN d  66      19.655  34.911  31.377  0.00  0.00     0.231 HD
ATOM     30  H   SGN d  66      19.499  34.490  35.443  0.00  0.00     0.089 H 
ATOM     31  H   SGN d  66      16.724  34.313  36.123  0.00  0.00     0.210 HD
ATOM     32  H   SGN d  66      17.024  33.701  33.858  0.00  0.00     0.076 H 
ATOM     33  H   SGN d  66      17.003  35.878  33.845  0.00  0.00     0.140 HD
ATOM     34  O61 IDS d  65      20.549  37.012  38.099  0.00  0.00    -0.646 OA
ATOM     35  O3  IDS d  65      22.480  32.374  39.760  0.00  0.00    -0.390 OA
ATOM     36  C5  IDS d  65      19.994  34.692  38.232  0.00  0.00     0.152 C 
ATOM     37  C6  IDS d  65      19.616  36.195  38.296  0.00  0.00     0.206 C 
ATOM     38  O5  IDS d  65      18.805  33.914  38.574  0.00  0.00    -0.340 OA
ATOM     39  C1  IDS d  65      18.959  32.471  38.580  0.00  0.00     0.161 C 
ATOM     40  O1S IDS d  65      22.772  29.441  39.805  0.00  0.00    -0.572 OA
ATOM     41  C4  IDS d  65      21.226  34.297  39.121  0.00  0.00     0.103 C 
ATOM     42  O4  IDS d  65      21.530  35.535  39.769  0.00  0.00    -0.348 OA
ATOM     43  C2  IDS d  65      20.432  31.975  38.689  0.00  0.00     0.134 C 
ATOM     44  O62 IDS d  65      18.411  36.524  38.516  0.00  0.00    -0.646 OA
ATOM     45  C3  IDS d  65      21.174  32.846  39.651  0.00  0.00     0.094 C 
ATOM     46  O2S IDS d  65      22.520  30.417  37.644  0.00  0.00    -0.572 OA
ATOM     47  O3S IDS d  65      21.388  28.391  38.147  0.00  0.00    -0.572 OA
ATOM     48  O2  IDS d  65      20.474  30.661  39.224  0.00  0.00    -0.244 OA
ATOM     49  S   IDS d  65      21.854  29.665  38.689  0.00  0.00     0.252 S 
ATOM     50  H   IDS d  65      22.974  32.931  40.382  0.00  0.00     0.210 HD
ATOM     51  H   IDS d  65      20.316  34.472  37.236  0.00  0.00     0.104 H 
ATOM     52  H   IDS d  65      18.260  32.017  39.252  0.00  0.00     0.133 H 
ATOM     53  H   IDS d  65      22.190  34.013  38.754  0.00  0.00     0.092 H 
ATOM     54  H   IDS d  65      20.863  32.001  37.710  0.00  0.00     0.097 H 
ATOM     55  H   IDS d  65      20.680  32.828  40.600  0.00  0.00     0.091 H 
ATOM     56  O3S SGN d  62      18.051  40.358  46.729  0.00  0.00    -0.296 OA
ATOM     57  C1  SGN d  62      21.109  39.485  48.130  0.00  0.00     0.150 C 
ATOM     58  S2  SGN d  62      25.612  38.105  51.761  0.00  0.00     0.251 S 
ATOM     59  C5  SGN d  62      22.674  39.686  50.057  0.00  0.00     0.091 C 
ATOM     60  O5  SGN d  62      21.682  38.896  49.341  0.00  0.00    -0.349 OA
ATOM     61  O4S SGN d  62      25.348  37.335  52.931  0.00  0.00    -0.572 OA
ATOM     62  O6  SGN d  62      24.414  39.366  51.590  0.00  0.00    -0.254 OA
ATOM     63  O3  SGN d  62      21.181  43.008  49.363  0.00  0.00    -0.391 OA
ATOM     64  S1  SGN d  62      18.642  41.673  46.812  0.00  0.00     0.156 S 
ATOM     65  O6S SGN d  62      25.639  37.301  50.542  0.00  0.00    -0.572 OA
ATOM     66  O4  SGN d  62      23.070  41.776  51.166  0.00  0.00    -0.348 OA
ATOM     67  C6  SGN d  62      23.115  38.902  51.270  0.00  0.00     0.067 C 
ATOM     68  O5S SGN d  62      26.874  38.783  51.883  0.00  0.00    -0.572 OA
ATOM     69  O1S SGN d  62      18.541  42.391  45.559  0.00  0.00    -0.296 OA
ATOM     70  O2S SGN d  62      18.012  42.372  47.895  0.00  0.00    -0.296 OA
ATOM     71  C2  SGN d  62      20.634  40.896  48.451  0.00  0.00     0.081 C 
ATOM     72  C4  SGN d  62      22.072  41.043  50.459  0.00  0.00     0.095 C 
ATOM     73  N   SGN d  62      20.334  41.564  47.225  0.00  0.00    -0.210 NA
ATOM     74  C3  SGN d  62      21.719  41.734  49.133  0.00  0.00     0.083 C 
ATOM     75  H   SGN d  62      18.462  39.864  46.002  0.00  0.00     0.231 HD
ATOM     76  H   SGN d  62      20.312  38.838  47.829  0.00  0.00     0.131 H 
ATOM     77  H   SGN d  62      23.522  39.880  49.434  0.00  0.00     0.090 H 
ATOM     78  H   SGN d  62      20.966  43.427  48.515  0.00  0.00     0.210 HD
ATOM     79  H   SGN d  62      23.139  37.855  51.047  0.00  0.00     0.080 H 
ATOM     80  H   SGN d  62      22.439  39.038  52.089  0.00  0.00     0.080 H 
ATOM     81  H   SGN d  62      18.979  41.882  44.858  0.00  0.00     0.231 HD
ATOM     82  H   SGN d  62      18.104  41.855  48.711  0.00  0.00     0.231 HD
ATOM     83  H   SGN d  62      19.790  40.803  49.102  0.00  0.00     0.076 H 
ATOM     84  H   SGN d  62      21.209  40.961  51.088  0.00  0.00     0.091 H 
ATOM     85  H   SGN d  62      20.703  42.513  47.288  0.00  0.00     0.140 HD
ATOM     86  H   SGN d  62      22.603  41.825  48.536  0.00  0.00     0.089 H 
ATOM     87  O4  IDS d  63      22.024  39.570  47.030  0.00  0.00    -0.348 OA
ATOM     88  O62 IDS d  63      25.147  38.205  45.623  0.00  0.00    -0.646 OA
ATOM     89  C2  IDS d  63      21.139  40.567  44.224  0.00  0.00     0.134 C 
ATOM     90  O2S IDS d  63      21.414  43.564  43.456  0.00  0.00    -0.572 OA
ATOM     91  O61 IDS d  63      23.834  36.778  46.583  0.00  0.00    -0.646 OA
ATOM     92  C3  IDS d  63      20.506  39.416  45.017  0.00  0.00     0.094 C 
ATOM     93  C1  IDS d  63      22.332  40.040  43.380  0.00  0.00     0.161 C 
ATOM     94  O5  IDS d  63      23.330  39.525  44.298  0.00  0.00    -0.340 OA
ATOM     95  C4  IDS d  63      21.602  38.745  45.952  0.00  0.00     0.103 C 
ATOM     96  C6  IDS d  63      24.027  37.740  45.842  0.00  0.00     0.206 C 
ATOM     97  S   IDS d  63      22.322  43.000  44.447  0.00  0.00     0.252 S 
ATOM     98  O3  IDS d  63      20.068  38.500  44.039  0.00  0.00    -0.390 OA
ATOM     99  C5  IDS d  63      22.849  38.372  45.105  0.00  0.00     0.152 C 
ATOM    100  O2  IDS d  63      21.508  41.582  45.121  0.00  0.00    -0.244 OA
ATOM    101  O1S IDS d  63      22.543  43.893  45.569  0.00  0.00    -0.572 OA
ATOM    102  O3S IDS d  63      23.554  42.719  43.769  0.00  0.00    -0.572 OA
ATOM    103  H   IDS d  63      20.439  40.984  43.530  0.00  0.00     0.097 H 
ATOM    104  H   IDS d  63      19.705  39.742  45.647  0.00  0.00     0.091 H 
ATOM    105  H   IDS d  63      22.818  40.782  42.783  0.00  0.00     0.133 H 
ATOM    106  H   IDS d  63      21.137  37.880  46.378  0.00  0.00     0.092 H 
ATOM    107  H   IDS d  63      20.820  38.228  43.490  0.00  0.00     0.210 HD
ATOM    108  H   IDS d  63      22.470  37.593  44.477  0.00  0.00     0.104 H 
ATOM    109  O4  SGN d  64      21.766  39.018  42.502  0.00  0.00    -0.348 OA
ATOM    110  O6  SGN d  64      22.547  39.971  38.540  0.00  0.00    -0.254 OA
ATOM    111  C3  SGN d  64      22.641  36.789  42.002  0.00  0.00     0.083 C 
ATOM    112  S2  SGN d  64      24.315  40.120  38.711  0.00  0.00     0.251 S 
ATOM    113  C5  SGN d  64      21.881  38.335  40.197  0.00  0.00     0.091 C 
ATOM    114  O1S SGN d  64      26.059  33.846  41.652  0.00  0.00    -0.296 OA
ATOM    115  C2  SGN d  64      23.473  36.041  41.006  0.00  0.00     0.081 C 
ATOM    116  O4S SGN d  64      24.581  41.246  39.568  0.00  0.00    -0.572 OA
ATOM    117  O3S SGN d  64      25.113  34.990  43.503  0.00  0.00    -0.296 OA
ATOM    118  S1  SGN d  64      24.842  34.062  42.419  0.00  0.00     0.156 S 
ATOM    119  O6S SGN d  64      24.893  38.921  39.283  0.00  0.00    -0.572 OA
ATOM    120  O5S SGN d  64      24.884  40.339  37.408  0.00  0.00    -0.572 OA
ATOM    121  O3  SGN d  64      23.277  36.650  43.220  0.00  0.00    -0.391 OA
ATOM    122  C1  SGN d  64      22.817  36.144  39.654  0.00  0.00     0.150 C 
ATOM    123  O2S SGN d  64      24.348  32.827  42.962  0.00  0.00    -0.296 OA
ATOM    124  C4  SGN d  64      22.571  38.277  41.572  0.00  0.00     0.095 C 
ATOM    125  O5  SGN d  64      22.698  37.537  39.292  0.00  0.00    -0.349 OA
ATOM    126  C6  SGN d  64      21.785  39.769  39.722  0.00  0.00     0.067 C 
ATOM    127  N   SGN d  64      23.533  34.650  41.380  0.00  0.00    -0.210 NA
ATOM    128  H   SGN d  64      21.639  36.417  42.064  0.00  0.00     0.089 H 
ATOM    129  H   SGN d  64      20.882  37.953  40.241  0.00  0.00     0.090 H 
ATOM    130  H   SGN d  64      26.372  34.692  41.297  0.00  0.00     0.231 HD
ATOM    131  H   SGN d  64      24.459  36.455  40.979  0.00  0.00     0.076 H 
ATOM    132  H   SGN d  64      25.447  35.824  43.138  0.00  0.00     0.231 HD
ATOM    133  H   SGN d  64      24.184  36.989  43.152  0.00  0.00     0.210 HD
ATOM    134  H   SGN d  64      23.389  35.654  38.894  0.00  0.00     0.131 H 
ATOM    135  H   SGN d  64      25.017  32.441  43.548  0.00  0.00     0.231 HD
ATOM    136  H   SGN d  64      23.557  38.693  41.540  0.00  0.00     0.091 H 
ATOM    137  H   SGN d  64      20.761  40.003  39.521  0.00  0.00     0.080 H 
ATOM    138  H   SGN d  64      22.175  40.406  40.488  0.00  0.00     0.080 H 
ATOM    139  H   SGN d  64      23.584  34.115  40.513  0.00  0.00     0.140 HD
ATOM    140  C1  IDS d  61      22.621  42.318  52.425  0.00  0.00     0.167 C 
ATOM    141  O5  IDS d  61      21.600  43.320  52.178  0.00  0.00    -0.311 OA
ATOM    142  C5  IDS d  61      21.959  44.578  51.711  0.00  0.00     0.147 C 
ATOM    143  C6  IDS d  61      20.785  45.566  51.346  0.00  0.00     0.233 C 
ATOM    144  C2  IDS d  61      23.810  43.000  53.093  0.00  0.00     0.135 C 
ATOM    145  O1S IDS d  61      20.825  43.412  54.502  0.00  0.00    -0.572 OA
ATOM    146  O3S IDS d  61      22.057  41.551  55.411  0.00  0.00    -0.572 OA
ATOM    147  O3  IDS d  61      25.220  43.670  51.373  0.00  0.00    -0.389 OA
ATOM    148  C4  IDS d  61      23.255  44.998  51.678  0.00  0.00    -0.034 C 
ATOM    149  C3  IDS d  61      24.345  44.197  52.306  0.00  0.00     0.086 C 
ATOM    150  O61 IDS d  61      21.041  46.713  50.978  0.00  0.00    -0.642 OA
ATOM    151  O62 IDS d  61      19.592  45.192  51.463  0.00  0.00    -0.642 OA
ATOM    152  O2S IDS d  61      21.889  43.672  56.507  0.00  0.00    -0.572 OA
ATOM    153  S   IDS d  61      21.977  42.996  55.258  0.00  0.00     0.252 S 
ATOM    154  O2  IDS d  61      23.437  43.522  54.380  0.00  0.00    -0.244 OA
ATOM    155  H   IDS d  61      22.225  41.539  53.043  0.00  0.00     0.134 H 
ATOM    156  H   IDS d  61      24.561  42.241  53.155  0.00  0.00     0.097 H 
ATOM    157  H   IDS d  61      25.909  43.160  51.827  0.00  0.00     0.210 HD
ATOM    158  H   IDS d  61      23.486  45.888  51.210  0.00  0.00     0.085 H 
ATOM    159  H   IDS d  61      24.842  44.892  52.950  0.00  0.00     0.093 H 
ENDROOT
TORSDOF 50
ENDMDL
MODEL 80
REMARK VINA RESULT:      -4.9      3.797      6.365
REMARK  0 active torsions:
REMARK  status: ('A' for Active; 'I' for Inactive)
REMARK       I    between atoms: O3S_3  and  S1_55 
REMARK       I    between atoms: O3_4  and  C3_87 
REMARK       I    between atoms: O4_5  and  C1_15 
REMARK       I    between atoms: O4_5  and  C4_57 
REMARK       I    between atoms: O4_7  and  C1_36 
REMARK       I    between atoms: O4_7  and  C4_89 
REMARK       I    between atoms: C4_8  and  O4_18 
REMARK       I    between atoms: C2_9  and  O2_84 
REMARK       I    between atoms: C6_10  and  C5_32 
REMARK       I    between atoms: C6_10  and  O6_102 
REMARK       I    between atoms: O6_11  and  C6_93 
REMARK       I    between atoms: O6_11  and  S2_25 
REMARK       I    between atoms: C1_13  and  O4_74 
REMARK       I    between atoms: C3_14  and  O3_71 
REMARK       I    between atoms: O4_18  and  C1_54 
REMARK       I    between atoms: S2_19  and  O6_39 
REMARK       I    between atoms: O2S_21  and  S1_45 
REMARK       I    between atoms: C5_22  and  C6_23 
REMARK       I    between atoms: C5_24  and  C6_77 
REMARK       I    between atoms: O1_27  and  C1_48 
REMARK       I    between atoms: C5_28  and  C6_30 
REMARK       I    between atoms: C5_29  and  C6_93 
REMARK       I    between atoms: O1S_31  and  S1_44 
REMARK       I    between atoms: C3_33  and  O3_69 
REMARK       I    between atoms: C2_37  and  N_99 
REMARK       I    between atoms: S2_38  and  O6_102 
REMARK       I    between atoms: O6_39  and  C6_77 
REMARK       I    between atoms: C2_40  and  O2_103 
REMARK       I    between atoms: O3S_42  and  S1_44 
REMARK       I    between atoms: S1_44  and  N_99 
REMARK       I    between atoms: S1_44  and  O2S_81 
REMARK       I    between atoms: S1_45  and  N_94 
REMARK       I    between atoms: S1_45  and  O1S_46 
REMARK       I    between atoms: S1_45  and  O3S_58 
REMARK       I    between atoms: O3_52  and  C3_105 
REMARK       I    between atoms: S1_55  and  N_100 
REMARK       I    between atoms: S1_55  and  O1S_79 
REMARK       I    between atoms: S1_55  and  O2S_83 
REMARK       I    between atoms: O3_56  and  C3_64 
REMARK       I    between atoms: C4_60  and  O4_61 
REMARK       I    between atoms: O4_61  and  C1_73 
REMARK       I    between atoms: C6_63  and  C5_80 
REMARK       I    between atoms: C3_65  and  O3_82 
REMARK       I    between atoms: S_67  and  O2_84 
REMARK       I    between atoms: C2_68  and  O2_98 
REMARK       I    between atoms: O4_74  and  C4_97 
REMARK       I    between atoms: C2_85  and  N_94 
REMARK       I    between atoms: C2_95  and  N_100 
REMARK       I    between atoms: O2_98  and  S_104 
REMARK       I    between atoms: S_101  and  O2_103 
ROOT
ATOM      1  O6S SGN d  66      24.255  30.814  52.146  0.00  0.00    -0.572 OA
ATOM      2  C4  SGN d  66      20.102  32.972  51.152  0.00  0.00     0.095 C 
ATOM      3  C6  SGN d  66      20.320  30.543  51.805  0.00  0.00     0.067 C 
ATOM      4  O4  SGN d  66      20.273  32.600  49.705  0.00  0.00    -0.348 OA
ATOM      5  O5S SGN d  66      23.080  29.266  50.775  0.00  0.00    -0.572 OA
ATOM      6  O2S SGN d  66      18.146  36.030  55.546  0.00  0.00    -0.296 OA
ATOM      7  O5  SGN d  66      19.266  32.195  53.328  0.00  0.00    -0.350 OA
ATOM      8  O1  SGN d  66      17.138  33.247  52.935  0.00  0.00    -0.369 OA
ATOM      9  C5  SGN d  66      19.453  31.811  51.922  0.00  0.00     0.091 C 
ATOM     10  S2  SGN d  66      23.073  30.616  51.331  0.00  0.00     0.251 S 
ATOM     11  S1  SGN d  66      17.321  36.134  54.358  0.00  0.00     0.156 S 
ATOM     12  O1S SGN d  66      16.778  37.475  54.203  0.00  0.00    -0.296 OA
ATOM     13  C1  SGN d  66      18.445  33.393  53.526  0.00  0.00     0.147 C 
ATOM     14  O3S SGN d  66      16.197  35.213  54.420  0.00  0.00    -0.296 OA
ATOM     15  C3  SGN d  66      19.295  34.270  51.324  0.00  0.00     0.083 C 
ATOM     16  O3  SGN d  66      20.013  35.354  50.736  0.00  0.00    -0.391 OA
ATOM     17  C2  SGN d  66      19.148  34.569  52.818  0.00  0.00     0.081 C 
ATOM     18  O4S SGN d  66      23.051  31.617  50.273  0.00  0.00    -0.572 OA
ATOM     19  N   SGN d  66      18.381  35.814  52.961  0.00  0.00    -0.210 NA
ATOM     20  O6  SGN d  66      21.634  30.768  52.367  0.00  0.00    -0.254 OA
ATOM     21  H   SGN d  66      21.073  33.158  51.560  0.00  0.00     0.091 H 
ATOM     22  H   SGN d  66      20.420  30.281  50.773  0.00  0.00     0.080 H 
ATOM     23  H   SGN d  66      19.846  29.751  52.346  0.00  0.00     0.080 H 
ATOM     24  H   SGN d  66      18.888  36.652  55.480  0.00  0.00     0.231 HD
ATOM     25  H   SGN d  66      16.670  32.513  53.362  0.00  0.00     0.212 HD
ATOM     26  H   SGN d  66      18.495  31.594  51.497  0.00  0.00     0.090 H 
ATOM     27  H   SGN d  66      17.505  38.116  54.159  0.00  0.00     0.231 HD
ATOM     28  H   SGN d  66      18.329  33.555  54.576  0.00  0.00     0.131 H 
ATOM     29  H   SGN d  66      16.526  34.307  54.524  0.00  0.00     0.231 HD
ATOM     30  H   SGN d  66      18.338  34.156  50.859  0.00  0.00     0.089 H 
ATOM     31  H   SGN d  66      20.876  35.441  51.169  0.00  0.00     0.210 HD
ATOM     32  H   SGN d  66      20.109  34.689  53.275  0.00  0.00     0.076 H 
ATOM     33  H   SGN d  66      19.065  36.571  52.946  0.00  0.00     0.140 HD
ATOM     34  O61 IDS d  65      17.248  35.875  47.638  0.00  0.00    -0.646 OA
ATOM     35  O3  IDS d  65      18.569  30.957  46.200  0.00  0.00    -0.390 OA
ATOM     36  C5  IDS d  65      18.864  34.168  48.069  0.00  0.00     0.152 C 
ATOM     37  C6  IDS d  65      18.458  35.655  47.892  0.00  0.00     0.206 C 
ATOM     38  O5  IDS d  65      20.310  34.116  48.266  0.00  0.00    -0.340 OA
ATOM     39  C1  IDS d  65      20.891  32.798  48.441  0.00  0.00     0.161 C 
ATOM     40  O1S IDS d  65      19.776  28.288  46.532  0.00  0.00    -0.572 OA
ATOM     41  C4  IDS d  65      18.400  33.229  46.900  0.00  0.00     0.103 C 
ATOM     42  O4  IDS d  65      17.794  34.159  45.998  0.00  0.00    -0.348 OA
ATOM     43  C2  IDS d  65      20.000  31.624  47.935  0.00  0.00     0.134 C 
ATOM     44  O62 IDS d  65      19.336  36.559  48.032  0.00  0.00    -0.646 OA
ATOM     45  C3  IDS d  65      19.338  32.025  46.656  0.00  0.00     0.094 C 
ATOM     46  O2S IDS d  65      18.715  29.186  48.470  0.00  0.00    -0.572 OA
ATOM     47  O3S IDS d  65      20.781  28.038  48.698  0.00  0.00    -0.572 OA
ATOM     48  O2  IDS d  65      20.799  30.490  47.634  0.00  0.00    -0.244 OA
ATOM     49  S   IDS d  65      19.990  28.912  47.836  0.00  0.00     0.252 S 
ATOM     50  H   IDS d  65      18.133  31.204  45.369  0.00  0.00     0.210 HD
ATOM     51  H   IDS d  65      18.351  33.783  48.925  0.00  0.00     0.104 H 
ATOM     52  H   IDS d  65      21.911  32.786  48.120  0.00  0.00     0.133 H 
ATOM     53  H   IDS d  65      17.639  32.481  46.969  0.00  0.00     0.092 H 
ATOM     54  H   IDS d  65      19.288  31.394  48.700  0.00  0.00     0.097 H 
ATOM     55  H   IDS d  65      20.086  32.293  45.939  0.00  0.00     0.091 H 
ATOM     56  O3S SGN d  62      20.759  40.304  39.894  0.00  0.00    -0.296 OA
ATOM     57  C1  SGN d  62      19.263  38.040  37.723  0.00  0.00     0.150 C 
ATOM     58  S2  SGN d  62      17.679  34.676  33.083  0.00  0.00     0.251 S 
ATOM     59  C5  SGN d  62      18.625  37.477  35.383  0.00  0.00     0.091 C 
ATOM     60  O5  SGN d  62      19.535  37.281  36.502  0.00  0.00    -0.349 OA
ATOM     61  O4S SGN d  62      18.688  34.186  32.205  0.00  0.00    -0.572 OA
ATOM     62  O6  SGN d  62      17.957  36.365  33.434  0.00  0.00    -0.254 OA
ATOM     63  O3  SGN d  62      17.946  41.072  35.987  0.00  0.00    -0.391 OA
ATOM     64  S1  SGN d  62      19.682  41.137  39.411  0.00  0.00     0.156 S 
ATOM     65  O6S SGN d  62      17.603  33.931  34.337  0.00  0.00    -0.572 OA
ATOM     66  O4  SGN d  62      17.701  39.108  33.885  0.00  0.00    -0.348 OA
ATOM     67  C6  SGN d  62      19.097  36.618  34.234  0.00  0.00     0.067 C 
ATOM     68  O5S SGN d  62      16.391  34.619  32.445  0.00  0.00    -0.572 OA
ATOM     69  O1S SGN d  62      18.957  41.764  40.496  0.00  0.00    -0.296 OA
ATOM     70  O2S SGN d  62      20.239  42.094  38.499  0.00  0.00    -0.296 OA
ATOM     71  C2  SGN d  62      19.073  39.505  37.355  0.00  0.00     0.081 C 
ATOM     72  C4  SGN d  62      18.592  38.964  34.989  0.00  0.00     0.095 C 
ATOM     73  N   SGN d  62      18.540  40.193  38.487  0.00  0.00    -0.210 NA
ATOM     74  C3  SGN d  62      18.053  39.695  36.229  0.00  0.00     0.083 C 
ATOM     75  H   SGN d  62      20.406  39.647  40.515  0.00  0.00     0.231 HD
ATOM     76  H   SGN d  62      20.101  37.881  38.369  0.00  0.00     0.131 H 
ATOM     77  H   SGN d  62      17.629  37.192  35.652  0.00  0.00     0.090 H 
ATOM     78  H   SGN d  62      17.605  41.514  36.780  0.00  0.00     0.210 HD
ATOM     79  H   SGN d  62      19.505  35.699  34.601  0.00  0.00     0.080 H 
ATOM     80  H   SGN d  62      19.867  37.106  33.673  0.00  0.00     0.080 H 
ATOM     81  H   SGN d  62      18.600  41.081  41.085  0.00  0.00     0.231 HD
ATOM     82  H   SGN d  62      20.713  41.629  37.792  0.00  0.00     0.231 HD
ATOM     83  H   SGN d  62      20.026  39.877  37.042  0.00  0.00     0.076 H 
ATOM     84  H   SGN d  62      19.547  39.353  34.701  0.00  0.00     0.091 H 
ATOM     85  H   SGN d  62      17.810  40.823  38.155  0.00  0.00     0.140 HD
ATOM     86  H   SGN d  62      17.089  39.304  36.478  0.00  0.00     0.089 H 
ATOM     87  O4  IDS d  63      18.093  37.611  38.431  0.00  0.00    -0.348 OA
ATOM     88  O62 IDS d  63      15.760  34.800  38.931  0.00  0.00    -0.646 OA
ATOM     89  C2  IDS d  63      17.289  38.829  41.174  0.00  0.00     0.134 C 
ATOM     90  O2S IDS d  63      15.337  41.240  41.318  0.00  0.00    -0.572 OA
ATOM     91  O61 IDS d  63      17.847  34.274  38.699  0.00  0.00    -0.646 OA
ATOM     92  C3  IDS d  63      18.640  38.188  40.829  0.00  0.00     0.094 C 
ATOM     93  C1  IDS d  63      16.290  37.740  41.651  0.00  0.00     0.161 C 
ATOM     94  O5  IDS d  63      16.081  36.818  40.551  0.00  0.00    -0.340 OA
ATOM     95  C4  IDS d  63      18.436  37.082  39.706  0.00  0.00     0.103 C 
ATOM     96  C6  IDS d  63      16.956  34.978  39.171  0.00  0.00     0.206 C 
ATOM     97  S   IDS d  63      15.250  40.324  40.188  0.00  0.00     0.252 S 
ATOM     98  O3  IDS d  63      19.076  37.591  42.031  0.00  0.00    -0.390 OA
ATOM     99  C5  IDS d  63      17.317  36.098  40.143  0.00  0.00     0.152 C 
ATOM    100  O2  IDS d  63      16.831  39.542  40.056  0.00  0.00    -0.244 OA
ATOM    101  O1S IDS d  63      15.051  41.016  38.927  0.00  0.00    -0.572 OA
ATOM    102  O3S IDS d  63      14.160  39.432  40.458  0.00  0.00    -0.572 OA
ATOM    103  H   IDS d  63      17.391  39.521  41.984  0.00  0.00     0.097 H 
ATOM    104  H   IDS d  63      19.348  38.897  40.455  0.00  0.00     0.091 H 
ATOM    105  H   IDS d  63      15.325  38.111  41.928  0.00  0.00     0.133 H 
ATOM    106  H   IDS d  63      19.380  36.589  39.602  0.00  0.00     0.092 H 
ATOM    107  H   IDS d  63      18.410  36.957  42.337  0.00  0.00     0.210 HD
ATOM    108  H   IDS d  63      17.767  35.602  40.977  0.00  0.00     0.104 H 
ATOM    109  O4  SGN d  64      16.914  37.122  42.819  0.00  0.00    -0.348 OA
ATOM    110  O6  SGN d  64      14.386  37.415  46.096  0.00  0.00    -0.254 OA
ATOM    111  C3  SGN d  64      17.118  34.743  43.353  0.00  0.00     0.083 C 
ATOM    112  S2  SGN d  64      12.971  36.646  45.330  0.00  0.00     0.251 S 
ATOM    113  C5  SGN d  64      16.314  36.401  45.035  0.00  0.00     0.091 C 
ATOM    114  O1S SGN d  64      15.702  30.459  43.025  0.00  0.00    -0.296 OA
ATOM    115  C2  SGN d  64      16.456  33.644  44.126  0.00  0.00     0.081 C 
ATOM    116  O4S SGN d  64      12.526  37.507  44.265  0.00  0.00    -0.572 OA
ATOM    117  O3S SGN d  64      16.574  31.985  41.431  0.00  0.00    -0.296 OA
ATOM    118  S1  SGN d  64      16.843  31.290  42.677  0.00  0.00     0.156 S 
ATOM    119  O6S SGN d  64      13.302  35.340  44.800  0.00  0.00    -0.572 OA
ATOM    120  O5S SGN d  64      11.938  36.503  46.320  0.00  0.00    -0.572 OA
ATOM    121  O3  SGN d  64      17.124  34.339  42.032  0.00  0.00    -0.391 OA
ATOM    122  C1  SGN d  64      16.434  34.023  45.583  0.00  0.00     0.150 C 
ATOM    123  O2S SGN d  64      18.033  30.498  42.533  0.00  0.00    -0.296 OA
ATOM    124  C4  SGN d  64      16.295  36.044  43.538  0.00  0.00     0.095 C 
ATOM    125  O5  SGN d  64      15.721  35.269  45.737  0.00  0.00    -0.349 OA
ATOM    126  C6  SGN d  64      15.520  37.668  45.279  0.00  0.00     0.067 C 
ATOM    127  N   SGN d  64      17.219  32.429  43.981  0.00  0.00    -0.210 NA
ATOM    128  H   SGN d  64      18.117  34.936  43.685  0.00  0.00     0.089 H 
ATOM    129  H   SGN d  64      17.309  36.583  45.384  0.00  0.00     0.090 H 
ATOM    130  H   SGN d  64      14.913  31.015  43.116  0.00  0.00     0.231 HD
ATOM    131  H   SGN d  64      15.462  33.496  43.760  0.00  0.00     0.076 H 
ATOM    132  H   SGN d  64      15.770  32.520  41.526  0.00  0.00     0.231 HD
ATOM    133  H   SGN d  64      16.215  34.166  41.742  0.00  0.00     0.210 HD
ATOM    134  H   SGN d  64      15.940  33.286  46.180  0.00  0.00     0.131 H 
ATOM    135  H   SGN d  64      17.902  29.844  41.829  0.00  0.00     0.231 HD
ATOM    136  H   SGN d  64      15.298  35.898  43.176  0.00  0.00     0.091 H 
ATOM    137  H   SGN d  64      16.148  38.384  45.765  0.00  0.00     0.080 H 
ATOM    138  H   SGN d  64      15.181  38.041  44.335  0.00  0.00     0.080 H 
ATOM    139  H   SGN d  64      17.123  31.915  44.857  0.00  0.00     0.140 HD
ATOM    140  C1  IDS d  61      18.254  39.844  32.775  0.00  0.00     0.167 C 
ATOM    141  O5  IDS d  61      18.489  41.217  33.180  0.00  0.00    -0.311 OA
ATOM    142  C5  IDS d  61      17.424  42.101  33.294  0.00  0.00     0.147 C 
ATOM    143  C6  IDS d  61      17.744  43.537  33.863  0.00  0.00     0.233 C 
ATOM    144  C2  IDS d  61      17.222  39.846  31.652  0.00  0.00     0.135 C 
ATOM    145  O1S IDS d  61      19.909  41.767  31.258  0.00  0.00    -0.572 OA
ATOM    146  O3S IDS d  61      20.164  39.568  30.304  0.00  0.00    -0.572 OA
ATOM    147  O3  IDS d  61      15.149  39.647  32.681  0.00  0.00    -0.389 OA
ATOM    148  C4  IDS d  61      16.178  41.800  32.831  0.00  0.00    -0.034 C 
ATOM    149  C3  IDS d  61      15.929  40.577  32.016  0.00  0.00     0.086 C 
ATOM    150  O61 IDS d  61      16.850  44.381  33.937  0.00  0.00    -0.642 OA
ATOM    151  O62 IDS d  61      18.916  43.828  34.207  0.00  0.00    -0.642 OA
ATOM    152  O2S IDS d  61      19.668  41.513  29.000  0.00  0.00    -0.572 OA
ATOM    153  S   IDS d  61      19.471  40.847  30.242  0.00  0.00     0.252 S 
ATOM    154  O2  IDS d  61      17.735  40.526  30.494  0.00  0.00    -0.244 OA
ATOM    155  H   IDS d  61      19.172  39.396  32.454  0.00  0.00     0.134 H 
ATOM    156  H   IDS d  61      17.016  38.812  31.468  0.00  0.00     0.097 H 
ATOM    157  H   IDS d  61      15.014  38.872  32.114  0.00  0.00     0.210 HD
ATOM    158  H   IDS d  61      15.391  42.432  33.049  0.00  0.00     0.085 H 
ATOM    159  H   IDS d  61      15.432  40.941  31.142  0.00  0.00     0.093 H 
ENDROOT
TORSDOF 50
ENDMDL
MODEL 81
REMARK VINA RESULT:      -4.8      3.241      6.686
REMARK  0 active torsions:
REMARK  status: ('A' for Active; 'I' for Inactive)
REMARK       I    between atoms: O3S_3  and  S1_55 
REMARK       I    between atoms: O3_4  and  C3_87 
REMARK       I    between atoms: O4_5  and  C1_15 
REMARK       I    between atoms: O4_5  and  C4_57 
REMARK       I    between atoms: O4_7  and  C1_36 
REMARK       I    between atoms: O4_7  and  C4_89 
REMARK       I    between atoms: C4_8  and  O4_18 
REMARK       I    between atoms: C2_9  and  O2_84 
REMARK       I    between atoms: C6_10  and  C5_32 
REMARK       I    between atoms: C6_10  and  O6_102 
REMARK       I    between atoms: O6_11  and  C6_93 
REMARK       I    between atoms: O6_11  and  S2_25 
REMARK       I    between atoms: C1_13  and  O4_74 
REMARK       I    between atoms: C3_14  and  O3_71 
REMARK       I    between atoms: O4_18  and  C1_54 
REMARK       I    between atoms: S2_19  and  O6_39 
REMARK       I    between atoms: O2S_21  and  S1_45 
REMARK       I    between atoms: C5_22  and  C6_23 
REMARK       I    between atoms: C5_24  and  C6_77 
REMARK       I    between atoms: O1_27  and  C1_48 
REMARK       I    between atoms: C5_28  and  C6_30 
REMARK       I    between atoms: C5_29  and  C6_93 
REMARK       I    between atoms: O1S_31  and  S1_44 
REMARK       I    between atoms: C3_33  and  O3_69 
REMARK       I    between atoms: C2_37  and  N_99 
REMARK       I    between atoms: S2_38  and  O6_102 
REMARK       I    between atoms: O6_39  and  C6_77 
REMARK       I    between atoms: C2_40  and  O2_103 
REMARK       I    between atoms: O3S_42  and  S1_44 
REMARK       I    between atoms: S1_44  and  N_99 
REMARK       I    between atoms: S1_44  and  O2S_81 
REMARK       I    between atoms: S1_45  and  N_94 
REMARK       I    between atoms: S1_45  and  O1S_46 
REMARK       I    between atoms: S1_45  and  O3S_58 
REMARK       I    between atoms: O3_52  and  C3_105 
REMARK       I    between atoms: S1_55  and  N_100 
REMARK       I    between atoms: S1_55  and  O1S_79 
REMARK       I    between atoms: S1_55  and  O2S_83 
REMARK       I    between atoms: O3_56  and  C3_64 
REMARK       I    between atoms: C4_60  and  O4_61 
REMARK       I    between atoms: O4_61  and  C1_73 
REMARK       I    between atoms: C6_63  and  C5_80 
REMARK       I    between atoms: C3_65  and  O3_82 
REMARK       I    between atoms: S_67  and  O2_84 
REMARK       I    between atoms: C2_68  and  O2_98 
REMARK       I    between atoms: O4_74  and  C4_97 
REMARK       I    between atoms: C2_85  and  N_94 
REMARK       I    between atoms: C2_95  and  N_100 
REMARK       I    between atoms: O2_98  and  S_104 
REMARK       I    between atoms: S_101  and  O2_103 
ROOT
ATOM      1  O6S SGN d  66      16.802  48.166  54.226  0.00  0.00    -0.572 OA
ATOM      2  C4  SGN d  66      17.600  43.454  54.452  0.00  0.00     0.095 C 
ATOM      3  C6  SGN d  66      19.258  45.212  55.184  0.00  0.00     0.067 C 
ATOM      4  O4  SGN d  66      18.166  43.499  53.058  0.00  0.00    -0.348 OA
ATOM      5  O5S SGN d  66      19.024  47.889  53.425  0.00  0.00    -0.572 OA
ATOM      6  O2S SGN d  66      15.131  41.056  58.994  0.00  0.00    -0.296 OA
ATOM      7  O5  SGN d  66      18.135  43.737  56.832  0.00  0.00    -0.350 OA
ATOM      8  O1  SGN d  66      18.558  41.379  57.062  0.00  0.00    -0.369 OA
ATOM      9  C5  SGN d  66      18.691  43.810  55.475  0.00  0.00     0.091 C 
ATOM     10  S2  SGN d  66      17.811  47.196  53.849  0.00  0.00     0.251 S 
ATOM     11  S1  SGN d  66      15.796  40.102  58.128  0.00  0.00     0.156 S 
ATOM     12  O1S SGN d  66      15.061  38.848  58.053  0.00  0.00    -0.296 OA
ATOM     13  C1  SGN d  66      17.579  42.429  57.191  0.00  0.00     0.147 C 
ATOM     14  O3S SGN d  66      17.132  39.795  58.616  0.00  0.00    -0.296 OA
ATOM     15  C3  SGN d  66      16.963  42.092  54.773  0.00  0.00     0.083 C 
ATOM     16  O3  SGN d  66      15.851  41.875  53.905  0.00  0.00    -0.391 OA
ATOM     17  C2  SGN d  66      16.431  42.120  56.208  0.00  0.00     0.081 C 
ATOM     18  O4S SGN d  66      17.288  46.356  52.781  0.00  0.00    -0.572 OA
ATOM     19  N   SGN d  66      15.820  40.814  56.494  0.00  0.00    -0.210 NA
ATOM     20  O6  SGN d  66      18.218  46.214  55.277  0.00  0.00    -0.254 OA
ATOM     21  H   SGN d  66      16.818  44.181  54.512  0.00  0.00     0.091 H 
ATOM     22  H   SGN d  66      19.671  45.225  54.197  0.00  0.00     0.080 H 
ATOM     23  H   SGN d  66      20.015  45.434  55.907  0.00  0.00     0.080 H 
ATOM     24  H   SGN d  66      14.245  41.244  58.647  0.00  0.00     0.231 HD
ATOM     25  H   SGN d  66      19.293  41.547  57.671  0.00  0.00     0.212 HD
ATOM     26  H   SGN d  66      19.494  43.108  55.397  0.00  0.00     0.090 H 
ATOM     27  H   SGN d  66      14.162  39.019  57.730  0.00  0.00     0.231 HD
ATOM     28  H   SGN d  66      17.249  42.467  58.208  0.00  0.00     0.131 H 
ATOM     29  H   SGN d  66      17.650  40.613  58.679  0.00  0.00     0.231 HD
ATOM     30  H   SGN d  66      17.693  41.320  54.649  0.00  0.00     0.089 H 
ATOM     31  H   SGN d  66      15.200  42.583  54.031  0.00  0.00     0.210 HD
ATOM     32  H   SGN d  66      15.695  42.889  56.324  0.00  0.00     0.076 H 
ATOM     33  H   SGN d  66      14.845  40.888  56.203  0.00  0.00     0.140 HD
ATOM     34  O61 IDS d  65      17.722  38.763  51.824  0.00  0.00    -0.646 OA
ATOM     35  O3  IDS d  65      21.286  42.413  50.418  0.00  0.00    -0.390 OA
ATOM     36  C5  IDS d  65      18.094  41.124  51.845  0.00  0.00     0.152 C 
ATOM     37  C6  IDS d  65      17.172  39.885  51.695  0.00  0.00     0.206 C 
ATOM     38  O5  IDS d  65      17.293  42.315  51.572  0.00  0.00    -0.340 OA
ATOM     39  C1  IDS d  65      17.985  43.589  51.653  0.00  0.00     0.161 C 
ATOM     40  O1S IDS d  65      22.674  45.010  50.549  0.00  0.00    -0.572 OA
ATOM     41  C4  IDS d  65      19.389  41.075  50.960  0.00  0.00     0.103 C 
ATOM     42  O4  IDS d  65      19.204  39.859  50.232  0.00  0.00    -0.348 OA
ATOM     43  C2  IDS d  65      19.537  43.492  51.549  0.00  0.00     0.134 C 
ATOM     44  O62 IDS d  65      15.934  40.054  51.477  0.00  0.00    -0.646 OA
ATOM     45  C3  IDS d  65      19.898  42.467  50.522  0.00  0.00     0.094 C 
ATOM     46  O2S IDS d  65      22.054  44.068  52.650  0.00  0.00    -0.572 OA
ATOM     47  O3S IDS d  65      21.783  46.399  52.293  0.00  0.00    -0.572 OA
ATOM     48  O2  IDS d  65      20.081  44.722  51.095  0.00  0.00    -0.244 OA
ATOM     49  S   IDS d  65      21.733  45.082  51.665  0.00  0.00     0.252 S 
ATOM     50  H   IDS d  65      21.535  41.751  49.755  0.00  0.00     0.210 HD
ATOM     51  H   IDS d  65      18.468  41.140  52.846  0.00  0.00     0.104 H 
ATOM     52  H   IDS d  65      17.516  44.316  51.023  0.00  0.00     0.133 H 
ATOM     53  H   IDS d  65      20.386  40.947  51.326  0.00  0.00     0.092 H 
ATOM     54  H   IDS d  65      19.919  43.242  52.516  0.00  0.00     0.097 H 
ATOM     55  H   IDS d  65      19.454  42.732  49.585  0.00  0.00     0.091 H 
ATOM     56  O3S SGN d  62      14.197  37.179  43.051  0.00  0.00    -0.296 OA
ATOM     57  C1  SGN d  62      17.366  36.909  41.652  0.00  0.00     0.150 C 
ATOM     58  S2  SGN d  62      22.080  36.700  38.032  0.00  0.00     0.251 S 
ATOM     59  C5  SGN d  62      18.750  36.251  39.689  0.00  0.00     0.091 C 
ATOM     60  O5  SGN d  62      18.129  37.312  40.469  0.00  0.00    -0.349 OA
ATOM     61  O4S SGN d  62      22.139  37.586  36.918  0.00  0.00    -0.572 OA
ATOM     62  O6  SGN d  62      20.492  35.982  38.147  0.00  0.00    -0.254 OA
ATOM     63  O3  SGN d  62      16.100  33.710  40.203  0.00  0.00    -0.391 OA
ATOM     64  S1  SGN d  62      14.243  35.746  42.876  0.00  0.00     0.156 S 
ATOM     65  O6S SGN d  62      22.404  37.354  39.298  0.00  0.00    -0.572 OA
ATOM     66  O4  SGN d  62      18.327  34.243  38.446  0.00  0.00    -0.348 OA
ATOM     67  C6  SGN d  62      19.465  36.884  38.518  0.00  0.00     0.067 C 
ATOM     68  O5S SGN d  62      22.990  35.602  37.847  0.00  0.00    -0.572 OA
ATOM     69  O1S SGN d  62      13.867  35.042  44.084  0.00  0.00    -0.296 OA
ATOM     70  O2S SGN d  62      13.401  35.410  41.764  0.00  0.00    -0.296 OA
ATOM     71  C2  SGN d  62      16.393  35.809  41.253  0.00  0.00     0.081 C 
ATOM     72  C4  SGN d  62      17.679  35.254  39.214  0.00  0.00     0.095 C 
ATOM     73  N   SGN d  62      15.852  35.229  42.441  0.00  0.00    -0.210 NA
ATOM     74  C3  SGN d  62      17.081  34.666  40.502  0.00  0.00     0.083 C 
ATOM     75  H   SGN d  62      14.761  37.431  43.800  0.00  0.00     0.231 HD
ATOM     76  H   SGN d  62      16.874  37.791  42.006  0.00  0.00     0.131 H 
ATOM     77  H   SGN d  62      19.456  35.709  40.283  0.00  0.00     0.090 H 
ATOM     78  H   SGN d  62      15.735  33.352  41.027  0.00  0.00     0.210 HD
ATOM     79  H   SGN d  62      19.884  37.826  38.805  0.00  0.00     0.080 H 
ATOM     80  H   SGN d  62      18.794  37.068  37.705  0.00  0.00     0.080 H 
ATOM     81  H   SGN d  62      14.461  35.300  44.807  0.00  0.00     0.231 HD
ATOM     82  H   SGN d  62      13.690  35.904  40.980  0.00  0.00     0.231 HD
ATOM     83  H   SGN d  62      15.652  36.258  40.624  0.00  0.00     0.076 H 
ATOM     84  H   SGN d  62      16.918  35.699  38.607  0.00  0.00     0.091 H 
ATOM     85  H   SGN d  62      15.832  34.217  42.313  0.00  0.00     0.140 HD
ATOM     86  H   SGN d  62      17.859  34.207  41.076  0.00  0.00     0.089 H 
ATOM     87  O4  IDS d  63      18.173  36.412  42.727  0.00  0.00    -0.348 OA
ATOM     88  O62 IDS d  63      21.570  36.392  44.160  0.00  0.00    -0.646 OA
ATOM     89  C2  IDS d  63      16.955  35.650  45.482  0.00  0.00     0.134 C 
ATOM     90  O2S IDS d  63      16.062  32.732  46.059  0.00  0.00    -0.572 OA
ATOM     91  O61 IDS d  63      20.906  38.270  43.313  0.00  0.00    -0.646 OA
ATOM     92  C3  IDS d  63      16.814  37.003  44.773  0.00  0.00     0.094 C 
ATOM     93  C1  IDS d  63      18.253  35.629  46.335  0.00  0.00     0.161 C 
ATOM     94  O5  IDS d  63      19.378  35.782  45.433  0.00  0.00    -0.340 OA
ATOM     95  C4  IDS d  63      18.090  37.265  43.862  0.00  0.00     0.103 C 
ATOM     96  C6  IDS d  63      20.714  37.262  43.991  0.00  0.00     0.206 C 
ATOM     97  S   IDS d  63      17.123  32.970  45.089  0.00  0.00     0.252 S 
ATOM     98  O3  IDS d  63      16.751  37.953  45.814  0.00  0.00    -0.390 OA
ATOM     99  C5  IDS d  63      19.378  37.081  44.708  0.00  0.00     0.152 C 
ATOM    100  O2  IDS d  63      16.916  34.631  44.518  0.00  0.00    -0.244 OA
ATOM    101  O1S IDS d  63      16.995  32.133  43.910  0.00  0.00    -0.572 OA
ATOM    102  O3S IDS d  63      18.365  32.717  45.760  0.00  0.00    -0.572 OA
ATOM    103  H   IDS d  63      16.144  35.488  46.161  0.00  0.00     0.097 H 
ATOM    104  H   IDS d  63      15.953  37.048  44.139  0.00  0.00     0.091 H 
ATOM    105  H   IDS d  63      18.415  34.721  46.877  0.00  0.00     0.133 H 
ATOM    106  H   IDS d  63      17.992  38.268  43.499  0.00  0.00     0.092 H 
ATOM    107  H   IDS d  63      17.546  37.883  46.365  0.00  0.00     0.210 HD
ATOM    108  H   IDS d  63      19.320  37.903  45.389  0.00  0.00     0.104 H 
ATOM    109  O4  SGN d  64      18.113  36.730  47.285  0.00  0.00    -0.348 OA
ATOM    110  O6  SGN d  64      18.444  35.301  51.167  0.00  0.00    -0.254 OA
ATOM    111  C3  SGN d  64      19.768  38.422  47.906  0.00  0.00     0.083 C 
ATOM    112  S2  SGN d  64      20.024  34.501  50.955  0.00  0.00     0.251 S 
ATOM    113  C5  SGN d  64      18.463  37.170  49.625  0.00  0.00     0.091 C 
ATOM    114  O1S SGN d  64      24.047  39.814  48.375  0.00  0.00    -0.296 OA
ATOM    115  C2  SGN d  64      20.815  38.731  48.931  0.00  0.00     0.081 C 
ATOM    116  O4S SGN d  64      19.846  33.416  50.025  0.00  0.00    -0.572 OA
ATOM    117  O3S SGN d  64      22.749  39.237  46.475  0.00  0.00    -0.296 OA
ATOM    118  S1  SGN d  64      22.845  40.126  47.619  0.00  0.00     0.156 S 
ATOM    119  O6S SGN d  64      21.018  35.424  50.447  0.00  0.00    -0.572 OA
ATOM    120  O5S SGN d  64      20.457  34.000  52.231  0.00  0.00    -0.572 OA
ATOM    121  O3  SGN d  64      20.418  38.386  46.687  0.00  0.00    -0.391 OA
ATOM    122  C1  SGN d  64      20.160  38.799  50.286  0.00  0.00     0.150 C 
ATOM    123  O2S SGN d  64      22.863  41.489  47.162  0.00  0.00    -0.296 OA
ATOM    124  C4  SGN d  64      19.133  37.048  48.244  0.00  0.00     0.095 C 
ATOM    125  O5  SGN d  64      19.517  37.537  50.564  0.00  0.00    -0.349 OA
ATOM    126  C6  SGN d  64      17.825  35.853  50.013  0.00  0.00     0.067 C 
ATOM    127  N   SGN d  64      21.404  40.016  48.643  0.00  0.00    -0.210 NA
ATOM    128  H   SGN d  64      18.984  39.150  47.885  0.00  0.00     0.089 H 
ATOM    129  H   SGN d  64      17.686  37.906  49.623  0.00  0.00     0.090 H 
ATOM    130  H   SGN d  64      24.011  38.891  48.671  0.00  0.00     0.231 HD
ATOM    131  H   SGN d  64      21.569  37.973  48.915  0.00  0.00     0.076 H 
ATOM    132  H   SGN d  64      22.737  38.316  46.781  0.00  0.00     0.231 HD
ATOM    133  H   SGN d  64      21.126  37.724  46.718  0.00  0.00     0.210 HD
ATOM    134  H   SGN d  64      20.870  38.985  51.064  0.00  0.00     0.131 H 
ATOM    135  H   SGN d  64      23.632  41.627  46.589  0.00  0.00     0.231 HD
ATOM    136  H   SGN d  64      19.886  36.287  48.233  0.00  0.00     0.091 H 
ATOM    137  H   SGN d  64      16.788  36.014  50.217  0.00  0.00     0.080 H 
ATOM    138  H   SGN d  64      17.948  35.166  49.202  0.00  0.00     0.080 H 
ATOM    139  H   SGN d  64      21.648  40.435  49.540  0.00  0.00     0.140 HD
ATOM    140  C1  IDS d  61      17.715  33.994  37.164  0.00  0.00     0.167 C 
ATOM    141  O5  IDS d  61      16.388  33.443  37.367  0.00  0.00    -0.311 OA
ATOM    142  C5  IDS d  61      16.237  32.116  37.748  0.00  0.00     0.147 C 
ATOM    143  C6  IDS d  61      14.772  31.628  38.074  0.00  0.00     0.233 C 
ATOM    144  C2  IDS d  61      18.559  32.955  36.434  0.00  0.00     0.135 C 
ATOM    145  O1S IDS d  61      15.652  33.802  35.056  0.00  0.00    -0.572 OA
ATOM    146  O3S IDS d  61      17.507  35.107  34.241  0.00  0.00    -0.572 OA
ATOM    147  O3  IDS d  61      19.595  31.690  38.084  0.00  0.00    -0.389 OA
ATOM    148  C4  IDS d  61      17.274  31.233  37.732  0.00  0.00    -0.034 C 
ATOM    149  C3  IDS d  61      18.592  31.597  37.135  0.00  0.00     0.086 C 
ATOM    150  O61 IDS d  61      14.569  30.449  38.365  0.00  0.00    -0.642 OA
ATOM    151  O62 IDS d  61      13.812  32.435  38.001  0.00  0.00    -0.642 OA
ATOM    152  O2S IDS d  61      16.551  33.285  33.020  0.00  0.00    -0.572 OA
ATOM    153  S   IDS d  61      16.880  33.795  34.307  0.00  0.00     0.252 S 
ATOM    154  O2  IDS d  61      18.024  32.698  35.124  0.00  0.00    -0.244 OA
ATOM    155  H   IDS d  61      17.650  34.903  36.602  0.00  0.00     0.134 H 
ATOM    156  H   IDS d  61      19.543  33.374  36.405  0.00  0.00     0.097 H 
ATOM    157  H   IDS d  61      20.430  31.928  37.650  0.00  0.00     0.210 HD
ATOM    158  H   IDS d  61      17.146  30.294  38.141  0.00  0.00     0.085 H 
ATOM    159  H   IDS d  61      18.791  30.808  36.441  0.00  0.00     0.093 H 
ENDROOT
TORSDOF 50
ENDMDL
MODEL 82
REMARK VINA RESULT:      -4.8      2.719     16.057
REMARK  0 active torsions:
REMARK  status: ('A' for Active; 'I' for Inactive)
REMARK       I    between atoms: O3S_3  and  S1_55 
REMARK       I    between atoms: O3_4  and  C3_87 
REMARK       I    between atoms: O4_5  and  C1_15 
REMARK       I    between atoms: O4_5  and  C4_57 
REMARK       I    between atoms: O4_7  and  C1_36 
REMARK       I    between atoms: O4_7  and  C4_89 
REMARK       I    between atoms: C4_8  and  O4_18 
REMARK       I    between atoms: C2_9  and  O2_84 
REMARK       I    between atoms: C6_10  and  C5_32 
REMARK       I    between atoms: C6_10  and  O6_102 
REMARK       I    between atoms: O6_11  and  C6_93 
REMARK       I    between atoms: O6_11  and  S2_25 
REMARK       I    between atoms: C1_13  and  O4_74 
REMARK       I    between atoms: C3_14  and  O3_71 
REMARK       I    between atoms: O4_18  and  C1_54 
REMARK       I    between atoms: S2_19  and  O6_39 
REMARK       I    between atoms: O2S_21  and  S1_45 
REMARK       I    between atoms: C5_22  and  C6_23 
REMARK       I    between atoms: C5_24  and  C6_77 
REMARK       I    between atoms: O1_27  and  C1_48 
REMARK       I    between atoms: C5_28  and  C6_30 
REMARK       I    between atoms: C5_29  and  C6_93 
REMARK       I    between atoms: O1S_31  and  S1_44 
REMARK       I    between atoms: C3_33  and  O3_69 
REMARK       I    between atoms: C2_37  and  N_99 
REMARK       I    between atoms: S2_38  and  O6_102 
REMARK       I    between atoms: O6_39  and  C6_77 
REMARK       I    between atoms: C2_40  and  O2_103 
REMARK       I    between atoms: O3S_42  and  S1_44 
REMARK       I    between atoms: S1_44  and  N_99 
REMARK       I    between atoms: S1_44  and  O2S_81 
REMARK       I    between atoms: S1_45  and  N_94 
REMARK       I    between atoms: S1_45  and  O1S_46 
REMARK       I    between atoms: S1_45  and  O3S_58 
REMARK       I    between atoms: O3_52  and  C3_105 
REMARK       I    between atoms: S1_55  and  N_100 
REMARK       I    between atoms: S1_55  and  O1S_79 
REMARK       I    between atoms: S1_55  and  O2S_83 
REMARK       I    between atoms: O3_56  and  C3_64 
REMARK       I    between atoms: C4_60  and  O4_61 
REMARK       I    between atoms: O4_61  and  C1_73 
REMARK       I    between atoms: C6_63  and  C5_80 
REMARK       I    between atoms: C3_65  and  O3_82 
REMARK       I    between atoms: S_67  and  O2_84 
REMARK       I    between atoms: C2_68  and  O2_98 
REMARK       I    between atoms: O4_74  and  C4_97 
REMARK       I    between atoms: C2_85  and  N_94 
REMARK       I    between atoms: C2_95  and  N_100 
REMARK       I    between atoms: O2_98  and  S_104 
REMARK       I    between atoms: S_101  and  O2_103 
ROOT
ATOM      1  O6S SGN d  66      20.505  33.506  34.355  0.00  0.00    -0.572 OA
ATOM      2  C4  SGN d  66      19.871  31.556  38.678  0.00  0.00     0.095 C 
ATOM      3  C6  SGN d  66      18.315  31.208  36.721  0.00  0.00     0.067 C 
ATOM      4  O4  SGN d  66      19.083  32.768  39.092  0.00  0.00    -0.348 OA
ATOM      5  O5S SGN d  66      18.189  33.789  34.814  0.00  0.00    -0.572 OA
ATOM      6  O2S SGN d  66      23.116  26.938  39.465  0.00  0.00    -0.296 OA
ATOM      7  O5  SGN d  66      19.731  29.362  37.582  0.00  0.00    -0.350 OA
ATOM      8  O1  SGN d  66      19.411  28.274  39.705  0.00  0.00    -0.369 OA
ATOM      9  C5  SGN d  66      18.957  30.552  37.958  0.00  0.00     0.091 C 
ATOM     10  S2  SGN d  66      19.472  33.358  35.361  0.00  0.00     0.251 S 
ATOM     11  S1  SGN d  66      22.341  27.303  40.635  0.00  0.00     0.156 S 
ATOM     12  O1S SGN d  66      23.084  27.065  41.863  0.00  0.00    -0.296 OA
ATOM     13  C1  SGN d  66      20.371  28.674  38.708  0.00  0.00     0.147 C 
ATOM     14  O3S SGN d  66      21.112  26.528  40.711  0.00  0.00    -0.296 OA
ATOM     15  C3  SGN d  66      20.587  30.897  39.870  0.00  0.00     0.083 C 
ATOM     16  O3  SGN d  66      21.545  31.808  40.407  0.00  0.00    -0.391 OA
ATOM     17  C2  SGN d  66      21.348  29.666  39.372  0.00  0.00     0.081 C 
ATOM     18  O4S SGN d  66      19.832  34.145  36.533  0.00  0.00    -0.572 OA
ATOM     19  N   SGN d  66      22.029  29.055  40.522  0.00  0.00    -0.210 NA
ATOM     20  O6  SGN d  66      19.331  31.634  35.783  0.00  0.00    -0.254 OA
ATOM     21  H   SGN d  66      20.635  31.877  38.001  0.00  0.00     0.091 H 
ATOM     22  H   SGN d  66      17.745  32.058  37.031  0.00  0.00     0.080 H 
ATOM     23  H   SGN d  66      17.683  30.491  36.240  0.00  0.00     0.080 H 
ATOM     24  H   SGN d  66      23.928  27.468  39.437  0.00  0.00     0.231 HD
ATOM     25  H   SGN d  66      18.782  27.647  39.315  0.00  0.00     0.212 HD
ATOM     26  H   SGN d  66      18.169  30.253  38.617  0.00  0.00     0.090 H 
ATOM     27  H   SGN d  66      23.912  27.569  41.843  0.00  0.00     0.231 HD
ATOM     28  H   SGN d  66      20.863  27.800  38.336  0.00  0.00     0.131 H 
ATOM     29  H   SGN d  66      20.592  26.665  39.904  0.00  0.00     0.231 HD
ATOM     30  H   SGN d  66      19.865  30.629  40.612  0.00  0.00     0.089 H 
ATOM     31  H   SGN d  66      22.190  32.040  39.721  0.00  0.00     0.210 HD
ATOM     32  H   SGN d  66      22.074  29.943  38.635  0.00  0.00     0.076 H 
ATOM     33  H   SGN d  66      22.940  29.509  40.585  0.00  0.00     0.140 HD
ATOM     34  O61 IDS d  65      19.432  32.364  43.977  0.00  0.00    -0.646 OA
ATOM     35  O3  IDS d  65      15.596  34.329  40.907  0.00  0.00    -0.390 OA
ATOM     36  C5  IDS d  65      19.011  33.091  41.740  0.00  0.00     0.152 C 
ATOM     37  C6  IDS d  65      19.926  32.957  42.986  0.00  0.00     0.206 C 
ATOM     38  O5  IDS d  65      19.726  33.881  40.740  0.00  0.00    -0.340 OA
ATOM     39  C1  IDS d  65      19.026  34.129  39.493  0.00  0.00     0.161 C 
ATOM     40  O1S IDS d  65      14.185  34.868  38.375  0.00  0.00    -0.572 OA
ATOM     41  C4  IDS d  65      17.589  33.681  42.043  0.00  0.00     0.103 C 
ATOM     42  O4  IDS d  65      17.681  33.969  43.440  0.00  0.00    -0.348 OA
ATOM     43  C2  IDS d  65      17.481  33.938  39.567  0.00  0.00     0.134 C 
ATOM     44  O62 IDS d  65      21.105  33.419  42.943  0.00  0.00    -0.646 OA
ATOM     45  C3  IDS d  65      16.980  34.479  40.868  0.00  0.00     0.094 C 
ATOM     46  O2S IDS d  65      15.168  32.703  38.565  0.00  0.00    -0.572 OA
ATOM     47  O3S IDS d  65      15.318  33.875  36.506  0.00  0.00    -0.572 OA
ATOM     48  O2  IDS d  65      16.839  34.689  38.547  0.00  0.00    -0.244 OA
ATOM     49  S   IDS d  65      15.297  34.014  37.959  0.00  0.00     0.252 S 
ATOM     50  H   IDS d  65      15.257  34.676  41.747  0.00  0.00     0.210 HD
ATOM     51  H   IDS d  65      18.807  32.108  41.370  0.00  0.00     0.104 H 
ATOM     52  H   IDS d  65      19.366  35.037  39.040  0.00  0.00     0.133 H 
ATOM     53  H   IDS d  65      16.670  33.135  42.005  0.00  0.00     0.092 H 
ATOM     54  H   IDS d  65      17.271  32.894  39.459  0.00  0.00     0.097 H 
ATOM     55  H   IDS d  65      17.256  35.509  40.953  0.00  0.00     0.091 H 
ATOM     56  O3S SGN d  62      21.494  40.518  48.576  0.00  0.00    -0.296 OA
ATOM     57  C1  SGN d  62      18.145  41.202  49.200  0.00  0.00     0.150 C 
ATOM     58  S2  SGN d  62      12.904  43.707  50.471  0.00  0.00     0.251 S 
ATOM     59  C5  SGN d  62      16.472  42.567  50.440  0.00  0.00     0.091 C 
ATOM     60  O5  SGN d  62      17.187  42.309  49.199  0.00  0.00    -0.349 OA
ATOM     61  O4S SGN d  62      12.640  45.032  50.017  0.00  0.00    -0.572 OA
ATOM     62  O6  SGN d  62      14.507  43.617  51.160  0.00  0.00    -0.254 OA
ATOM     63  O3  SGN d  62      19.233  41.657  52.742  0.00  0.00    -0.391 OA
ATOM     64  S1  SGN d  62      21.456  40.183  49.981  0.00  0.00     0.156 S 
ATOM     65  O6S SGN d  62      12.778  42.707  49.414  0.00  0.00    -0.572 OA
ATOM     66  O4  SGN d  62      16.732  43.100  52.765  0.00  0.00    -0.348 OA
ATOM     67  C6  SGN d  62      15.558  43.749  50.221  0.00  0.00     0.067 C 
ATOM     68  O5S SGN d  62      12.003  43.355  51.535  0.00  0.00    -0.572 OA
ATOM     69  O1S SGN d  62      22.043  38.886  50.242  0.00  0.00    -0.296 OA
ATOM     70  O2S SGN d  62      22.109  41.235  50.704  0.00  0.00    -0.296 OA
ATOM     71  C2  SGN d  62      19.066  41.354  50.402  0.00  0.00     0.081 C 
ATOM     72  C4  SGN d  62      17.474  42.841  51.575  0.00  0.00     0.095 C 
ATOM     73  N   SGN d  62      19.810  40.145  50.561  0.00  0.00    -0.210 NA
ATOM     74  C3  SGN d  62      18.291  41.546  51.709  0.00  0.00     0.083 C 
ATOM     75  H   SGN d  62      21.057  39.819  48.065  0.00  0.00     0.231 HD
ATOM     76  H   SGN d  62      18.667  41.256  48.267  0.00  0.00     0.131 H 
ATOM     77  H   SGN d  62      15.887  41.716  50.723  0.00  0.00     0.090 H 
ATOM     78  H   SGN d  62      19.737  40.831  52.810  0.00  0.00     0.210 HD
ATOM     79  H   SGN d  62      15.169  43.737  49.224  0.00  0.00     0.080 H 
ATOM     80  H   SGN d  62      16.081  44.674  50.348  0.00  0.00     0.080 H 
ATOM     81  H   SGN d  62      21.571  38.208  49.734  0.00  0.00     0.231 HD
ATOM     82  H   SGN d  62      21.683  42.082  50.498  0.00  0.00     0.231 HD
ATOM     83  H   SGN d  62      19.681  42.211  50.220  0.00  0.00     0.076 H 
ATOM     84  H   SGN d  62      18.113  43.679  51.390  0.00  0.00     0.091 H 
ATOM     85  H   SGN d  62      19.834  39.921  51.556  0.00  0.00     0.140 HD
ATOM     86  H   SGN d  62      17.630  40.731  51.918  0.00  0.00     0.089 H 
ATOM     87  O4  IDS d  63      17.540  39.904  49.273  0.00  0.00    -0.348 OA
ATOM     88  O62 IDS d  63      14.428  38.015  48.687  0.00  0.00    -0.646 OA
ATOM     89  C2  IDS d  63      19.215  37.294  49.090  0.00  0.00     0.134 C 
ATOM     90  O2S IDS d  63      20.263  35.909  51.665  0.00  0.00    -0.572 OA
ATOM     91  O61 IDS d  63      14.896  39.550  47.234  0.00  0.00    -0.646 OA
ATOM     92  C3  IDS d  63      19.204  38.436  48.065  0.00  0.00     0.094 C 
ATOM     93  C1  IDS d  63      18.077  36.285  48.775  0.00  0.00     0.161 C 
ATOM     94  O5  IDS d  63      16.815  36.988  48.901  0.00  0.00    -0.340 OA
ATOM     95  C4  IDS d  63      17.789  39.160  48.087  0.00  0.00     0.103 C 
ATOM     96  C6  IDS d  63      15.223  38.610  47.957  0.00  0.00     0.206 C 
ATOM     97  S   IDS d  63      19.050  36.714  51.737  0.00  0.00     0.252 S 
ATOM     98  O3  IDS d  63      19.414  37.808  46.820  0.00  0.00    -0.390 OA
ATOM     99  C5  IDS d  63      16.663  38.103  47.928  0.00  0.00     0.152 C 
ATOM    100  O2  IDS d  63      19.119  37.844  50.377  0.00  0.00    -0.244 OA
ATOM    101  O1S IDS d  63      19.002  37.540  52.929  0.00  0.00    -0.572 OA
ATOM    102  O3S IDS d  63      17.943  35.803  51.703  0.00  0.00    -0.572 OA
ATOM    103  H   IDS d  63      20.131  36.743  49.038  0.00  0.00     0.097 H 
ATOM    104  H   IDS d  63      19.946  39.179  48.269  0.00  0.00     0.091 H 
ATOM    105  H   IDS d  63      18.030  35.446  49.438  0.00  0.00     0.133 H 
ATOM    106  H   IDS d  63      17.800  39.854  47.272  0.00  0.00     0.092 H 
ATOM    107  H   IDS d  63      18.723  37.144  46.672  0.00  0.00     0.210 HD
ATOM    108  H   IDS d  63      16.812  37.763  46.925  0.00  0.00     0.104 H 
ATOM    109  O4  SGN d  64      18.345  35.805  47.421  0.00  0.00    -0.348 OA
ATOM    110  O6  SGN d  64      18.696  31.671  47.429  0.00  0.00    -0.254 OA
ATOM    111  C3  SGN d  64      16.775  35.538  45.564  0.00  0.00     0.083 C 
ATOM    112  S2  SGN d  64      17.123  31.335  48.199  0.00  0.00     0.251 S 
ATOM    113  C5  SGN d  64      18.376  33.733  46.199  0.00  0.00     0.091 C 
ATOM    114  O1S SGN d  64      12.600  34.879  43.952  0.00  0.00    -0.296 OA
ATOM    115  C2  SGN d  64      15.905  34.524  44.889  0.00  0.00     0.081 C 
ATOM    116  O4S SGN d  64      17.171  31.853  49.542  0.00  0.00    -0.572 OA
ATOM    117  O3S SGN d  64      13.579  36.652  45.186  0.00  0.00    -0.296 OA
ATOM    118  S1  SGN d  64      13.652  35.882  43.957  0.00  0.00     0.156 S 
ATOM    119  O6S SGN d  64      16.036  31.957  47.472  0.00  0.00    -0.572 OA
ATOM    120  O5S SGN d  64      16.920  29.911  48.220  0.00  0.00    -0.572 OA
ATOM    121  O3  SGN d  64      15.934  36.547  45.992  0.00  0.00    -0.391 OA
ATOM    122  C1  SGN d  64      16.773  33.401  44.385  0.00  0.00     0.150 C 
ATOM    123  O2S SGN d  64      13.526  36.768  42.832  0.00  0.00    -0.296 OA
ATOM    124  C4  SGN d  64      17.491  34.859  46.761  0.00  0.00     0.095 C 
ATOM    125  O5  SGN d  64      17.484  32.818  45.498  0.00  0.00    -0.349 OA
ATOM    126  C6  SGN d  64      19.102  33.028  47.325  0.00  0.00     0.067 C 
ATOM    127  N   SGN d  64      15.245  35.133  43.760  0.00  0.00    -0.210 NA
ATOM    128  H   SGN d  64      17.527  35.934  44.914  0.00  0.00     0.089 H 
ATOM    129  H   SGN d  64      19.124  34.114  45.534  0.00  0.00     0.090 H 
ATOM    130  H   SGN d  64      12.706  34.295  44.719  0.00  0.00     0.231 HD
ATOM    131  H   SGN d  64      15.177  34.156  45.581  0.00  0.00     0.076 H 
ATOM    132  H   SGN d  64      13.664  36.056  45.947  0.00  0.00     0.231 HD
ATOM    133  H   SGN d  64      15.256  36.176  46.580  0.00  0.00     0.210 HD
ATOM    134  H   SGN d  64      16.197  32.628  43.921  0.00  0.00     0.131 H 
ATOM    135  H   SGN d  64      12.668  37.219  42.872  0.00  0.00     0.231 HD
ATOM    136  H   SGN d  64      16.765  34.486  47.454  0.00  0.00     0.091 H 
ATOM    137  H   SGN d  64      20.154  33.065  47.139  0.00  0.00     0.080 H 
ATOM    138  H   SGN d  64      18.863  33.524  48.243  0.00  0.00     0.080 H 
ATOM    139  H   SGN d  64      15.142  34.406  43.052  0.00  0.00     0.140 HD
ATOM    140  C1  IDS d  61      17.130  44.301  53.457  0.00  0.00     0.167 C 
ATOM    141  O5  IDS d  61      18.486  44.142  53.950  0.00  0.00    -0.311 OA
ATOM    142  C5  IDS d  61      18.730  43.361  55.072  0.00  0.00     0.147 C 
ATOM    143  C6  IDS d  61      20.241  43.133  55.469  0.00  0.00     0.233 C 
ATOM    144  C2  IDS d  61      16.203  44.483  54.654  0.00  0.00     0.135 C 
ATOM    145  O1S IDS d  61      18.820  46.524  54.427  0.00  0.00    -0.572 OA
ATOM    146  O3S IDS d  61      16.825  47.421  53.415  0.00  0.00    -0.572 OA
ATOM    147  O3  IDS d  61      15.485  42.354  55.244  0.00  0.00    -0.389 OA
ATOM    148  C4  IDS d  61      17.727  42.904  55.872  0.00  0.00    -0.034 C 
ATOM    149  C3  IDS d  61      16.320  43.365  55.689  0.00  0.00     0.086 C 
ATOM    150  O61 IDS d  61      20.518  42.493  56.484  0.00  0.00    -0.642 OA
ATOM    151  O62 IDS d  61      21.155  43.633  54.768  0.00  0.00    -0.642 OA
ATOM    152  O2S IDS d  61      17.610  48.084  55.576  0.00  0.00    -0.572 OA
ATOM    153  S   IDS d  61      17.485  47.014  54.646  0.00  0.00     0.252 S 
ATOM    154  O2  IDS d  61      16.520  45.695  55.360  0.00  0.00    -0.244 OA
ATOM    155  H   IDS d  61      17.079  45.143  52.797  0.00  0.00     0.134 H 
ATOM    156  H   IDS d  61      15.217  44.492  54.237  0.00  0.00     0.097 H 
ATOM    157  H   IDS d  61      14.585  42.701  55.141  0.00  0.00     0.210 HD
ATOM    158  H   IDS d  61      17.943  42.226  56.619  0.00  0.00     0.085 H 
ATOM    159  H   IDS d  61      16.028  43.705  56.660  0.00  0.00     0.093 H 
ENDROOT
TORSDOF 50
ENDMDL
MODEL 83
REMARK VINA RESULT:      -4.8      3.783      5.700
REMARK  0 active torsions:
REMARK  status: ('A' for Active; 'I' for Inactive)
REMARK       I    between atoms: O3S_3  and  S1_55 
REMARK       I    between atoms: O3_4  and  C3_87 
REMARK       I    between atoms: O4_5  and  C1_15 
REMARK       I    between atoms: O4_5  and  C4_57 
REMARK       I    between atoms: O4_7  and  C1_36 
REMARK       I    between atoms: O4_7  and  C4_89 
REMARK       I    between atoms: C4_8  and  O4_18 
REMARK       I    between atoms: C2_9  and  O2_84 
REMARK       I    between atoms: C6_10  and  C5_32 
REMARK       I    between atoms: C6_10  and  O6_102 
REMARK       I    between atoms: O6_11  and  C6_93 
REMARK       I    between atoms: O6_11  and  S2_25 
REMARK       I    between atoms: C1_13  and  O4_74 
REMARK       I    between atoms: C3_14  and  O3_71 
REMARK       I    between atoms: O4_18  and  C1_54 
REMARK       I    between atoms: S2_19  and  O6_39 
REMARK       I    between atoms: O2S_21  and  S1_45 
REMARK       I    between atoms: C5_22  and  C6_23 
REMARK       I    between atoms: C5_24  and  C6_77 
REMARK       I    between atoms: O1_27  and  C1_48 
REMARK       I    between atoms: C5_28  and  C6_30 
REMARK       I    between atoms: C5_29  and  C6_93 
REMARK       I    between atoms: O1S_31  and  S1_44 
REMARK       I    between atoms: C3_33  and  O3_69 
REMARK       I    between atoms: C2_37  and  N_99 
REMARK       I    between atoms: S2_38  and  O6_102 
REMARK       I    between atoms: O6_39  and  C6_77 
REMARK       I    between atoms: C2_40  and  O2_103 
REMARK       I    between atoms: O3S_42  and  S1_44 
REMARK       I    between atoms: S1_44  and  N_99 
REMARK       I    between atoms: S1_44  and  O2S_81 
REMARK       I    between atoms: S1_45  and  N_94 
REMARK       I    between atoms: S1_45  and  O1S_46 
REMARK       I    between atoms: S1_45  and  O3S_58 
REMARK       I    between atoms: O3_52  and  C3_105 
REMARK       I    between atoms: S1_55  and  N_100 
REMARK       I    between atoms: S1_55  and  O1S_79 
REMARK       I    between atoms: S1_55  and  O2S_83 
REMARK       I    between atoms: O3_56  and  C3_64 
REMARK       I    between atoms: C4_60  and  O4_61 
REMARK       I    between atoms: O4_61  and  C1_73 
REMARK       I    between atoms: C6_63  and  C5_80 
REMARK       I    between atoms: C3_65  and  O3_82 
REMARK       I    between atoms: S_67  and  O2_84 
REMARK       I    between atoms: C2_68  and  O2_98 
REMARK       I    between atoms: O4_74  and  C4_97 
REMARK       I    between atoms: C2_85  and  N_94 
REMARK       I    between atoms: C2_95  and  N_100 
REMARK       I    between atoms: O2_98  and  S_104 
REMARK       I    between atoms: S_101  and  O2_103 
ROOT
ATOM      1  O6S SGN d  66      26.707  42.369  56.254  0.00  0.00    -0.572 OA
ATOM      2  C4  SGN d  66      22.893  43.804  53.746  0.00  0.00     0.095 C 
ATOM      3  C6  SGN d  66      22.831  43.177  56.191  0.00  0.00     0.067 C 
ATOM      4  O4  SGN d  66      22.622  42.373  53.370  0.00  0.00    -0.348 OA
ATOM      5  O5S SGN d  66      24.965  40.882  56.896  0.00  0.00    -0.572 OA
ATOM      6  O2S SGN d  66      22.698  49.469  53.156  0.00  0.00    -0.296 OA
ATOM      7  O5  SGN d  66      22.512  45.525  55.457  0.00  0.00    -0.350 OA
ATOM      8  O1  SGN d  66      20.578  46.334  54.275  0.00  0.00    -0.369 OA
ATOM      9  C5  SGN d  66      22.264  44.119  55.113  0.00  0.00     0.091 C 
ATOM     10  S2  SGN d  66      25.341  41.963  55.989  0.00  0.00     0.251 S 
ATOM     11  S1  SGN d  66      21.631  48.780  52.458  0.00  0.00     0.156 S 
ATOM     12  O1S SGN d  66      21.315  49.428  51.193  0.00  0.00    -0.296 OA
ATOM     13  C1  SGN d  66      21.996  46.490  54.481  0.00  0.00     0.147 C 
ATOM     14  O3S SGN d  66      20.412  48.759  53.253  0.00  0.00    -0.296 OA
ATOM     15  C3  SGN d  66      22.402  44.787  52.670  0.00  0.00     0.083 C 
ATOM     16  O3  SGN d  66      23.129  44.567  51.463  0.00  0.00    -0.391 OA
ATOM     17  C2  SGN d  66      22.696  46.216  53.134  0.00  0.00     0.081 C 
ATOM     18  O4S SGN d  66      25.231  41.542  54.599  0.00  0.00    -0.572 OA
ATOM     19  N   SGN d  66      22.226  47.139  52.091  0.00  0.00    -0.210 NA
ATOM     20  O6  SGN d  66      24.263  43.343  56.313  0.00  0.00    -0.254 OA
ATOM     21  H   SGN d  66      23.953  43.929  53.816  0.00  0.00     0.091 H 
ATOM     22  H   SGN d  66      22.617  42.164  55.919  0.00  0.00     0.080 H 
ATOM     23  H   SGN d  66      22.376  43.414  57.130  0.00  0.00     0.080 H 
ATOM     24  H   SGN d  66      23.497  49.468  52.607  0.00  0.00     0.231 HD
ATOM     25  H   SGN d  66      20.110  46.501  55.108  0.00  0.00     0.212 HD
ATOM     26  H   SGN d  66      21.207  43.961  55.062  0.00  0.00     0.090 H 
ATOM     27  H   SGN d  66      22.110  49.458  50.638  0.00  0.00     0.231 HD
ATOM     28  H   SGN d  66      22.182  47.477  54.848  0.00  0.00     0.131 H 
ATOM     29  H   SGN d  66      20.589  48.332  54.106  0.00  0.00     0.231 HD
ATOM     30  H   SGN d  66      21.354  44.643  52.510  0.00  0.00     0.089 H 
ATOM     31  H   SGN d  66      24.075  44.702  51.627  0.00  0.00     0.210 HD
ATOM     32  H   SGN d  66      23.747  46.356  53.285  0.00  0.00     0.076 H 
ATOM     33  H   SGN d  66      23.007  47.260  51.447  0.00  0.00     0.140 HD
ATOM     34  O61 IDS d  65      19.808  43.072  49.403  0.00  0.00    -0.646 OA
ATOM     35  O3  IDS d  65      19.818  39.224  53.036  0.00  0.00    -0.390 OA
ATOM     36  C5  IDS d  65      21.147  42.155  51.157  0.00  0.00     0.152 C 
ATOM     37  C6  IDS d  65      20.983  42.810  49.760  0.00  0.00     0.206 C 
ATOM     38  O5  IDS d  65      22.563  41.850  51.347  0.00  0.00    -0.340 OA
ATOM     39  C1  IDS d  65      22.923  41.217  52.603  0.00  0.00     0.161 C 
ATOM     40  O1S IDS d  65      20.572  37.914  55.567  0.00  0.00    -0.572 OA
ATOM     41  C4  IDS d  65      20.242  40.895  51.389  0.00  0.00     0.103 C 
ATOM     42  O4  IDS d  65      19.603  40.752  50.118  0.00  0.00    -0.348 OA
ATOM     43  C2  IDS d  65      21.738  40.535  53.350  0.00  0.00     0.134 C 
ATOM     44  O62 IDS d  65      22.015  43.067  49.069  0.00  0.00    -0.646 OA
ATOM     45  C3  IDS d  65      20.856  39.854  52.353  0.00  0.00     0.094 C 
ATOM     46  O2S IDS d  65      20.216  40.269  55.693  0.00  0.00    -0.572 OA
ATOM     47  O3S IDS d  65      22.032  39.299  56.876  0.00  0.00    -0.572 OA
ATOM     48  O2  IDS d  65      22.217  39.521  54.219  0.00  0.00    -0.244 OA
ATOM     49  S   IDS d  65      21.218  39.222  55.666  0.00  0.00     0.252 S 
ATOM     50  H   IDS d  65      19.236  38.778  52.400  0.00  0.00     0.210 HD
ATOM     51  H   IDS d  65      20.808  42.853  51.893  0.00  0.00     0.104 H 
ATOM     52  H   IDS d  65      23.809  40.628  52.490  0.00  0.00     0.133 H 
ATOM     53  H   IDS d  65      19.401  40.848  52.050  0.00  0.00     0.092 H 
ATOM     54  H   IDS d  65      21.214  41.289  53.898  0.00  0.00     0.097 H 
ATOM     55  H   IDS d  65      21.432  39.146  51.795  0.00  0.00     0.091 H 
ATOM     56  O3S SGN d  62      21.971  37.535  41.881  0.00  0.00    -0.296 OA
ATOM     57  C1  SGN d  62      19.593  35.154  42.745  0.00  0.00     0.150 C 
ATOM     58  S2  SGN d  62      16.305  30.237  43.362  0.00  0.00     0.251 S 
ATOM     59  C5  SGN d  62      18.290  33.140  42.073  0.00  0.00     0.091 C 
ATOM     60  O5  SGN d  62      19.405  33.705  42.822  0.00  0.00    -0.349 OA
ATOM     61  O4S SGN d  62      16.954  28.969  43.396  0.00  0.00    -0.572 OA
ATOM     62  O6  SGN d  62      16.961  31.213  42.070  0.00  0.00    -0.254 OA
ATOM     63  O3  SGN d  62      18.443  35.491  39.209  0.00  0.00    -0.391 OA
ATOM     64  S1  SGN d  62      20.973  37.844  40.882  0.00  0.00     0.156 S 
ATOM     65  O6S SGN d  62      16.418  30.969  44.622  0.00  0.00    -0.572 OA
ATOM     66  O4  SGN d  62      17.324  32.918  39.889  0.00  0.00    -0.348 OA
ATOM     67  C6  SGN d  62      18.294  31.644  42.279  0.00  0.00     0.067 C 
ATOM     68  O5S SGN d  62      14.910  30.076  43.058  0.00  0.00    -0.572 OA
ATOM     69  O1S SGN d  62      20.672  39.259  40.839  0.00  0.00    -0.296 OA
ATOM     70  O2S SGN d  62      21.442  37.345  39.621  0.00  0.00    -0.296 OA
ATOM     71  C2  SGN d  62      19.581  35.572  41.282  0.00  0.00     0.081 C 
ATOM     72  C4  SGN d  62      18.425  33.498  40.583  0.00  0.00     0.095 C 
ATOM     73  N   SGN d  62      19.485  36.995  41.216  0.00  0.00    -0.210 NA
ATOM     74  C3  SGN d  62      18.359  35.033  40.532  0.00  0.00     0.083 C 
ATOM     75  H   SGN d  62      21.675  37.863  42.745  0.00  0.00     0.231 HD
ATOM     76  H   SGN d  62      20.524  35.362  43.228  0.00  0.00     0.131 H 
ATOM     77  H   SGN d  62      17.361  33.543  42.420  0.00  0.00     0.090 H 
ATOM     78  H   SGN d  62      18.399  36.460  39.199  0.00  0.00     0.210 HD
ATOM     79  H   SGN d  62      18.610  31.407  43.273  0.00  0.00     0.080 H 
ATOM     80  H   SGN d  62      18.971  31.160  41.605  0.00  0.00     0.080 H 
ATOM     81  H   SGN d  62      20.360  39.550  41.711  0.00  0.00     0.231 HD
ATOM     82  H   SGN d  62      21.631  36.397  39.698  0.00  0.00     0.231 HD
ATOM     83  H   SGN d  62      20.474  35.185  40.837  0.00  0.00     0.076 H 
ATOM     84  H   SGN d  62      19.329  33.140  40.135  0.00  0.00     0.091 H 
ATOM     85  H   SGN d  62      18.819  37.230  40.480  0.00  0.00     0.140 HD
ATOM     86  H   SGN d  62      17.436  35.361  40.963  0.00  0.00     0.089 H 
ATOM     87  O4  IDS d  63      18.584  35.912  43.425  0.00  0.00    -0.348 OA
ATOM     88  O62 IDS d  63      15.990  35.771  46.042  0.00  0.00    -0.646 OA
ATOM     89  C2  IDS d  63      18.734  39.005  43.674  0.00  0.00     0.134 C 
ATOM     90  O2S IDS d  63      17.347  40.825  41.576  0.00  0.00    -0.572 OA
ATOM     91  O61 IDS d  63      17.820  34.693  46.459  0.00  0.00    -0.646 OA
ATOM     92  C3  IDS d  63      19.816  38.008  44.111  0.00  0.00     0.094 C 
ATOM     93  C1  IDS d  63      17.710  39.216  44.823  0.00  0.00     0.161 C 
ATOM     94  O5  IDS d  63      17.067  37.943  45.083  0.00  0.00    -0.340 OA
ATOM     95  C4  IDS d  63      19.138  36.629  44.521  0.00  0.00     0.103 C 
ATOM     96  C6  IDS d  63      17.219  35.683  46.045  0.00  0.00     0.206 C 
ATOM     97  S   IDS d  63      16.813  39.491  41.819  0.00  0.00     0.252 S 
ATOM     98  O3  IDS d  63      20.428  38.605  45.232  0.00  0.00    -0.390 OA
ATOM     99  C5  IDS d  63      18.010  36.893  45.554  0.00  0.00     0.152 C 
ATOM    100  O2  IDS d  63      18.142  38.537  42.491  0.00  0.00    -0.244 OA
ATOM    101  O1S IDS d  63      16.427  38.815  40.595  0.00  0.00    -0.572 OA
ATOM    102  O3S IDS d  63      15.686  39.647  42.692  0.00  0.00    -0.572 OA
ATOM    103  H   IDS d  63      19.160  39.965  43.469  0.00  0.00     0.097 H 
ATOM    104  H   IDS d  63      20.520  37.799  43.334  0.00  0.00     0.091 H 
ATOM    105  H   IDS d  63      16.930  39.915  44.601  0.00  0.00     0.133 H 
ATOM    106  H   IDS d  63      19.921  36.027  44.932  0.00  0.00     0.092 H 
ATOM    107  H   IDS d  63      19.759  38.778  45.913  0.00  0.00     0.210 HD
ATOM    108  H   IDS d  63      18.560  37.224  46.409  0.00  0.00     0.104 H 
ATOM    109  O4  SGN d  64      18.489  39.717  45.953  0.00  0.00    -0.348 OA
ATOM    110  O6  SGN d  64      16.972  43.369  47.210  0.00  0.00    -0.254 OA
ATOM    111  C3  SGN d  64      18.393  39.018  48.295  0.00  0.00     0.083 C 
ATOM    112  S2  SGN d  64      15.294  42.816  47.459  0.00  0.00     0.251 S 
ATOM    113  C5  SGN d  64      18.353  41.426  47.642  0.00  0.00     0.091 C 
ATOM    114  O1S SGN d  64      16.197  37.232  51.824  0.00  0.00    -0.296 OA
ATOM    115  C2  SGN d  64      17.763  39.368  49.608  0.00  0.00     0.081 C 
ATOM    116  O4S SGN d  64      14.755  42.456  46.173  0.00  0.00    -0.572 OA
ATOM    117  O3S SGN d  64      16.894  36.326  49.745  0.00  0.00    -0.296 OA
ATOM    118  S1  SGN d  64      17.342  36.967  50.968  0.00  0.00     0.156 S 
ATOM    119  O6S SGN d  64      15.241  41.676  48.351  0.00  0.00    -0.572 OA
ATOM    120  O5S SGN d  64      14.538  43.897  48.032  0.00  0.00    -0.572 OA
ATOM    121  O3  SGN d  64      17.991  37.729  48.004  0.00  0.00    -0.391 OA
ATOM    122  C1  SGN d  64      18.181  40.765  49.988  0.00  0.00     0.150 C 
ATOM    123  O2S SGN d  64      18.295  36.118  51.630  0.00  0.00    -0.296 OA
ATOM    124  C4  SGN d  64      17.890  40.019  47.222  0.00  0.00     0.095 C 
ATOM    125  O5  SGN d  64      17.765  41.680  48.952  0.00  0.00    -0.349 OA
ATOM    126  C6  SGN d  64      17.887  42.451  46.630  0.00  0.00     0.067 C 
ATOM    127  N   SGN d  64      18.235  38.458  50.624  0.00  0.00    -0.210 NA
ATOM    128  H   SGN d  64      19.461  39.075  48.323  0.00  0.00     0.089 H 
ATOM    129  H   SGN d  64      19.420  41.493  47.687  0.00  0.00     0.090 H 
ATOM    130  H   SGN d  64      15.569  37.805  51.356  0.00  0.00     0.231 HD
ATOM    131  H   SGN d  64      16.699  39.302  49.526  0.00  0.00     0.076 H 
ATOM    132  H   SGN d  64      16.250  36.897  49.297  0.00  0.00     0.231 HD
ATOM    133  H   SGN d  64      17.022  37.689  47.983  0.00  0.00     0.210 HD
ATOM    134  H   SGN d  64      17.730  41.080  50.906  0.00  0.00     0.131 H 
ATOM    135  H   SGN d  64      17.874  35.273  51.852  0.00  0.00     0.231 HD
ATOM    136  H   SGN d  64      16.825  39.958  47.140  0.00  0.00     0.091 H 
ATOM    137  H   SGN d  64      18.736  42.989  46.263  0.00  0.00     0.080 H 
ATOM    138  H   SGN d  64      17.392  41.938  45.832  0.00  0.00     0.080 H 
ATOM    139  H   SGN d  64      18.273  38.986  51.496  0.00  0.00     0.140 HD
ATOM    140  C1  IDS d  61      17.699  32.154  38.724  0.00  0.00     0.167 C 
ATOM    141  O5  IDS d  61      18.272  33.045  37.732  0.00  0.00    -0.311 OA
ATOM    142  C5  IDS d  61      17.446  33.871  36.981  0.00  0.00     0.147 C 
ATOM    143  C6  IDS d  61      18.152  34.901  36.016  0.00  0.00     0.233 C 
ATOM    144  C2  IDS d  61      16.433  31.536  38.140  0.00  0.00     0.135 C 
ATOM    145  O1S IDS d  61      19.231  31.251  36.362  0.00  0.00    -0.572 OA
ATOM    146  O3S IDS d  61      18.838  29.375  37.824  0.00  0.00    -0.572 OA
ATOM    147  O3  IDS d  61      14.689  32.945  38.744  0.00  0.00    -0.389 OA
ATOM    148  C4  IDS d  61      16.091  33.733  36.974  0.00  0.00    -0.034 C 
ATOM    149  C3  IDS d  61      15.428  32.572  37.636  0.00  0.00     0.086 C 
ATOM    150  O61 IDS d  61      17.472  35.623  35.286  0.00  0.00    -0.642 OA
ATOM    151  O62 IDS d  61      19.406  34.959  35.970  0.00  0.00    -0.642 OA
ATOM    152  O2S IDS d  61      18.383  29.324  35.475  0.00  0.00    -0.572 OA
ATOM    153  S   IDS d  61      18.392  30.119  36.655  0.00  0.00     0.252 S 
ATOM    154  O2  IDS d  61      16.748  30.720  36.998  0.00  0.00    -0.244 OA
ATOM    155  H   IDS d  61      18.410  31.399  38.989  0.00  0.00     0.134 H 
ATOM    156  H   IDS d  61      16.006  30.976  38.945  0.00  0.00     0.097 H 
ATOM    157  H   IDS d  61      14.278  32.160  39.139  0.00  0.00     0.210 HD
ATOM    158  H   IDS d  61      15.511  34.444  36.503  0.00  0.00     0.085 H 
ATOM    159  H   IDS d  61      14.799  32.161  36.875  0.00  0.00     0.093 H 
ENDROOT
TORSDOF 50
ENDMDL
MODEL 84
REMARK VINA RESULT:      -4.8      4.481      7.583
REMARK  0 active torsions:
REMARK  status: ('A' for Active; 'I' for Inactive)
REMARK       I    between atoms: O3S_3  and  S1_55 
REMARK       I    between atoms: O3_4  and  C3_87 
REMARK       I    between atoms: O4_5  and  C1_15 
REMARK       I    between atoms: O4_5  and  C4_57 
REMARK       I    between atoms: O4_7  and  C1_36 
REMARK       I    between atoms: O4_7  and  C4_89 
REMARK       I    between atoms: C4_8  and  O4_18 
REMARK       I    between atoms: C2_9  and  O2_84 
REMARK       I    between atoms: C6_10  and  C5_32 
REMARK       I    between atoms: C6_10  and  O6_102 
REMARK       I    between atoms: O6_11  and  C6_93 
REMARK       I    between atoms: O6_11  and  S2_25 
REMARK       I    between atoms: C1_13  and  O4_74 
REMARK       I    between atoms: C3_14  and  O3_71 
REMARK       I    between atoms: O4_18  and  C1_54 
REMARK       I    between atoms: S2_19  and  O6_39 
REMARK       I    between atoms: O2S_21  and  S1_45 
REMARK       I    between atoms: C5_22  and  C6_23 
REMARK       I    between atoms: C5_24  and  C6_77 
REMARK       I    between atoms: O1_27  and  C1_48 
REMARK       I    between atoms: C5_28  and  C6_30 
REMARK       I    between atoms: C5_29  and  C6_93 
REMARK       I    between atoms: O1S_31  and  S1_44 
REMARK       I    between atoms: C3_33  and  O3_69 
REMARK       I    between atoms: C2_37  and  N_99 
REMARK       I    between atoms: S2_38  and  O6_102 
REMARK       I    between atoms: O6_39  and  C6_77 
REMARK       I    between atoms: C2_40  and  O2_103 
REMARK       I    between atoms: O3S_42  and  S1_44 
REMARK       I    between atoms: S1_44  and  N_99 
REMARK       I    between atoms: S1_44  and  O2S_81 
REMARK       I    between atoms: S1_45  and  N_94 
REMARK       I    between atoms: S1_45  and  O1S_46 
REMARK       I    between atoms: S1_45  and  O3S_58 
REMARK       I    between atoms: O3_52  and  C3_105 
REMARK       I    between atoms: S1_55  and  N_100 
REMARK       I    between atoms: S1_55  and  O1S_79 
REMARK       I    between atoms: S1_55  and  O2S_83 
REMARK       I    between atoms: O3_56  and  C3_64 
REMARK       I    between atoms: C4_60  and  O4_61 
REMARK       I    between atoms: O4_61  and  C1_73 
REMARK       I    between atoms: C6_63  and  C5_80 
REMARK       I    between atoms: C3_65  and  O3_82 
REMARK       I    between atoms: S_67  and  O2_84 
REMARK       I    between atoms: C2_68  and  O2_98 
REMARK       I    between atoms: O4_74  and  C4_97 
REMARK       I    between atoms: C2_85  and  N_94 
REMARK       I    between atoms: C2_95  and  N_100 
REMARK       I    between atoms: O2_98  and  S_104 
REMARK       I    between atoms: S_101  and  O2_103 
ROOT
ATOM      1  O6S SGN d  66      21.989  36.649  55.802  0.00  0.00    -0.572 OA
ATOM      2  C4  SGN d  66      22.512  32.773  53.047  0.00  0.00     0.095 C 
ATOM      3  C6  SGN d  66      24.369  33.811  54.406  0.00  0.00     0.067 C 
ATOM      4  O4  SGN d  66      22.861  33.665  51.886  0.00  0.00    -0.348 OA
ATOM      5  O5S SGN d  66      24.041  36.996  54.651  0.00  0.00    -0.572 OA
ATOM      6  O2S SGN d  66      20.614  28.039  55.589  0.00  0.00    -0.296 OA
ATOM      7  O5  SGN d  66      23.419  31.599  55.005  0.00  0.00    -0.350 OA
ATOM      8  O1  SGN d  66      23.721  29.590  53.715  0.00  0.00    -0.369 OA
ATOM      9  C5  SGN d  66      23.765  32.491  53.891  0.00  0.00     0.091 C 
ATOM     10  S2  SGN d  66      22.865  36.139  54.767  0.00  0.00     0.251 S 
ATOM     11  S1  SGN d  66      21.078  27.819  54.234  0.00  0.00     0.156 S 
ATOM     12  O1S SGN d  66      20.263  26.829  53.545  0.00  0.00    -0.296 OA
ATOM     13  C1  SGN d  66      22.842  30.314  54.597  0.00  0.00     0.147 C 
ATOM     14  O3S SGN d  66      22.451  27.336  54.223  0.00  0.00    -0.296 OA
ATOM     15  C3  SGN d  66      21.846  31.464  52.590  0.00  0.00     0.083 C 
ATOM     16  O3  SGN d  66      20.604  31.763  51.955  0.00  0.00    -0.391 OA
ATOM     17  C2  SGN d  66      21.541  30.608  53.822  0.00  0.00     0.081 C 
ATOM     18  O4S SGN d  66      22.133  36.082  53.509  0.00  0.00    -0.572 OA
ATOM     19  N   SGN d  66      20.899  29.366  53.366  0.00  0.00    -0.210 NA
ATOM     20  O6  SGN d  66      23.422  34.516  55.241  0.00  0.00    -0.254 OA
ATOM     21  H   SGN d  66      21.796  33.288  53.652  0.00  0.00     0.091 H 
ATOM     22  H   SGN d  66      24.628  34.428  53.570  0.00  0.00     0.080 H 
ATOM     23  H   SGN d  66      25.240  33.588  54.986  0.00  0.00     0.080 H 
ATOM     24  H   SGN d  66      19.700  28.361  55.570  0.00  0.00     0.231 HD
ATOM     25  H   SGN d  66      24.550  29.391  54.177  0.00  0.00     0.212 HD
ATOM     26  H   SGN d  66      24.502  32.008  53.283  0.00  0.00     0.090 H 
ATOM     27  H   SGN d  66      19.338  27.123  53.536  0.00  0.00     0.231 HD
ATOM     28  H   SGN d  66      22.674  29.724  55.473  0.00  0.00     0.131 H 
ATOM     29  H   SGN d  66      23.023  27.975  54.676  0.00  0.00     0.231 HD
ATOM     30  H   SGN d  66      22.499  30.950  51.917  0.00  0.00     0.089 H 
ATOM     31  H   SGN d  66      20.026  32.229  52.580  0.00  0.00     0.210 HD
ATOM     32  H   SGN d  66      20.881  31.125  54.488  0.00  0.00     0.076 H 
ATOM     33  H   SGN d  66      19.898  29.560  53.337  0.00  0.00     0.140 HD
ATOM     34  O61 IDS d  65      21.936  30.590  48.166  0.00  0.00    -0.646 OA
ATOM     35  O3  IDS d  65      25.469  34.498  48.663  0.00  0.00    -0.390 OA
ATOM     36  C5  IDS d  65      22.455  32.484  49.528  0.00  0.00     0.152 C 
ATOM     37  C6  IDS d  65      21.445  31.544  48.819  0.00  0.00     0.206 C 
ATOM     38  O5  IDS d  65      21.700  33.569  50.150  0.00  0.00    -0.340 OA
ATOM     39  C1  IDS d  65      22.475  34.569  50.861  0.00  0.00     0.161 C 
ATOM     40  O1S IDS d  65      27.023  36.556  50.091  0.00  0.00    -0.572 OA
ATOM     41  C4  IDS d  65      23.596  33.026  48.596  0.00  0.00     0.103 C 
ATOM     42  O4  IDS d  65      23.225  32.480  47.328  0.00  0.00    -0.348 OA
ATOM     43  C2  IDS d  65      23.984  34.616  50.475  0.00  0.00     0.134 C 
ATOM     44  O62 IDS d  65      20.202  31.759  48.946  0.00  0.00    -0.646 OA
ATOM     45  C3  IDS d  65      24.119  34.424  48.998  0.00  0.00     0.094 C 
ATOM     46  O2S IDS d  65      26.670  34.522  51.284  0.00  0.00    -0.572 OA
ATOM     47  O3S IDS d  65      26.496  36.591  52.434  0.00  0.00    -0.572 OA
ATOM     48  O2  IDS d  65      24.529  35.895  50.763  0.00  0.00    -0.244 OA
ATOM     49  S   IDS d  65      26.268  35.909  51.163  0.00  0.00     0.252 S 
ATOM     50  H   IDS d  65      25.572  34.374  47.707  0.00  0.00     0.210 HD
ATOM     51  H   IDS d  65      22.978  31.914  50.267  0.00  0.00     0.104 H 
ATOM     52  H   IDS d  65      21.963  35.508  50.873  0.00  0.00     0.133 H 
ATOM     53  H   IDS d  65      24.627  32.746  48.649  0.00  0.00     0.092 H 
ATOM     54  H   IDS d  65      24.492  33.853  51.027  0.00  0.00     0.097 H 
ATOM     55  H   IDS d  65      23.556  35.178  48.489  0.00  0.00     0.091 H 
ATOM     56  O3S SGN d  62      17.027  34.419  40.875  0.00  0.00    -0.296 OA
ATOM     57  C1  SGN d  62      19.924  35.168  39.108  0.00  0.00     0.150 C 
ATOM     58  S2  SGN d  62      24.011  37.353  35.381  0.00  0.00     0.251 S 
ATOM     59  C5  SGN d  62      20.949  35.869  36.949  0.00  0.00     0.091 C 
ATOM     60  O5  SGN d  62      20.522  36.227  38.295  0.00  0.00    -0.349 OA
ATOM     61  O4S SGN d  62      23.955  38.731  35.022  0.00  0.00    -0.572 OA
ATOM     62  O6  SGN d  62      22.415  36.645  35.297  0.00  0.00    -0.254 OA
ATOM     63  O3  SGN d  62      18.252  33.419  36.264  0.00  0.00    -0.391 OA
ATOM     64  S1  SGN d  62      16.955  33.377  39.877  0.00  0.00     0.156 S 
ATOM     65  O6S SGN d  62      24.563  37.134  36.716  0.00  0.00    -0.572 OA
ATOM     66  O4  SGN d  62      20.216  34.986  34.843  0.00  0.00    -0.348 OA
ATOM     67  C6  SGN d  62      21.516  37.104  36.291  0.00  0.00     0.067 C 
ATOM     68  O5S SGN d  62      24.810  36.622  34.437  0.00  0.00    -0.572 OA
ATOM     69  O1S SGN d  62      16.724  32.077  40.470  0.00  0.00    -0.296 OA
ATOM     70  O2S SGN d  62      15.935  33.739  38.935  0.00  0.00    -0.296 OA
ATOM     71  C2  SGN d  62      18.833  34.485  38.294  0.00  0.00     0.081 C 
ATOM     72  C4  SGN d  62      19.758  35.311  36.153  0.00  0.00     0.095 C 
ATOM     73  N   SGN d  62      18.443  33.289  38.970  0.00  0.00    -0.210 NA
ATOM     74  C3  SGN d  62      19.326  34.046  36.912  0.00  0.00     0.083 C 
ATOM     75  H   SGN d  62      17.713  34.197  41.525  0.00  0.00     0.231 HD
ATOM     76  H   SGN d  62      19.548  35.642  39.990  0.00  0.00     0.131 H 
ATOM     77  H   SGN d  62      21.701  35.109  36.982  0.00  0.00     0.090 H 
ATOM     78  H   SGN d  62      17.995  32.625  36.758  0.00  0.00     0.210 HD
ATOM     79  H   SGN d  62      22.033  37.705  37.010  0.00  0.00     0.080 H 
ATOM     80  H   SGN d  62      20.742  37.710  35.867  0.00  0.00     0.080 H 
ATOM     81  H   SGN d  62      17.436  31.876  41.097  0.00  0.00     0.231 HD
ATOM     82  H   SGN d  62      16.131  34.614  38.566  0.00  0.00     0.231 HD
ATOM     83  H   SGN d  62      18.036  35.190  38.184  0.00  0.00     0.076 H 
ATOM     84  H   SGN d  62      18.942  35.999  36.061  0.00  0.00     0.091 H 
ATOM     85  H   SGN d  62      18.340  32.554  38.270  0.00  0.00     0.140 HD
ATOM     86  H   SGN d  62      20.151  33.368  36.967  0.00  0.00     0.089 H 
ATOM     87  O4  IDS d  63      20.851  34.160  39.530  0.00  0.00    -0.348 OA
ATOM     88  O62 IDS d  63      24.418  33.426  40.105  0.00  0.00    -0.646 OA
ATOM     89  C2  IDS d  63      20.020  31.854  41.440  0.00  0.00     0.134 C 
ATOM     90  O2S IDS d  63      19.042  29.136  40.299  0.00  0.00    -0.572 OA
ATOM     91  O61 IDS d  63      23.754  35.409  40.662  0.00  0.00    -0.646 OA
ATOM     92  C3  IDS d  63      19.859  33.356  41.710  0.00  0.00     0.094 C 
ATOM     93  C1  IDS d  63      21.428  31.380  41.893  0.00  0.00     0.161 C 
ATOM     94  O5  IDS d  63      22.411  32.087  41.094  0.00  0.00    -0.340 OA
ATOM     95  C4  IDS d  63      20.995  34.162  40.945  0.00  0.00     0.103 C 
ATOM     96  C6  IDS d  63      23.603  34.189  40.626  0.00  0.00     0.206 C 
ATOM     97  S   IDS d  63      19.957  29.949  39.508  0.00  0.00     0.252 S 
ATOM     98  O3  IDS d  63      20.015  33.493  43.105  0.00  0.00    -0.390 OA
ATOM     99  C5  IDS d  63      22.383  33.561  41.296  0.00  0.00     0.152 C 
ATOM    100  O2  IDS d  63      19.770  31.612  40.081  0.00  0.00    -0.244 OA
ATOM    101  O1S IDS d  63      19.598  29.978  38.101  0.00  0.00    -0.572 OA
ATOM    102  O3S IDS d  63      21.267  29.396  39.688  0.00  0.00    -0.572 OA
ATOM    103  H   IDS d  63      19.313  31.286  42.008  0.00  0.00     0.097 H 
ATOM    104  H   IDS d  63      18.916  33.735  41.374  0.00  0.00     0.091 H 
ATOM    105  H   IDS d  63      21.613  30.336  41.753  0.00  0.00     0.133 H 
ATOM    106  H   IDS d  63      20.907  35.178  41.272  0.00  0.00     0.092 H 
ATOM    107  H   IDS d  63      20.879  33.139  43.370  0.00  0.00     0.210 HD
ATOM    108  H   IDS d  63      22.482  33.810  42.331  0.00  0.00     0.104 H 
ATOM    109  O4  SGN d  64      21.504  31.689  43.318  0.00  0.00    -0.348 OA
ATOM    110  O6  SGN d  64      22.330  28.240  45.471  0.00  0.00    -0.254 OA
ATOM    111  C3  SGN d  64      23.338  32.741  44.551  0.00  0.00     0.083 C 
ATOM    112  S2  SGN d  64      23.805  27.790  44.576  0.00  0.00     0.251 S 
ATOM    113  C5  SGN d  64      22.233  30.658  45.367  0.00  0.00     0.091 C 
ATOM    114  O1S SGN d  64      27.718  33.749  45.067  0.00  0.00    -0.296 OA
ATOM    115  C2  SGN d  64      24.546  32.419  45.375  0.00  0.00     0.081 C 
ATOM    116  O4S SGN d  64      23.420  27.468  43.227  0.00  0.00    -0.572 OA
ATOM    117  O3S SGN d  64      26.113  34.369  43.434  0.00  0.00    -0.296 OA
ATOM    118  S1  SGN d  64      26.437  34.402  44.848  0.00  0.00     0.156 S 
ATOM    119  O6S SGN d  64      24.767  28.873  44.568  0.00  0.00    -0.572 OA
ATOM    120  O5S SGN d  64      24.394  26.643  45.214  0.00  0.00    -0.572 OA
ATOM    121  O3  SGN d  64      23.791  33.466  43.466  0.00  0.00    -0.391 OA
ATOM    122  C1  SGN d  64      24.110  31.637  46.587  0.00  0.00     0.150 C 
ATOM    123  O2S SGN d  64      26.471  35.767  45.297  0.00  0.00    -0.296 OA
ATOM    124  C4  SGN d  64      22.676  31.412  44.100  0.00  0.00     0.095 C 
ATOM    125  O5  SGN d  64      23.438  30.435  46.157  0.00  0.00    -0.349 OA
ATOM    126  C6  SGN d  64      21.579  29.345  44.990  0.00  0.00     0.067 C 
ATOM    127  N   SGN d  64      25.164  33.644  45.819  0.00  0.00    -0.210 NA
ATOM    128  H   SGN d  64      22.607  33.304  45.093  0.00  0.00     0.089 H 
ATOM    129  H   SGN d  64      21.512  31.217  45.927  0.00  0.00     0.090 H 
ATOM    130  H   SGN d  64      27.670  32.831  44.756  0.00  0.00     0.231 HD
ATOM    131  H   SGN d  64      25.240  31.851  44.791  0.00  0.00     0.076 H 
ATOM    132  H   SGN d  64      26.089  33.448  43.128  0.00  0.00     0.231 HD
ATOM    133  H   SGN d  64      24.453  32.946  42.983  0.00  0.00     0.210 HD
ATOM    134  H   SGN d  64      24.940  31.350  47.197  0.00  0.00     0.131 H 
ATOM    135  H   SGN d  64      27.153  36.251  44.806  0.00  0.00     0.231 HD
ATOM    136  H   SGN d  64      23.369  30.840  43.519  0.00  0.00     0.091 H 
ATOM    137  H   SGN d  64      20.597  29.311  45.412  0.00  0.00     0.080 H 
ATOM    138  H   SGN d  64      21.534  29.285  43.922  0.00  0.00     0.080 H 
ATOM    139  H   SGN d  64      25.568  33.453  46.736  0.00  0.00     0.140 HD
ATOM    140  C1  IDS d  61      19.402  35.528  33.783  0.00  0.00     0.167 C 
ATOM    141  O5  IDS d  61      18.089  34.911  33.826  0.00  0.00    -0.311 OA
ATOM    142  C5  IDS d  61      17.914  33.615  33.360  0.00  0.00     0.147 C 
ATOM    143  C6  IDS d  61      16.487  32.970  33.559  0.00  0.00     0.233 C 
ATOM    144  C2  IDS d  61      20.057  35.165  32.455  0.00  0.00     0.135 C 
ATOM    145  O1S IDS d  61      17.034  36.549  32.337  0.00  0.00    -0.572 OA
ATOM    146  O3S IDS d  61      18.823  38.157  32.177  0.00  0.00    -0.572 OA
ATOM    147  O3  IDS d  61      21.250  33.209  32.836  0.00  0.00    -0.389 OA
ATOM    148  C4  IDS d  61      18.879  32.959  32.657  0.00  0.00    -0.034 C 
ATOM    149  C3  IDS d  61      20.111  33.660  32.193  0.00  0.00     0.086 C 
ATOM    150  O61 IDS d  61      16.257  31.843  33.119  0.00  0.00    -0.642 OA
ATOM    151  O62 IDS d  61      15.581  33.620  34.136  0.00  0.00    -0.642 OA
ATOM    152  O2S IDS d  61      17.579  37.388  30.282  0.00  0.00    -0.572 OA
ATOM    153  S   IDS d  61      18.132  37.041  31.547  0.00  0.00     0.252 S 
ATOM    154  O2  IDS d  61      19.315  35.720  31.355  0.00  0.00    -0.244 OA
ATOM    155  H   IDS d  61      19.310  36.589  33.891  0.00  0.00     0.134 H 
ATOM    156  H   IDS d  61      21.051  35.558  32.524  0.00  0.00     0.097 H 
ATOM    157  H   IDS d  61      22.022  33.693  32.502  0.00  0.00     0.210 HD
ATOM    158  H   IDS d  61      18.755  31.958  32.440  0.00  0.00     0.085 H 
ATOM    159  H   IDS d  61      20.152  33.451  31.145  0.00  0.00     0.093 H 
ENDROOT
TORSDOF 50
ENDMDL
MODEL 85
REMARK VINA RESULT:      -4.8      3.955      7.400
REMARK  0 active torsions:
REMARK  status: ('A' for Active; 'I' for Inactive)
REMARK       I    between atoms: O3S_3  and  S1_55 
REMARK       I    between atoms: O3_4  and  C3_87 
REMARK       I    between atoms: O4_5  and  C1_15 
REMARK       I    between atoms: O4_5  and  C4_57 
REMARK       I    between atoms: O4_7  and  C1_36 
REMARK       I    between atoms: O4_7  and  C4_89 
REMARK       I    between atoms: C4_8  and  O4_18 
REMARK       I    between atoms: C2_9  and  O2_84 
REMARK       I    between atoms: C6_10  and  C5_32 
REMARK       I    between atoms: C6_10  and  O6_102 
REMARK       I    between atoms: O6_11  and  C6_93 
REMARK       I    between atoms: O6_11  and  S2_25 
REMARK       I    between atoms: C1_13  and  O4_74 
REMARK       I    between atoms: C3_14  and  O3_71 
REMARK       I    between atoms: O4_18  and  C1_54 
REMARK       I    between atoms: S2_19  and  O6_39 
REMARK       I    between atoms: O2S_21  and  S1_45 
REMARK       I    between atoms: C5_22  and  C6_23 
REMARK       I    between atoms: C5_24  and  C6_77 
REMARK       I    between atoms: O1_27  and  C1_48 
REMARK       I    between atoms: C5_28  and  C6_30 
REMARK       I    between atoms: C5_29  and  C6_93 
REMARK       I    between atoms: O1S_31  and  S1_44 
REMARK       I    between atoms: C3_33  and  O3_69 
REMARK       I    between atoms: C2_37  and  N_99 
REMARK       I    between atoms: S2_38  and  O6_102 
REMARK       I    between atoms: O6_39  and  C6_77 
REMARK       I    between atoms: C2_40  and  O2_103 
REMARK       I    between atoms: O3S_42  and  S1_44 
REMARK       I    between atoms: S1_44  and  N_99 
REMARK       I    between atoms: S1_44  and  O2S_81 
REMARK       I    between atoms: S1_45  and  N_94 
REMARK       I    between atoms: S1_45  and  O1S_46 
REMARK       I    between atoms: S1_45  and  O3S_58 
REMARK       I    between atoms: O3_52  and  C3_105 
REMARK       I    between atoms: S1_55  and  N_100 
REMARK       I    between atoms: S1_55  and  O1S_79 
REMARK       I    between atoms: S1_55  and  O2S_83 
REMARK       I    between atoms: O3_56  and  C3_64 
REMARK       I    between atoms: C4_60  and  O4_61 
REMARK       I    between atoms: O4_61  and  C1_73 
REMARK       I    between atoms: C6_63  and  C5_80 
REMARK       I    between atoms: C3_65  and  O3_82 
REMARK       I    between atoms: S_67  and  O2_84 
REMARK       I    between atoms: C2_68  and  O2_98 
REMARK       I    between atoms: O4_74  and  C4_97 
REMARK       I    between atoms: C2_85  and  N_94 
REMARK       I    between atoms: C2_95  and  N_100 
REMARK       I    between atoms: O2_98  and  S_104 
REMARK       I    between atoms: S_101  and  O2_103 
ROOT
ATOM      1  O6S SGN d  66      21.323  39.720  57.265  0.00  0.00    -0.572 OA
ATOM      2  C4  SGN d  66      22.782  35.582  55.357  0.00  0.00     0.095 C 
ATOM      3  C6  SGN d  66      24.334  37.338  56.297  0.00  0.00     0.067 C 
ATOM      4  O4  SGN d  66      22.846  36.245  54.008  0.00  0.00    -0.348 OA
ATOM      5  O5S SGN d  66      23.175  40.305  55.892  0.00  0.00    -0.572 OA
ATOM      6  O2S SGN d  66      22.290  31.227  59.000  0.00  0.00    -0.296 OA
ATOM      7  O5  SGN d  66      24.025  35.153  57.432  0.00  0.00    -0.350 OA
ATOM      8  O1  SGN d  66      24.815  33.048  56.574  0.00  0.00    -0.369 OA
ATOM      9  C5  SGN d  66      24.089  35.827  56.128  0.00  0.00     0.091 C 
ATOM     10  S2  SGN d  66      22.274  39.227  56.289  0.00  0.00     0.251 S 
ATOM     11  S1  SGN d  66      22.757  30.830  57.686  0.00  0.00     0.156 S 
ATOM     12  O1S SGN d  66      22.215  29.536  57.297  0.00  0.00    -0.296 OA
ATOM     13  C1  SGN d  66      23.800  33.706  57.357  0.00  0.00     0.147 C 
ATOM     14  O3S SGN d  66      24.207  30.721  57.657  0.00  0.00    -0.296 OA
ATOM     15  C3  SGN d  66      22.476  34.079  55.248  0.00  0.00     0.083 C 
ATOM     16  O3  SGN d  66      21.181  33.901  54.676  0.00  0.00    -0.391 OA
ATOM     17  C2  SGN d  66      22.446  33.476  56.655  0.00  0.00     0.081 C 
ATOM     18  O4S SGN d  66      21.548  38.703  55.140  0.00  0.00    -0.572 OA
ATOM     19  N   SGN d  66      22.146  32.043  56.530  0.00  0.00    -0.210 NA
ATOM     20  O6  SGN d  66      23.257  37.950  57.045  0.00  0.00    -0.254 OA
ATOM     21  H   SGN d  66      21.972  36.022  55.900  0.00  0.00     0.091 H 
ATOM     22  H   SGN d  66      24.393  37.794  55.331  0.00  0.00     0.080 H 
ATOM     23  H   SGN d  66      25.249  37.480  56.833  0.00  0.00     0.080 H 
ATOM     24  H   SGN d  66      21.323  31.293  58.993  0.00  0.00     0.231 HD
ATOM     25  H   SGN d  66      25.680  33.176  56.993  0.00  0.00     0.212 HD
ATOM     26  H   SGN d  66      24.909  35.421  55.574  0.00  0.00     0.090 H 
ATOM     27  H   SGN d  66      21.246  29.576  57.307  0.00  0.00     0.231 HD
ATOM     28  H   SGN d  66      23.821  33.308  58.349  0.00  0.00     0.131 H 
ATOM     29  H   SGN d  66      24.601  31.570  57.913  0.00  0.00     0.231 HD
ATOM     30  H   SGN d  66      23.223  33.608  54.644  0.00  0.00     0.089 H 
ATOM     31  H   SGN d  66      20.518  34.334  55.236  0.00  0.00     0.210 HD
ATOM     32  H   SGN d  66      21.692  33.946  57.252  0.00  0.00     0.076 H 
ATOM     33  H   SGN d  66      21.129  31.964  56.549  0.00  0.00     0.140 HD
ATOM     34  O61 IDS d  65      22.668  32.275  51.118  0.00  0.00    -0.646 OA
ATOM     35  O3  IDS d  65      25.043  36.958  50.465  0.00  0.00    -0.390 OA
ATOM     36  C5  IDS d  65      22.702  34.497  51.998  0.00  0.00     0.152 C 
ATOM     37  C6  IDS d  65      21.959  33.195  51.595  0.00  0.00     0.206 C 
ATOM     38  O5  IDS d  65      21.704  35.466  52.441  0.00  0.00    -0.340 OA
ATOM     39  C1  IDS d  65      22.204  36.765  52.853  0.00  0.00     0.161 C 
ATOM     40  O1S IDS d  65      26.032  39.612  51.284  0.00  0.00    -0.572 OA
ATOM     41  C4  IDS d  65      23.629  35.084  50.876  0.00  0.00     0.103 C 
ATOM     42  O4  IDS d  65      23.382  34.188  49.789  0.00  0.00    -0.348 OA
ATOM     43  C2  IDS d  65      23.634  37.104  52.334  0.00  0.00     0.134 C 
ATOM     44  O62 IDS d  65      20.708  33.111  51.782  0.00  0.00    -0.646 OA
ATOM     45  C3  IDS d  65      23.773  36.622  50.926  0.00  0.00     0.094 C 
ATOM     46  O2S IDS d  65      26.270  37.880  52.906  0.00  0.00    -0.572 OA
ATOM     47  O3S IDS d  65      25.584  40.043  53.603  0.00  0.00    -0.572 OA
ATOM     48  O2  IDS d  65      23.826  38.510  52.297  0.00  0.00    -0.244 OA
ATOM     49  S   IDS d  65      25.509  39.055  52.530  0.00  0.00     0.252 S 
ATOM     50  H   IDS d  65      25.148  36.650  49.551  0.00  0.00     0.210 HD
ATOM     51  H   IDS d  65      23.379  34.261  52.792  0.00  0.00     0.104 H 
ATOM     52  H   IDS d  65      21.461  37.521  52.711  0.00  0.00     0.133 H 
ATOM     53  H   IDS d  65      24.699  35.093  50.896  0.00  0.00     0.092 H 
ATOM     54  H   IDS d  65      24.342  36.641  52.989  0.00  0.00     0.097 H 
ATOM     55  H   IDS d  65      23.014  37.073  50.320  0.00  0.00     0.091 H 
ATOM     56  O3S SGN d  62      16.707  32.975  43.643  0.00  0.00    -0.296 OA
ATOM     57  C1  SGN d  62      19.246  34.012  41.509  0.00  0.00     0.150 C 
ATOM     58  S2  SGN d  62      22.492  36.256  37.061  0.00  0.00     0.251 S 
ATOM     59  C5  SGN d  62      19.984  34.441  39.170  0.00  0.00     0.091 C 
ATOM     60  O5  SGN d  62      19.516  34.975  40.441  0.00  0.00    -0.349 OA
ATOM     61  O4S SGN d  62      22.061  37.456  36.424  0.00  0.00    -0.572 OA
ATOM     62  O6  SGN d  62      21.142  35.167  37.269  0.00  0.00    -0.254 OA
ATOM     63  O3  SGN d  62      18.019  31.298  39.258  0.00  0.00    -0.391 OA
ATOM     64  S1  SGN d  62      16.886  31.750  42.898  0.00  0.00     0.156 S 
ATOM     65  O6S SGN d  62      23.122  36.493  38.358  0.00  0.00    -0.572 OA
ATOM     66  O4  SGN d  62      19.453  32.946  37.370  0.00  0.00    -0.348 OA
ATOM     67  C6  SGN d  62      20.182  35.596  38.218  0.00  0.00     0.067 C 
ATOM     68  O5S SGN d  62      23.430  35.557  36.226  0.00  0.00    -0.572 OA
ATOM     69  O1S SGN d  62      17.027  30.603  43.770  0.00  0.00    -0.296 OA
ATOM     70  O2S SGN d  62      15.779  31.618  41.994  0.00  0.00    -0.296 OA
ATOM     71  C2  SGN d  62      18.354  32.908  40.957  0.00  0.00     0.081 C 
ATOM     72  C4  SGN d  62      18.962  33.433  38.617  0.00  0.00     0.095 C 
ATOM     73  N   SGN d  62      18.317  31.838  41.902  0.00  0.00    -0.210 NA
ATOM     74  C3  SGN d  62      18.905  32.307  39.662  0.00  0.00     0.083 C 
ATOM     75  H   SGN d  62      17.445  33.087  44.262  0.00  0.00     0.231 HD
ATOM     76  H   SGN d  62      18.783  34.562  42.301  0.00  0.00     0.131 H 
ATOM     77  H   SGN d  62      20.913  33.924  39.296  0.00  0.00     0.090 H 
ATOM     78  H   SGN d  62      17.998  30.598  39.929  0.00  0.00     0.210 HD
ATOM     79  H   SGN d  62      20.541  36.455  38.746  0.00  0.00     0.080 H 
ATOM     80  H   SGN d  62      19.263  35.873  37.745  0.00  0.00     0.080 H 
ATOM     81  H   SGN d  62      17.785  30.737  44.361  0.00  0.00     0.231 HD
ATOM     82  H   SGN d  62      15.725  32.407  41.432  0.00  0.00     0.231 HD
ATOM     83  H   SGN d  62      17.395  33.344  40.771  0.00  0.00     0.076 H 
ATOM     84  H   SGN d  62      17.991  33.852  38.454  0.00  0.00     0.091 H 
ATOM     85  H   SGN d  62      18.393  30.962  41.386  0.00  0.00     0.140 HD
ATOM     86  H   SGN d  62      19.883  31.890  39.786  0.00  0.00     0.089 H 
ATOM     87  O4  IDS d  63      20.420  33.394  42.052  0.00  0.00    -0.348 OA
ATOM     88  O62 IDS d  63      24.069  33.740  42.454  0.00  0.00    -0.646 OA
ATOM     89  C2  IDS d  63      20.290  31.450  44.472  0.00  0.00     0.134 C 
ATOM     90  O2S IDS d  63      20.040  28.387  44.022  0.00  0.00    -0.572 OA
ATOM     91  O61 IDS d  63      22.916  35.563  42.635  0.00  0.00    -0.646 OA
ATOM     92  C3  IDS d  63      19.742  32.882  44.431  0.00  0.00     0.094 C 
ATOM     93  C1  IDS d  63      21.786  31.464  44.889  0.00  0.00     0.161 C 
ATOM     94  O5  IDS d  63      22.521  32.197  43.876  0.00  0.00    -0.340 OA
ATOM     95  C4  IDS d  63      20.600  33.755  43.416  0.00  0.00     0.103 C 
ATOM     96  C6  IDS d  63      23.095  34.369  42.871  0.00  0.00     0.206 C 
ATOM     97  S   IDS d  63      20.681  29.204  42.999  0.00  0.00     0.252 S 
ATOM     98  O3  IDS d  63      19.897  33.368  45.747  0.00  0.00    -0.390 OA
ATOM     99  C5  IDS d  63      22.107  33.621  43.763  0.00  0.00     0.152 C 
ATOM    100  O2  IDS d  63      20.075  30.850  43.222  0.00  0.00    -0.244 OA
ATOM    101  O1S IDS d  63      20.288  28.821  41.656  0.00  0.00    -0.572 OA
ATOM    102  O3S IDS d  63      22.097  29.057  43.177  0.00  0.00    -0.572 OA
ATOM    103  H   IDS d  63      19.777  30.865  45.207  0.00  0.00     0.097 H 
ATOM    104  H   IDS d  63      18.723  32.924  44.107  0.00  0.00     0.091 H 
ATOM    105  H   IDS d  63      22.239  30.497  44.957  0.00  0.00     0.133 H 
ATOM    106  H   IDS d  63      20.254  34.762  43.527  0.00  0.00     0.092 H 
ATOM    107  H   IDS d  63      20.830  33.314  46.004  0.00  0.00     0.210 HD
ATOM    108  H   IDS d  63      22.165  34.116  44.710  0.00  0.00     0.104 H 
ATOM    109  O4  SGN d  64      21.818  32.098  46.205  0.00  0.00    -0.348 OA
ATOM    110  O6  SGN d  64      23.596  29.553  48.958  0.00  0.00    -0.254 OA
ATOM    111  C3  SGN d  64      23.340  33.831  47.021  0.00  0.00     0.083 C 
ATOM    112  S2  SGN d  64      25.111  29.300  48.052  0.00  0.00     0.251 S 
ATOM    113  C5  SGN d  64      22.855  31.778  48.353  0.00  0.00     0.091 C 
ATOM    114  O1S SGN d  64      27.305  36.007  46.925  0.00  0.00    -0.296 OA
ATOM    115  C2  SGN d  64      24.614  34.022  47.785  0.00  0.00     0.081 C 
ATOM    116  O4S SGN d  64      24.787  28.594  46.840  0.00  0.00    -0.572 OA
ATOM    117  O3S SGN d  64      25.546  35.812  45.346  0.00  0.00    -0.296 OA
ATOM    118  S1  SGN d  64      25.891  36.247  46.687  0.00  0.00     0.156 S 
ATOM    119  O6S SGN d  64      25.749  30.560  47.730  0.00  0.00    -0.572 OA
ATOM    120  O5S SGN d  64      26.003  28.516  48.864  0.00  0.00    -0.572 OA
ATOM    121  O3  SGN d  64      23.552  34.382  45.772  0.00  0.00    -0.391 OA
ATOM    122  C1  SGN d  64      24.437  33.452  49.169  0.00  0.00     0.150 C 
ATOM    123  O2S SGN d  64      25.573  37.641  46.833  0.00  0.00    -0.296 OA
ATOM    124  C4  SGN d  64      23.044  32.312  46.922  0.00  0.00     0.095 C 
ATOM    125  O5  SGN d  64      24.098  32.053  49.063  0.00  0.00    -0.349 OA
ATOM    126  C6  SGN d  64      22.564  30.293  48.321  0.00  0.00     0.067 C 
ATOM    127  N   SGN d  64      24.895  35.431  47.905  0.00  0.00    -0.210 NA
ATOM    128  H   SGN d  64      22.502  34.299  47.494  0.00  0.00     0.089 H 
ATOM    129  H   SGN d  64      22.028  32.249  48.843  0.00  0.00     0.090 H 
ATOM    130  H   SGN d  64      27.495  35.061  46.821  0.00  0.00     0.231 HD
ATOM    131  H   SGN d  64      25.416  33.531  47.276  0.00  0.00     0.076 H 
ATOM    132  H   SGN d  64      25.761  34.871  45.245  0.00  0.00     0.231 HD
ATOM    133  H   SGN d  64      24.314  33.951  45.353  0.00  0.00     0.210 HD
ATOM    134  H   SGN d  64      25.331  33.531  49.750  0.00  0.00     0.131 H 
ATOM    135  H   SGN d  64      26.086  38.157  46.192  0.00  0.00     0.231 HD
ATOM    136  H   SGN d  64      23.847  31.818  46.416  0.00  0.00     0.091 H 
ATOM    137  H   SGN d  64      21.639  30.107  48.825  0.00  0.00     0.080 H 
ATOM    138  H   SGN d  64      22.506  29.982  47.299  0.00  0.00     0.080 H 
ATOM    139  H   SGN d  64      25.362  35.563  48.802  0.00  0.00     0.140 HD
ATOM    140  C1  IDS d  61      18.493  33.008  36.295  0.00  0.00     0.167 C 
ATOM    141  O5  IDS d  61      17.394  32.105  36.583  0.00  0.00    -0.311 OA
ATOM    142  C5  IDS d  61      17.557  30.736  36.420  0.00  0.00     0.147 C 
ATOM    143  C6  IDS d  61      16.361  29.813  36.875  0.00  0.00     0.233 C 
ATOM    144  C2  IDS d  61      19.183  32.532  35.022  0.00  0.00     0.135 C 
ATOM    145  O1S IDS d  61      15.898  33.040  34.880  0.00  0.00    -0.572 OA
ATOM    146  O3S IDS d  61      17.188  34.969  34.227  0.00  0.00    -0.572 OA
ATOM    147  O3  IDS d  61      20.865  31.081  35.702  0.00  0.00    -0.389 OA
ATOM    148  C4  IDS d  61      18.641  30.204  35.788  0.00  0.00    -0.034 C 
ATOM    149  C3  IDS d  61      19.628  31.071  35.081  0.00  0.00     0.086 C 
ATOM    150  O61 IDS d  61      16.427  28.595  36.705  0.00  0.00    -0.642 OA
ATOM    151  O62 IDS d  61      15.331  30.326  37.378  0.00  0.00    -0.642 OA
ATOM    152  O2S IDS d  61      16.140  33.500  32.655  0.00  0.00    -0.572 OA
ATOM    153  S   IDS d  61      16.801  33.602  33.911  0.00  0.00     0.252 S 
ATOM    154  O2  IDS d  61      18.287  32.616  33.899  0.00  0.00    -0.244 OA
ATOM    155  H   IDS d  61      18.124  34.007  36.185  0.00  0.00     0.134 H 
ATOM    156  H   IDS d  61      20.037  33.169  34.919  0.00  0.00     0.097 H 
ATOM    157  H   IDS d  61      21.470  31.656  35.207  0.00  0.00     0.210 HD
ATOM    158  H   IDS d  61      18.783  29.182  35.800  0.00  0.00     0.085 H 
ATOM    159  H   IDS d  61      19.693  30.647  34.101  0.00  0.00     0.093 H 
ENDROOT
TORSDOF 50
ENDMDL
MODEL 86
REMARK VINA RESULT:      -4.7      4.093      7.598
REMARK  0 active torsions:
REMARK  status: ('A' for Active; 'I' for Inactive)
REMARK       I    between atoms: O3S_3  and  S1_55 
REMARK       I    between atoms: O3_4  and  C3_87 
REMARK       I    between atoms: O4_5  and  C1_15 
REMARK       I    between atoms: O4_5  and  C4_57 
REMARK       I    between atoms: O4_7  and  C1_36 
REMARK       I    between atoms: O4_7  and  C4_89 
REMARK       I    between atoms: C4_8  and  O4_18 
REMARK       I    between atoms: C2_9  and  O2_84 
REMARK       I    between atoms: C6_10  and  C5_32 
REMARK       I    between atoms: C6_10  and  O6_102 
REMARK       I    between atoms: O6_11  and  C6_93 
REMARK       I    between atoms: O6_11  and  S2_25 
REMARK       I    between atoms: C1_13  and  O4_74 
REMARK       I    between atoms: C3_14  and  O3_71 
REMARK       I    between atoms: O4_18  and  C1_54 
REMARK       I    between atoms: S2_19  and  O6_39 
REMARK       I    between atoms: O2S_21  and  S1_45 
REMARK       I    between atoms: C5_22  and  C6_23 
REMARK       I    between atoms: C5_24  and  C6_77 
REMARK       I    between atoms: O1_27  and  C1_48 
REMARK       I    between atoms: C5_28  and  C6_30 
REMARK       I    between atoms: C5_29  and  C6_93 
REMARK       I    between atoms: O1S_31  and  S1_44 
REMARK       I    between atoms: C3_33  and  O3_69 
REMARK       I    between atoms: C2_37  and  N_99 
REMARK       I    between atoms: S2_38  and  O6_102 
REMARK       I    between atoms: O6_39  and  C6_77 
REMARK       I    between atoms: C2_40  and  O2_103 
REMARK       I    between atoms: O3S_42  and  S1_44 
REMARK       I    between atoms: S1_44  and  N_99 
REMARK       I    between atoms: S1_44  and  O2S_81 
REMARK       I    between atoms: S1_45  and  N_94 
REMARK       I    between atoms: S1_45  and  O1S_46 
REMARK       I    between atoms: S1_45  and  O3S_58 
REMARK       I    between atoms: O3_52  and  C3_105 
REMARK       I    between atoms: S1_55  and  N_100 
REMARK       I    between atoms: S1_55  and  O1S_79 
REMARK       I    between atoms: S1_55  and  O2S_83 
REMARK       I    between atoms: O3_56  and  C3_64 
REMARK       I    between atoms: C4_60  and  O4_61 
REMARK       I    between atoms: O4_61  and  C1_73 
REMARK       I    between atoms: C6_63  and  C5_80 
REMARK       I    between atoms: C3_65  and  O3_82 
REMARK       I    between atoms: S_67  and  O2_84 
REMARK       I    between atoms: C2_68  and  O2_98 
REMARK       I    between atoms: O4_74  and  C4_97 
REMARK       I    between atoms: C2_85  and  N_94 
REMARK       I    between atoms: C2_95  and  N_100 
REMARK       I    between atoms: O2_98  and  S_104 
REMARK       I    between atoms: S_101  and  O2_103 
ROOT
ATOM      1  O6S SGN d  66      12.436  37.674  51.178  0.00  0.00    -0.572 OA
ATOM      2  C4  SGN d  66      14.782  33.543  50.604  0.00  0.00     0.095 C 
ATOM      3  C6  SGN d  66      15.351  35.268  52.357  0.00  0.00     0.067 C 
ATOM      4  O4  SGN d  66      15.708  34.223  49.632  0.00  0.00    -0.348 OA
ATOM      5  O5S SGN d  66      14.736  38.254  51.348  0.00  0.00    -0.572 OA
ATOM      6  O2S SGN d  66      12.037  29.148  52.976  0.00  0.00    -0.296 OA
ATOM      7  O5  SGN d  66      14.378  33.073  52.981  0.00  0.00    -0.350 OA
ATOM      8  O1  SGN d  66      15.534  30.970  52.806  0.00  0.00    -0.369 OA
ATOM      9  C5  SGN d  66      15.274  33.763  52.043  0.00  0.00     0.091 C 
ATOM     10  S2  SGN d  66      13.793  37.182  51.045  0.00  0.00     0.251 S 
ATOM     11  S1  SGN d  66      13.245  28.762  52.274  0.00  0.00     0.156 S 
ATOM     12  O1S SGN d  66      13.086  27.480  51.604  0.00  0.00    -0.296 OA
ATOM     13  C1  SGN d  66      14.254  31.630  52.753  0.00  0.00     0.147 C 
ATOM     14  O3S SGN d  66      14.367  28.637  53.193  0.00  0.00    -0.296 OA
ATOM     15  C3  SGN d  66      14.619  32.045  50.296  0.00  0.00     0.083 C 
ATOM     16  O3  SGN d  66      14.007  31.890  49.016  0.00  0.00    -0.391 OA
ATOM     17  C2  SGN d  66      13.682  31.425  51.335  0.00  0.00     0.081 C 
ATOM     18  O4S SGN d  66      13.988  36.681  49.691  0.00  0.00    -0.572 OA
ATOM     19  N   SGN d  66      13.534  29.997  51.021  0.00  0.00    -0.210 NA
ATOM     20  O6  SGN d  66      14.047  35.884  52.236  0.00  0.00    -0.254 OA
ATOM     21  H   SGN d  66      13.814  33.986  50.498  0.00  0.00     0.091 H 
ATOM     22  H   SGN d  66      16.025  35.736  51.670  0.00  0.00     0.080 H 
ATOM     23  H   SGN d  66      15.698  35.393  53.362  0.00  0.00     0.080 H 
ATOM     24  H   SGN d  66      11.306  29.226  52.344  0.00  0.00     0.231 HD
ATOM     25  H   SGN d  66      15.919  31.082  53.689  0.00  0.00     0.212 HD
ATOM     26  H   SGN d  66      16.258  33.354  52.148  0.00  0.00     0.090 H 
ATOM     27  H   SGN d  66      12.343  27.531  50.982  0.00  0.00     0.231 HD
ATOM     28  H   SGN d  66      13.625  31.219  53.514  0.00  0.00     0.131 H 
ATOM     29  H   SGN d  66      14.500  29.477  53.658  0.00  0.00     0.231 HD
ATOM     30  H   SGN d  66      15.579  31.573  50.314  0.00  0.00     0.089 H 
ATOM     31  H   SGN d  66      13.140  32.324  49.019  0.00  0.00     0.210 HD
ATOM     32  H   SGN d  66      12.721  31.897  51.307  0.00  0.00     0.076 H 
ATOM     33  H   SGN d  66      12.749  29.930  50.372  0.00  0.00     0.140 HD
ATOM     34  O61 IDS d  65      17.449  30.292  47.251  0.00  0.00    -0.646 OA
ATOM     35  O3  IDS d  65      19.681  34.955  48.381  0.00  0.00    -0.390 OA
ATOM     36  C5  IDS d  65      16.904  32.502  47.981  0.00  0.00     0.152 C 
ATOM     37  C6  IDS d  65      16.601  31.214  47.170  0.00  0.00     0.206 C 
ATOM     38  O5  IDS d  65      15.858  33.478  47.685  0.00  0.00    -0.340 OA
ATOM     39  C1  IDS d  65      15.971  34.765  48.347  0.00  0.00     0.161 C 
ATOM     40  O1S IDS d  65      19.902  37.586  49.692  0.00  0.00    -0.572 OA
ATOM     41  C4  IDS d  65      18.338  33.092  47.741  0.00  0.00     0.103 C 
ATOM     42  O4  IDS d  65      18.856  32.213  46.739  0.00  0.00    -0.348 OA
ATOM     43  C2  IDS d  65      17.395  35.094  48.887  0.00  0.00     0.134 C 
ATOM     44  O62 IDS d  65      15.528  31.143  46.497  0.00  0.00    -0.646 OA
ATOM     45  C3  IDS d  65      18.416  34.628  47.899  0.00  0.00     0.094 C 
ATOM     46  O2S IDS d  65      19.027  35.831  51.049  0.00  0.00    -0.572 OA
ATOM     47  O3S IDS d  65      18.055  37.993  51.170  0.00  0.00    -0.572 OA
ATOM     48  O2  IDS d  65      17.567  36.497  49.009  0.00  0.00    -0.244 OA
ATOM     49  S   IDS d  65      18.694  37.020  50.289  0.00  0.00     0.252 S 
ATOM     50  H   IDS d  65      20.355  34.657  47.749  0.00  0.00     0.210 HD
ATOM     51  H   IDS d  65      16.902  32.248  49.020  0.00  0.00     0.104 H 
ATOM     52  H   IDS d  65      15.499  35.531  47.769  0.00  0.00     0.133 H 
ATOM     53  H   IDS d  65      19.138  33.089  48.452  0.00  0.00     0.092 H 
ATOM     54  H   IDS d  65      17.508  34.614  49.837  0.00  0.00     0.097 H 
ATOM     55  H   IDS d  65      18.234  35.095  46.954  0.00  0.00     0.091 H 
ATOM     56  O3S SGN d  62      17.778  31.158  37.710  0.00  0.00    -0.296 OA
ATOM     57  C1  SGN d  62      21.095  32.191  37.757  0.00  0.00     0.150 C 
ATOM     58  S2  SGN d  62      26.456  34.454  36.526  0.00  0.00     0.251 S 
ATOM     59  C5  SGN d  62      23.177  32.642  36.467  0.00  0.00     0.091 C 
ATOM     60  O5  SGN d  62      21.996  33.165  37.138  0.00  0.00    -0.349 OA
ATOM     61  O4S SGN d  62      26.542  35.667  35.783  0.00  0.00    -0.572 OA
ATOM     62  O6  SGN d  62      25.294  33.378  35.787  0.00  0.00    -0.254 OA
ATOM     63  O3  SGN d  62      21.625  29.521  35.202  0.00  0.00    -0.391 OA
ATOM     64  S1  SGN d  62      18.398  29.941  37.239  0.00  0.00     0.156 S 
ATOM     65  O6S SGN d  62      26.091  34.667  37.925  0.00  0.00    -0.572 OA
ATOM     66  O4  SGN d  62      23.942  31.177  34.728  0.00  0.00    -0.348 OA
ATOM     67  C6  SGN d  62      23.948  33.807  35.892  0.00  0.00     0.067 C 
ATOM     68  O5S SGN d  62      27.711  33.754  36.489  0.00  0.00    -0.572 OA
ATOM     69  O1S SGN d  62      17.938  28.781  37.973  0.00  0.00    -0.296 OA
ATOM     70  O2S SGN d  62      18.144  29.833  35.831  0.00  0.00    -0.296 OA
ATOM     71  C2  SGN d  62      20.775  31.106  36.739  0.00  0.00     0.081 C 
ATOM     72  C4  SGN d  62      22.759  31.653  35.365  0.00  0.00     0.095 C 
ATOM     73  N   SGN d  62      20.132  30.024  37.414  0.00  0.00    -0.210 NA
ATOM     74  C3  SGN d  62      22.036  30.514  36.102  0.00  0.00     0.083 C 
ATOM     75  H   SGN d  62      17.937  31.253  38.662  0.00  0.00     0.231 HD
ATOM     76  H   SGN d  62      20.229  32.738  38.067  0.00  0.00     0.131 H 
ATOM     77  H   SGN d  62      23.800  32.113  37.157  0.00  0.00     0.090 H 
ATOM     78  H   SGN d  62      21.172  28.813  35.686  0.00  0.00     0.210 HD
ATOM     79  H   SGN d  62      23.877  34.655  36.541  0.00  0.00     0.080 H 
ATOM     80  H   SGN d  62      23.556  34.101  34.940  0.00  0.00     0.080 H 
ATOM     81  H   SGN d  62      18.129  28.899  38.917  0.00  0.00     0.231 HD
ATOM     82  H   SGN d  62      18.469  30.629  35.382  0.00  0.00     0.231 HD
ATOM     83  H   SGN d  62      20.168  31.555  35.981  0.00  0.00     0.076 H 
ATOM     84  H   SGN d  62      22.128  32.086  34.617  0.00  0.00     0.091 H 
ATOM     85  H   SGN d  62      20.526  29.154  37.056  0.00  0.00     0.140 HD
ATOM     86  H   SGN d  62      22.698  30.085  36.825  0.00  0.00     0.089 H 
ATOM     87  O4  IDS d  63      21.634  31.554  38.922  0.00  0.00    -0.348 OA
ATOM     88  O62 IDS d  63      24.147  31.850  41.605  0.00  0.00    -0.646 OA
ATOM     89  C2  IDS d  63      19.961  29.580  40.642  0.00  0.00     0.134 C 
ATOM     90  O2S IDS d  63      20.062  26.527  40.085  0.00  0.00    -0.572 OA
ATOM     91  O61 IDS d  63      23.154  33.684  41.025  0.00  0.00    -0.646 OA
ATOM     92  C3  IDS d  63      19.572  31.019  40.280  0.00  0.00     0.094 C 
ATOM     93  C1  IDS d  63      20.827  29.571  41.932  0.00  0.00     0.161 C 
ATOM     94  O5  IDS d  63      22.045  30.308  41.652  0.00  0.00    -0.340 OA
ATOM     95  C4  IDS d  63      20.884  31.894  40.081  0.00  0.00     0.103 C 
ATOM     96  C6  IDS d  63      23.135  32.486  41.300  0.00  0.00     0.206 C 
ATOM     97  S   IDS d  63      21.214  27.348  39.738  0.00  0.00     0.252 S 
ATOM     98  O3  IDS d  63      18.835  31.486  41.388  0.00  0.00    -0.390 OA
ATOM     99  C5  IDS d  63      21.805  31.739  41.322  0.00  0.00     0.152 C 
ATOM    100  O2  IDS d  63      20.610  28.999  39.542  0.00  0.00    -0.244 OA
ATOM    101  O1S IDS d  63      21.788  26.987  38.455  0.00  0.00    -0.572 OA
ATOM    102  O3S IDS d  63      22.174  27.182  40.791  0.00  0.00    -0.572 OA
ATOM    103  H   IDS d  63      19.093  28.992  40.857  0.00  0.00     0.097 H 
ATOM    104  H   IDS d  63      19.009  31.077  39.372  0.00  0.00     0.091 H 
ATOM    105  H   IDS d  63      21.126  28.598  42.261  0.00  0.00     0.133 H 
ATOM    106  H   IDS d  63      20.550  32.904  39.958  0.00  0.00     0.092 H 
ATOM    107  H   IDS d  63      19.378  31.418  42.189  0.00  0.00     0.210 HD
ATOM    108  H   IDS d  63      21.234  32.220  42.088  0.00  0.00     0.104 H 
ATOM    109  O4  SGN d  64      19.997  30.188  42.963  0.00  0.00    -0.348 OA
ATOM    110  O6  SGN d  64      19.556  27.587  46.166  0.00  0.00    -0.254 OA
ATOM    111  C3  SGN d  64      20.623  31.892  44.603  0.00  0.00     0.083 C 
ATOM    112  S2  SGN d  64      21.296  27.328  46.459  0.00  0.00     0.251 S 
ATOM    113  C5  SGN d  64      19.388  29.828  45.264  0.00  0.00     0.091 C 
ATOM    114  O1S SGN d  64      23.700  34.022  47.145  0.00  0.00    -0.296 OA
ATOM    115  C2  SGN d  64      21.094  32.058  46.014  0.00  0.00     0.081 C 
ATOM    116  O4S SGN d  64      21.837  26.641  45.315  0.00  0.00    -0.572 OA
ATOM    117  O3S SGN d  64      23.391  33.868  44.798  0.00  0.00    -0.296 OA
ATOM    118  S1  SGN d  64      22.781  34.282  46.049  0.00  0.00     0.156 S 
ATOM    119  O6S SGN d  64      21.991  28.584  46.650  0.00  0.00    -0.572 OA
ATOM    120  O5S SGN d  64      21.446  26.523  47.641  0.00  0.00    -0.572 OA
ATOM    121  O3  SGN d  64      21.597  32.456  43.801  0.00  0.00    -0.391 OA
ATOM    122  C1  SGN d  64      20.060  31.473  46.941  0.00  0.00     0.150 C 
ATOM    123  O2S SGN d  64      22.446  35.677  45.977  0.00  0.00    -0.296 OA
ATOM    124  C4  SGN d  64      20.462  30.378  44.308  0.00  0.00     0.095 C 
ATOM    125  O5  SGN d  64      19.870  30.079  46.616  0.00  0.00    -0.349 OA
ATOM    126  C6  SGN d  64      19.186  28.347  45.024  0.00  0.00     0.067 C 
ATOM    127  N   SGN d  64      21.232  33.463  46.312  0.00  0.00    -0.210 NA
ATOM    128  H   SGN d  64      19.680  32.364  44.425  0.00  0.00     0.089 H 
ATOM    129  H   SGN d  64      18.441  30.302  45.107  0.00  0.00     0.090 H 
ATOM    130  H   SGN d  64      23.911  33.076  47.173  0.00  0.00     0.231 HD
ATOM    131  H   SGN d  64      22.035  31.565  46.140  0.00  0.00     0.076 H 
ATOM    132  H   SGN d  64      23.618  32.926  44.845  0.00  0.00     0.231 HD
ATOM    133  H   SGN d  64      22.448  32.022  43.970  0.00  0.00     0.210 HD
ATOM    134  H   SGN d  64      20.362  31.534  47.965  0.00  0.00     0.131 H 
ATOM    135  H   SGN d  64      23.252  36.196  45.832  0.00  0.00     0.231 HD
ATOM    136  H   SGN d  64      21.401  29.881  44.437  0.00  0.00     0.091 H 
ATOM    137  H   SGN d  64      18.156  28.166  44.803  0.00  0.00     0.080 H 
ATOM    138  H   SGN d  64      19.806  28.050  44.204  0.00  0.00     0.080 H 
ATOM    139  H   SGN d  64      21.003  33.577  47.300  0.00  0.00     0.140 HD
ATOM    140  C1  IDS d  61      23.912  31.264  33.288  0.00  0.00     0.167 C 
ATOM    141  O5  IDS d  61      22.888  30.370  32.777  0.00  0.00    -0.311 OA
ATOM    142  C5  IDS d  61      23.118  29.001  32.736  0.00  0.00     0.147 C 
ATOM    143  C6  IDS d  61      21.913  28.087  32.288  0.00  0.00     0.233 C 
ATOM    144  C2  IDS d  61      25.263  30.796  32.761  0.00  0.00     0.135 C 
ATOM    145  O1S IDS d  61      22.860  31.344  30.527  0.00  0.00    -0.572 OA
ATOM    146  O3S IDS d  61      24.266  33.266  30.903  0.00  0.00    -0.572 OA
ATOM    147  O3  IDS d  61      26.099  29.317  34.345  0.00  0.00    -0.389 OA
ATOM    148  C4  IDS d  61      24.352  28.465  32.951  0.00  0.00    -0.034 C 
ATOM    149  C3  IDS d  61      25.562  29.329  33.070  0.00  0.00     0.086 C 
ATOM    150  O61 IDS d  61      22.072  26.871  32.180  0.00  0.00    -0.642 OA
ATOM    151  O62 IDS d  61      20.803  28.605  32.009  0.00  0.00    -0.642 OA
ATOM    152  O2S IDS d  61      24.491  31.830  29.002  0.00  0.00    -0.572 OA
ATOM    153  S   IDS d  61      24.177  31.908  30.388  0.00  0.00     0.252 S 
ATOM    154  O2  IDS d  61      25.313  30.904  31.328  0.00  0.00    -0.244 OA
ATOM    155  H   IDS d  61      23.704  32.268  32.983  0.00  0.00     0.134 H 
ATOM    156  H   IDS d  61      25.980  31.424  33.249  0.00  0.00     0.097 H 
ATOM    157  H   IDS d  61      26.881  29.890  34.373  0.00  0.00     0.210 HD
ATOM    158  H   IDS d  61      24.452  27.441  33.035  0.00  0.00     0.085 H 
ATOM    159  H   IDS d  61      26.248  28.916  32.361  0.00  0.00     0.093 H 
ENDROOT
TORSDOF 50
ENDMDL
MODEL 87
REMARK VINA RESULT:      -4.7      3.044     16.091
REMARK  0 active torsions:
REMARK  status: ('A' for Active; 'I' for Inactive)
REMARK       I    between atoms: O3S_3  and  S1_55 
REMARK       I    between atoms: O3_4  and  C3_87 
REMARK       I    between atoms: O4_5  and  C1_15 
REMARK       I    between atoms: O4_5  and  C4_57 
REMARK       I    between atoms: O4_7  and  C1_36 
REMARK       I    between atoms: O4_7  and  C4_89 
REMARK       I    between atoms: C4_8  and  O4_18 
REMARK       I    between atoms: C2_9  and  O2_84 
REMARK       I    between atoms: C6_10  and  C5_32 
REMARK       I    between atoms: C6_10  and  O6_102 
REMARK       I    between atoms: O6_11  and  C6_93 
REMARK       I    between atoms: O6_11  and  S2_25 
REMARK       I    between atoms: C1_13  and  O4_74 
REMARK       I    between atoms: C3_14  and  O3_71 
REMARK       I    between atoms: O4_18  and  C1_54 
REMARK       I    between atoms: S2_19  and  O6_39 
REMARK       I    between atoms: O2S_21  and  S1_45 
REMARK       I    between atoms: C5_22  and  C6_23 
REMARK       I    between atoms: C5_24  and  C6_77 
REMARK       I    between atoms: O1_27  and  C1_48 
REMARK       I    between atoms: C5_28  and  C6_30 
REMARK       I    between atoms: C5_29  and  C6_93 
REMARK       I    between atoms: O1S_31  and  S1_44 
REMARK       I    between atoms: C3_33  and  O3_69 
REMARK       I    between atoms: C2_37  and  N_99 
REMARK       I    between atoms: S2_38  and  O6_102 
REMARK       I    between atoms: O6_39  and  C6_77 
REMARK       I    between atoms: C2_40  and  O2_103 
REMARK       I    between atoms: O3S_42  and  S1_44 
REMARK       I    between atoms: S1_44  and  N_99 
REMARK       I    between atoms: S1_44  and  O2S_81 
REMARK       I    between atoms: S1_45  and  N_94 
REMARK       I    between atoms: S1_45  and  O1S_46 
REMARK       I    between atoms: S1_45  and  O3S_58 
REMARK       I    between atoms: O3_52  and  C3_105 
REMARK       I    between atoms: S1_55  and  N_100 
REMARK       I    between atoms: S1_55  and  O1S_79 
REMARK       I    between atoms: S1_55  and  O2S_83 
REMARK       I    between atoms: O3_56  and  C3_64 
REMARK       I    between atoms: C4_60  and  O4_61 
REMARK       I    between atoms: O4_61  and  C1_73 
REMARK       I    between atoms: C6_63  and  C5_80 
REMARK       I    between atoms: C3_65  and  O3_82 
REMARK       I    between atoms: S_67  and  O2_84 
REMARK       I    between atoms: C2_68  and  O2_98 
REMARK       I    between atoms: O4_74  and  C4_97 
REMARK       I    between atoms: C2_85  and  N_94 
REMARK       I    between atoms: C2_95  and  N_100 
REMARK       I    between atoms: O2_98  and  S_104 
REMARK       I    between atoms: S_101  and  O2_103 
ROOT
ATOM      1  O6S SGN d  66      19.411  36.415  30.932  0.00  0.00    -0.572 OA
ATOM      2  C4  SGN d  66      21.232  33.870  34.552  0.00  0.00     0.095 C 
ATOM      3  C6  SGN d  66      19.512  32.995  32.924  0.00  0.00     0.067 C 
ATOM      4  O4  SGN d  66      20.132  34.380  35.442  0.00  0.00    -0.348 OA
ATOM      5  O5S SGN d  66      17.539  35.313  31.900  0.00  0.00    -0.572 OA
ATOM      6  O2S SGN d  66      26.374  31.740  33.327  0.00  0.00    -0.296 OA
ATOM      7  O5  SGN d  66      21.839  32.134  32.924  0.00  0.00    -0.350 OA
ATOM      8  O1  SGN d  66      22.789  30.772  34.665  0.00  0.00    -0.369 OA
ATOM      9  C5  SGN d  66      20.750  32.639  33.769  0.00  0.00     0.091 C 
ATOM     10  S2  SGN d  66      18.967  35.589  32.036  0.00  0.00     0.251 S 
ATOM     11  S1  SGN d  66      25.940  31.456  34.681  0.00  0.00     0.156 S 
ATOM     12  O1S SGN d  66      27.053  31.500  35.618  0.00  0.00    -0.296 OA
ATOM     13  C1  SGN d  66      23.055  31.766  33.656  0.00  0.00     0.147 C 
ATOM     14  O3S SGN d  66      25.345  30.131  34.773  0.00  0.00    -0.296 OA
ATOM     15  C3  SGN d  66      22.516  33.558  35.339  0.00  0.00     0.083 C 
ATOM     16  O3  SGN d  66      23.021  34.763  35.915  0.00  0.00    -0.391 OA
ATOM     17  C2  SGN d  66      23.576  33.030  34.370  0.00  0.00     0.081 C 
ATOM     18  O4S SGN d  66      19.249  36.275  33.289  0.00  0.00    -0.572 OA
ATOM     19  N   SGN d  66      24.795  32.744  35.139  0.00  0.00    -0.210 NA
ATOM     20  O6  SGN d  66      19.828  34.033  31.966  0.00  0.00    -0.254 OA
ATOM     21  H   SGN d  66      21.479  34.647  33.858  0.00  0.00     0.091 H 
ATOM     22  H   SGN d  66      18.733  33.340  33.571  0.00  0.00     0.080 H 
ATOM     23  H   SGN d  66      19.195  32.122  32.393  0.00  0.00     0.080 H 
ATOM     24  H   SGN d  66      26.765  32.626  33.292  0.00  0.00     0.231 HD
ATOM     25  H   SGN d  66      22.460  29.963  34.244  0.00  0.00     0.212 HD
ATOM     26  H   SGN d  66      20.467  31.870  34.457  0.00  0.00     0.090 H 
ATOM     27  H   SGN d  66      27.472  32.374  35.580  0.00  0.00     0.231 HD
ATOM     28  H   SGN d  66      23.762  31.366  32.960  0.00  0.00     0.131 H 
ATOM     29  H   SGN d  66      24.598  30.068  34.158  0.00  0.00     0.231 HD
ATOM     30  H   SGN d  66      22.299  32.839  36.101  0.00  0.00     0.089 H 
ATOM     31  H   SGN d  66      23.211  35.402  35.211  0.00  0.00     0.210 HD
ATOM     32  H   SGN d  66      23.794  33.757  33.615  0.00  0.00     0.076 H 
ATOM     33  H   SGN d  66      25.333  33.610  35.148  0.00  0.00     0.140 HD
ATOM     34  O61 IDS d  65      22.177  33.574  39.838  0.00  0.00    -0.646 OA
ATOM     35  O3  IDS d  65      17.120  33.503  38.279  0.00  0.00    -0.390 OA
ATOM     36  C5  IDS d  65      20.764  34.246  38.031  0.00  0.00     0.152 C 
ATOM     37  C6  IDS d  65      21.970  34.469  38.981  0.00  0.00     0.206 C 
ATOM     38  O5  IDS d  65      20.638  35.427  37.180  0.00  0.00    -0.340 OA
ATOM     39  C1  IDS d  65      19.550  35.416  36.220  0.00  0.00     0.161 C 
ATOM     40  O1S IDS d  65      14.902  33.517  36.338  0.00  0.00    -0.572 OA
ATOM     41  C4  IDS d  65      19.418  33.910  38.765  0.00  0.00     0.103 C 
ATOM     42  O4  IDS d  65      19.799  34.008  40.140  0.00  0.00    -0.348 OA
ATOM     43  C2  IDS d  65      18.412  34.399  36.539  0.00  0.00     0.134 C 
ATOM     44  O62 IDS d  65      22.689  35.504  38.841  0.00  0.00    -0.646 OA
ATOM     45  C3  IDS d  65      18.158  34.393  38.012  0.00  0.00     0.094 C 
ATOM     46  O2S IDS d  65      16.817  32.247  35.702  0.00  0.00    -0.572 OA
ATOM     47  O3S IDS d  65      15.708  33.576  34.077  0.00  0.00    -0.572 OA
ATOM     48  O2  IDS d  65      17.199  34.805  35.924  0.00  0.00    -0.244 OA
ATOM     49  S   IDS d  65      16.087  33.481  35.484  0.00  0.00     0.252 S 
ATOM     50  H   IDS d  65      16.944  33.489  39.233  0.00  0.00     0.210 HD
ATOM     51  H   IDS d  65      20.960  33.375  37.444  0.00  0.00     0.104 H 
ATOM     52  H   IDS d  65      19.238  36.413  35.988  0.00  0.00     0.133 H 
ATOM     53  H   IDS d  65      18.926  32.960  38.754  0.00  0.00     0.092 H 
ATOM     54  H   IDS d  65      18.717  33.439  36.180  0.00  0.00     0.097 H 
ATOM     55  H   IDS d  65      17.906  35.383  38.333  0.00  0.00     0.091 H 
ATOM     56  O3S SGN d  62      21.340  40.803  46.079  0.00  0.00    -0.296 OA
ATOM     57  C1  SGN d  62      18.487  39.441  47.520  0.00  0.00     0.150 C 
ATOM     58  S2  SGN d  62      13.415  38.452  50.463  0.00  0.00     0.251 S 
ATOM     59  C5  SGN d  62      16.859  39.477  49.404  0.00  0.00     0.091 C 
ATOM     60  O5  SGN d  62      17.168  39.827  48.025  0.00  0.00    -0.349 OA
ATOM     61  O4S SGN d  62      12.409  39.462  50.469  0.00  0.00    -0.572 OA
ATOM     62  O6  SGN d  62      14.981  39.165  50.767  0.00  0.00    -0.254 OA
ATOM     63  O3  SGN d  62      20.281  39.931  50.757  0.00  0.00    -0.391 OA
ATOM     64  S1  SGN d  62      21.922  40.314  47.307  0.00  0.00     0.156 S 
ATOM     65  O6S SGN d  62      13.463  37.703  49.211  0.00  0.00    -0.572 OA
ATOM     66  O4  SGN d  62      17.554  39.744  51.685  0.00  0.00    -0.348 OA
ATOM     67  C6  SGN d  62      15.469  39.980  49.717  0.00  0.00     0.067 C 
ATOM     68  O5S SGN d  62      13.196  37.522  51.537  0.00  0.00    -0.572 OA
ATOM     69  O1S SGN d  62      23.116  39.531  47.065  0.00  0.00    -0.296 OA
ATOM     70  O2S SGN d  62      22.170  41.442  48.158  0.00  0.00    -0.296 OA
ATOM     71  C2  SGN d  62      19.545  39.909  48.509  0.00  0.00     0.081 C 
ATOM     72  C4  SGN d  62      17.901  40.099  50.348  0.00  0.00     0.095 C 
ATOM     73  N   SGN d  62      20.790  39.299  48.165  0.00  0.00    -0.210 NA
ATOM     74  C3  SGN d  62      19.240  39.463  49.942  0.00  0.00     0.083 C 
ATOM     75  H   SGN d  62      21.163  40.055  45.485  0.00  0.00     0.231 HD
ATOM     76  H   SGN d  62      18.586  39.899  46.558  0.00  0.00     0.131 H 
ATOM     77  H   SGN d  62      16.890  38.417  49.541  0.00  0.00     0.090 H 
ATOM     78  H   SGN d  62      21.116  39.518  50.484  0.00  0.00     0.210 HD
ATOM     79  H   SGN d  62      14.840  39.892  48.856  0.00  0.00     0.080 H 
ATOM     80  H   SGN d  62      15.483  41.012  49.998  0.00  0.00     0.080 H 
ATOM     81  H   SGN d  62      22.901  38.782  46.487  0.00  0.00     0.231 HD
ATOM     82  H   SGN d  62      21.345  41.934  48.291  0.00  0.00     0.231 HD
ATOM     83  H   SGN d  62      19.568  40.977  48.462  0.00  0.00     0.076 H 
ATOM     84  H   SGN d  62      17.952  41.167  50.289  0.00  0.00     0.091 H 
ATOM     85  H   SGN d  62      21.237  38.992  49.029  0.00  0.00     0.140 HD
ATOM     86  H   SGN d  62      19.169  38.399  50.034  0.00  0.00     0.089 H 
ATOM     87  O4  IDS d  63      18.653  38.029  47.336  0.00  0.00    -0.348 OA
ATOM     88  O62 IDS d  63      16.861  34.841  46.860  0.00  0.00    -0.646 OA
ATOM     89  C2  IDS d  63      21.229  36.822  46.087  0.00  0.00     0.134 C 
ATOM     90  O2S IDS d  63      23.579  35.906  47.897  0.00  0.00    -0.572 OA
ATOM     91  O61 IDS d  63      16.027  36.561  45.845  0.00  0.00    -0.646 OA
ATOM     92  C3  IDS d  63      20.334  37.897  45.455  0.00  0.00     0.094 C 
ATOM     93  C1  IDS d  63      20.697  35.408  45.727  0.00  0.00     0.161 C 
ATOM     94  O5  IDS d  63      19.369  35.276  46.295  0.00  0.00    -0.340 OA
ATOM     95  C4  IDS d  63      18.839  37.713  45.962  0.00  0.00     0.103 C 
ATOM     96  C6  IDS d  63      16.983  35.868  46.189  0.00  0.00     0.206 C 
ATOM     97  S   IDS d  63      22.225  35.893  48.435  0.00  0.00     0.252 S 
ATOM     98  O3  IDS d  63      20.413  37.665  44.066  0.00  0.00    -0.390 OA
ATOM     99  C5  IDS d  63      18.390  36.245  45.732  0.00  0.00     0.152 C 
ATOM    100  O2  IDS d  63      21.294  37.048  47.470  0.00  0.00    -0.244 OA
ATOM    101  O1S IDS d  63      22.164  36.385  49.799  0.00  0.00    -0.572 OA
ATOM    102  O3S IDS d  63      21.760  34.539  48.361  0.00  0.00    -0.572 OA
ATOM    103  H   IDS d  63      22.225  36.879  45.699  0.00  0.00     0.097 H 
ATOM    104  H   IDS d  63      20.639  38.890  45.713  0.00  0.00     0.091 H 
ATOM    105  H   IDS d  63      21.280  34.600  46.118  0.00  0.00     0.133 H 
ATOM    106  H   IDS d  63      18.248  38.403  45.395  0.00  0.00     0.092 H 
ATOM    107  H   IDS d  63      20.129  36.757  43.873  0.00  0.00     0.210 HD
ATOM    108  H   IDS d  63      18.356  36.183  44.665  0.00  0.00     0.104 H 
ATOM    109  O4  SGN d  64      20.716  35.344  44.267  0.00  0.00    -0.348 OA
ATOM    110  O6  SGN d  64      23.022  32.128  43.021  0.00  0.00    -0.254 OA
ATOM    111  C3  SGN d  64      18.977  34.514  42.759  0.00  0.00     0.083 C 
ATOM    112  S2  SGN d  64      22.156  30.882  43.957  0.00  0.00     0.251 S 
ATOM    113  C5  SGN d  64      21.362  33.819  42.521  0.00  0.00     0.091 C 
ATOM    114  O1S SGN d  64      15.394  31.896  41.883  0.00  0.00    -0.296 OA
ATOM    115  C2  SGN d  64      18.550  33.292  42.007  0.00  0.00     0.081 C 
ATOM    116  O4S SGN d  64      22.371  31.152  45.355  0.00  0.00    -0.572 OA
ATOM    117  O3S SGN d  64      15.717  33.728  43.354  0.00  0.00    -0.296 OA
ATOM    118  S1  SGN d  64      15.759  33.301  41.967  0.00  0.00     0.156 S 
ATOM    119  O6S SGN d  64      20.736  30.897  43.668  0.00  0.00    -0.572 OA
ATOM    120  O5S SGN d  64      22.693  29.594  43.609  0.00  0.00    -0.572 OA
ATOM    121  O3  SGN d  64      17.938  34.825  43.615  0.00  0.00    -0.391 OA
ATOM    122  C1  SGN d  64      19.642  32.912  41.042  0.00  0.00     0.150 C 
ATOM    123  O2S SGN d  64      14.864  34.114  41.191  0.00  0.00    -0.296 OA
ATOM    124  C4  SGN d  64      20.273  34.185  43.546  0.00  0.00     0.095 C 
ATOM    125  O5  SGN d  64      20.860  32.670  41.778  0.00  0.00    -0.349 OA
ATOM    126  C6  SGN d  64      22.655  33.484  43.233  0.00  0.00     0.067 C 
ATOM    127  N   SGN d  64      17.356  33.585  41.254  0.00  0.00    -0.210 NA
ATOM    128  H   SGN d  64      19.186  35.342  42.115  0.00  0.00     0.089 H 
ATOM    129  H   SGN d  64      21.570  34.635  41.860  0.00  0.00     0.090 H 
ATOM    130  H   SGN d  64      16.011  31.369  42.414  0.00  0.00     0.231 HD
ATOM    131  H   SGN d  64      18.360  32.494  42.695  0.00  0.00     0.076 H 
ATOM    132  H   SGN d  64      16.321  33.179  43.880  0.00  0.00     0.231 HD
ATOM    133  H   SGN d  64      17.757  34.068  44.194  0.00  0.00     0.210 HD
ATOM    134  H   SGN d  64      19.403  32.021  40.499  0.00  0.00     0.131 H 
ATOM    135  H   SGN d  64      13.960  34.010  41.526  0.00  0.00     0.231 HD
ATOM    136  H   SGN d  64      20.088  33.384  44.232  0.00  0.00     0.091 H 
ATOM    137  H   SGN d  64      23.432  34.118  42.861  0.00  0.00     0.080 H 
ATOM    138  H   SGN d  64      22.513  33.637  44.282  0.00  0.00     0.080 H 
ATOM    139  H   SGN d  64      17.401  33.025  40.402  0.00  0.00     0.140 HD
ATOM    140  C1  IDS d  61      17.512  40.859  52.599  0.00  0.00     0.167 C 
ATOM    141  O5  IDS d  61      18.848  41.405  52.748  0.00  0.00    -0.311 OA
ATOM    142  C5  IDS d  61      19.787  40.742  53.528  0.00  0.00     0.147 C 
ATOM    143  C6  IDS d  61      21.251  41.330  53.537  0.00  0.00     0.233 C 
ATOM    144  C2  IDS d  61      17.053  40.336  53.956  0.00  0.00     0.135 C 
ATOM    145  O1S IDS d  61      18.108  43.487  53.811  0.00  0.00    -0.572 OA
ATOM    146  O3S IDS d  61      15.727  43.268  53.513  0.00  0.00    -0.572 OA
ATOM    147  O3  IDS d  61      17.699  38.106  54.041  0.00  0.00    -0.389 OA
ATOM    148  C4  IDS d  61      19.451  39.705  54.345  0.00  0.00    -0.034 C 
ATOM    149  C3  IDS d  61      18.025  39.337  54.583  0.00  0.00     0.086 C 
ATOM    150  O61 IDS d  61      22.113  40.817  54.251  0.00  0.00    -0.642 OA
ATOM    151  O62 IDS d  61      21.525  42.340  52.843  0.00  0.00    -0.642 OA
ATOM    152  O2S IDS d  61      16.731  43.952  55.575  0.00  0.00    -0.572 OA
ATOM    153  S   IDS d  61      16.855  43.128  54.421  0.00  0.00     0.252 S 
ATOM    154  O2  IDS d  61      16.945  41.413  54.903  0.00  0.00    -0.244 OA
ATOM    155  H   IDS d  61      16.848  41.614  52.231  0.00  0.00     0.134 H 
ATOM    156  H   IDS d  61      16.115  39.858  53.762  0.00  0.00     0.097 H 
ATOM    157  H   IDS d  61      16.766  37.911  54.221  0.00  0.00     0.210 HD
ATOM    158  H   IDS d  61      20.197  39.164  54.808  0.00  0.00     0.085 H 
ATOM    159  H   IDS d  61      17.933  39.324  55.649  0.00  0.00     0.093 H 
ENDROOT
TORSDOF 50
ENDMDL
MODEL 88
REMARK VINA RESULT:      -4.7      4.027      6.171
REMARK  0 active torsions:
REMARK  status: ('A' for Active; 'I' for Inactive)
REMARK       I    between atoms: O3S_3  and  S1_55 
REMARK       I    between atoms: O3_4  and  C3_87 
REMARK       I    between atoms: O4_5  and  C1_15 
REMARK       I    between atoms: O4_5  and  C4_57 
REMARK       I    between atoms: O4_7  and  C1_36 
REMARK       I    between atoms: O4_7  and  C4_89 
REMARK       I    between atoms: C4_8  and  O4_18 
REMARK       I    between atoms: C2_9  and  O2_84 
REMARK       I    between atoms: C6_10  and  C5_32 
REMARK       I    between atoms: C6_10  and  O6_102 
REMARK       I    between atoms: O6_11  and  C6_93 
REMARK       I    between atoms: O6_11  and  S2_25 
REMARK       I    between atoms: C1_13  and  O4_74 
REMARK       I    between atoms: C3_14  and  O3_71 
REMARK       I    between atoms: O4_18  and  C1_54 
REMARK       I    between atoms: S2_19  and  O6_39 
REMARK       I    between atoms: O2S_21  and  S1_45 
REMARK       I    between atoms: C5_22  and  C6_23 
REMARK       I    between atoms: C5_24  and  C6_77 
REMARK       I    between atoms: O1_27  and  C1_48 
REMARK       I    between atoms: C5_28  and  C6_30 
REMARK       I    between atoms: C5_29  and  C6_93 
REMARK       I    between atoms: O1S_31  and  S1_44 
REMARK       I    between atoms: C3_33  and  O3_69 
REMARK       I    between atoms: C2_37  and  N_99 
REMARK       I    between atoms: S2_38  and  O6_102 
REMARK       I    between atoms: O6_39  and  C6_77 
REMARK       I    between atoms: C2_40  and  O2_103 
REMARK       I    between atoms: O3S_42  and  S1_44 
REMARK       I    between atoms: S1_44  and  N_99 
REMARK       I    between atoms: S1_44  and  O2S_81 
REMARK       I    between atoms: S1_45  and  N_94 
REMARK       I    between atoms: S1_45  and  O1S_46 
REMARK       I    between atoms: S1_45  and  O3S_58 
REMARK       I    between atoms: O3_52  and  C3_105 
REMARK       I    between atoms: S1_55  and  N_100 
REMARK       I    between atoms: S1_55  and  O1S_79 
REMARK       I    between atoms: S1_55  and  O2S_83 
REMARK       I    between atoms: O3_56  and  C3_64 
REMARK       I    between atoms: C4_60  and  O4_61 
REMARK       I    between atoms: O4_61  and  C1_73 
REMARK       I    between atoms: C6_63  and  C5_80 
REMARK       I    between atoms: C3_65  and  O3_82 
REMARK       I    between atoms: S_67  and  O2_84 
REMARK       I    between atoms: C2_68  and  O2_98 
REMARK       I    between atoms: O4_74  and  C4_97 
REMARK       I    between atoms: C2_85  and  N_94 
REMARK       I    between atoms: C2_95  and  N_100 
REMARK       I    between atoms: O2_98  and  S_104 
REMARK       I    between atoms: S_101  and  O2_103 
ROOT
ATOM      1  O6S SGN d  66      18.794  35.889  55.699  0.00  0.00    -0.572 OA
ATOM      2  C4  SGN d  66      17.488  32.534  52.547  0.00  0.00     0.095 C 
ATOM      3  C6  SGN d  66      19.074  32.136  54.470  0.00  0.00     0.067 C 
ATOM      4  O4  SGN d  66      18.646  32.929  51.671  0.00  0.00    -0.348 OA
ATOM      5  O5S SGN d  66      20.810  34.749  55.156  0.00  0.00    -0.572 OA
ATOM      6  O2S SGN d  66      12.364  30.335  53.726  0.00  0.00    -0.296 OA
ATOM      7  O5  SGN d  66      16.807  31.128  54.443  0.00  0.00    -0.350 OA
ATOM      8  O1  SGN d  66      16.112  29.374  52.949  0.00  0.00    -0.369 OA
ATOM      9  C5  SGN d  66      17.951  31.527  53.611  0.00  0.00     0.091 C 
ATOM     10  S2  SGN d  66      19.392  34.888  54.837  0.00  0.00     0.251 S 
ATOM     11  S1  SGN d  66      12.949  29.813  52.507  0.00  0.00     0.156 S 
ATOM     12  O1S SGN d  66      11.938  29.584  51.486  0.00  0.00    -0.296 OA
ATOM     13  C1  SGN d  66      15.694  30.532  53.699  0.00  0.00     0.147 C 
ATOM     14  O3S SGN d  66      13.617  28.543  52.750  0.00  0.00    -0.296 OA
ATOM     15  C3  SGN d  66      16.310  31.976  51.731  0.00  0.00     0.083 C 
ATOM     16  O3  SGN d  66      15.805  32.998  50.872  0.00  0.00    -0.391 OA
ATOM     17  C2  SGN d  66      15.184  31.582  52.691  0.00  0.00     0.081 C 
ATOM     18  O4S SGN d  66      19.204  35.282  53.448  0.00  0.00    -0.572 OA
ATOM     19  N   SGN d  66      14.067  31.058  51.893  0.00  0.00    -0.210 NA
ATOM     20  O6  SGN d  66      18.608  33.322  55.156  0.00  0.00    -0.254 OA
ATOM     21  H   SGN d  66      17.132  33.416  53.037  0.00  0.00     0.091 H 
ATOM     22  H   SGN d  66      19.897  32.397  53.838  0.00  0.00     0.080 H 
ATOM     23  H   SGN d  66      19.380  31.415  55.199  0.00  0.00     0.080 H 
ATOM     24  H   SGN d  66      11.927  31.180  53.539  0.00  0.00     0.231 HD
ATOM     25  H   SGN d  66      16.438  28.694  53.559  0.00  0.00     0.212 HD
ATOM     26  H   SGN d  66      18.342  30.655  53.129  0.00  0.00     0.090 H 
ATOM     27  H   SGN d  66      11.472  30.415  51.301  0.00  0.00     0.231 HD
ATOM     28  H   SGN d  66      14.940  30.233  54.397  0.00  0.00     0.131 H 
ATOM     29  H   SGN d  66      14.300  28.661  53.428  0.00  0.00     0.231 HD
ATOM     30  H   SGN d  66      16.641  31.134  51.160  0.00  0.00     0.089 H 
ATOM     31  H   SGN d  66      15.511  33.752  51.406  0.00  0.00     0.210 HD
ATOM     32  H   SGN d  66      14.853  32.431  53.253  0.00  0.00     0.076 H 
ATOM     33  H   SGN d  66      13.489  31.864  51.653  0.00  0.00     0.140 HD
ATOM     34  O61 IDS d  65      17.108  31.096  47.379  0.00  0.00    -0.646 OA
ATOM     35  O3  IDS d  65      21.974  31.709  49.365  0.00  0.00    -0.390 OA
ATOM     36  C5  IDS d  65      18.291  32.224  49.123  0.00  0.00     0.152 C 
ATOM     37  C6  IDS d  65      17.179  32.160  48.043  0.00  0.00     0.206 C 
ATOM     38  O5  IDS d  65      18.268  33.559  49.715  0.00  0.00    -0.340 OA
ATOM     39  C1  IDS d  65      19.251  33.823  50.749  0.00  0.00     0.161 C 
ATOM     40  O1S IDS d  65      23.978  32.279  51.450  0.00  0.00    -0.572 OA
ATOM     41  C4  IDS d  65      19.721  31.842  48.600  0.00  0.00     0.103 C 
ATOM     42  O4  IDS d  65      19.478  31.629  47.207  0.00  0.00    -0.348 OA
ATOM     43  C2  IDS d  65      20.466  32.847  50.755  0.00  0.00     0.134 C 
ATOM     44  O62 IDS d  65      16.397  33.148  47.897  0.00  0.00    -0.646 OA
ATOM     45  C3  IDS d  65      20.870  32.558  49.344  0.00  0.00     0.094 C 
ATOM     46  O2S IDS d  65      22.076  31.031  52.165  0.00  0.00    -0.572 OA
ATOM     47  O3S IDS d  65      22.942  32.740  53.566  0.00  0.00    -0.572 OA
ATOM     48  O2  IDS d  65      21.587  33.456  51.376  0.00  0.00    -0.244 OA
ATOM     49  S   IDS d  65      22.714  32.333  52.183  0.00  0.00     0.252 S 
ATOM     50  H   IDS d  65      22.248  31.512  48.455  0.00  0.00     0.210 HD
ATOM     51  H   IDS d  65      18.081  31.479  49.860  0.00  0.00     0.104 H 
ATOM     52  H   IDS d  65      19.486  34.866  50.793  0.00  0.00     0.133 H 
ATOM     53  H   IDS d  65      20.257  30.952  48.854  0.00  0.00     0.092 H 
ATOM     54  H   IDS d  65      20.176  31.960  51.278  0.00  0.00     0.097 H 
ATOM     55  H   IDS d  65      21.102  33.477  48.847  0.00  0.00     0.091 H 
ATOM     56  O3S SGN d  62      18.206  36.938  39.858  0.00  0.00    -0.296 OA
ATOM     57  C1  SGN d  62      21.260  35.519  38.997  0.00  0.00     0.150 C 
ATOM     58  S2  SGN d  62      26.651  34.317  36.794  0.00  0.00     0.251 S 
ATOM     59  C5  SGN d  62      23.068  35.287  37.301  0.00  0.00     0.091 C 
ATOM     60  O5  SGN d  62      22.601  35.887  38.543  0.00  0.00    -0.349 OA
ATOM     61  O4S SGN d  62      27.599  35.373  36.667  0.00  0.00    -0.572 OA
ATOM     62  O6  SGN d  62      25.089  34.837  36.208  0.00  0.00    -0.254 OA
ATOM     63  O3  SGN d  62      19.784  35.207  35.582  0.00  0.00    -0.391 OA
ATOM     64  S1  SGN d  62      17.780  36.168  38.712  0.00  0.00     0.156 S 
ATOM     65  O6S SGN d  62      26.513  33.837  38.167  0.00  0.00    -0.572 OA
ATOM     66  O4  SGN d  62      22.598  35.030  34.963  0.00  0.00    -0.348 OA
ATOM     67  C6  SGN d  62      24.455  35.813  37.016  0.00  0.00     0.067 C 
ATOM     68  O5S SGN d  62      27.026  33.205  35.964  0.00  0.00    -0.572 OA
ATOM     69  O1S SGN d  62      16.609  35.368  39.006  0.00  0.00    -0.296 OA
ATOM     70  O2S SGN d  62      17.562  37.078  37.625  0.00  0.00    -0.296 OA
ATOM     71  C2  SGN d  62      20.286  35.698  37.841  0.00  0.00     0.081 C 
ATOM     72  C4  SGN d  62      22.097  35.626  36.157  0.00  0.00     0.095 C 
ATOM     73  N   SGN d  62      19.045  35.084  38.192  0.00  0.00    -0.210 NA
ATOM     74  C3  SGN d  62      20.759  34.992  36.567  0.00  0.00     0.083 C 
ATOM     75  H   SGN d  62      18.360  36.343  40.608  0.00  0.00     0.231 HD
ATOM     76  H   SGN d  62      21.038  36.156  39.828  0.00  0.00     0.131 H 
ATOM     77  H   SGN d  62      23.106  34.221  37.389  0.00  0.00     0.090 H 
ATOM     78  H   SGN d  62      18.948  34.800  35.859  0.00  0.00     0.210 HD
ATOM     79  H   SGN d  62      24.996  35.948  37.929  0.00  0.00     0.080 H 
ATOM     80  H   SGN d  62      24.417  36.762  36.523  0.00  0.00     0.080 H 
ATOM     81  H   SGN d  62      16.802  34.770  39.745  0.00  0.00     0.231 HD
ATOM     82  H   SGN d  62      18.371  37.590  37.465  0.00  0.00     0.231 HD
ATOM     83  H   SGN d  62      20.203  36.749  37.659  0.00  0.00     0.076 H 
ATOM     84  H   SGN d  62      21.986  36.677  35.986  0.00  0.00     0.091 H 
ATOM     85  H   SGN d  62      18.705  34.575  37.376  0.00  0.00     0.140 HD
ATOM     86  H   SGN d  62      20.894  33.939  36.707  0.00  0.00     0.089 H 
ATOM     87  O4  IDS d  63      21.148  34.166  39.458  0.00  0.00    -0.348 OA
ATOM     88  O62 IDS d  63      23.044  31.280  40.753  0.00  0.00    -0.646 OA
ATOM     89  C2  IDS d  63      18.523  33.059  40.697  0.00  0.00     0.134 C 
ATOM     90  O2S IDS d  63      16.422  31.625  38.916  0.00  0.00    -0.572 OA
ATOM     91  O61 IDS d  63      23.679  33.227  41.454  0.00  0.00    -0.646 OA
ATOM     92  C3  IDS d  63      19.292  34.301  41.166  0.00  0.00     0.094 C 
ATOM     93  C1  IDS d  63      19.087  31.790  41.393  0.00  0.00     0.161 C 
ATOM     94  O5  IDS d  63      20.472  31.640  40.986  0.00  0.00    -0.340 OA
ATOM     95  C4  IDS d  63      20.839  34.126  40.846  0.00  0.00     0.103 C 
ATOM     96  C6  IDS d  63      22.801  32.411  41.179  0.00  0.00     0.206 C 
ATOM     97  S   IDS d  63      17.823  31.600  38.518  0.00  0.00     0.252 S 
ATOM     98  O3  IDS d  63      19.083  34.352  42.560  0.00  0.00    -0.390 OA
ATOM     99  C5  IDS d  63      21.337  32.771  41.418  0.00  0.00     0.152 C 
ATOM    100  O2  IDS d  63      18.589  32.991  39.297  0.00  0.00    -0.244 OA
ATOM    101  O1S IDS d  63      17.998  31.806  37.092  0.00  0.00    -0.572 OA
ATOM    102  O3S IDS d  63      18.347  30.326  38.916  0.00  0.00    -0.572 OA
ATOM    103  H   IDS d  63      17.491  33.121  40.973  0.00  0.00     0.097 H 
ATOM    104  H   IDS d  63      18.964  35.196  40.679  0.00  0.00     0.091 H 
ATOM    105  H   IDS d  63      18.590  30.879  41.130  0.00  0.00     0.133 H 
ATOM    106  H   IDS d  63      21.332  34.957  41.306  0.00  0.00     0.092 H 
ATOM    107  H   IDS d  63      19.392  33.527  42.964  0.00  0.00     0.210 HD
ATOM    108  H   IDS d  63      21.264  32.932  42.473  0.00  0.00     0.104 H 
ATOM    109  O4  SGN d  64      18.923  32.024  42.825  0.00  0.00    -0.348 OA
ATOM    110  O6  SGN d  64      16.669  28.974  44.508  0.00  0.00    -0.254 OA
ATOM    111  C3  SGN d  64      20.537  31.647  44.624  0.00  0.00     0.083 C 
ATOM    112  S2  SGN d  64      17.690  27.628  43.937  0.00  0.00     0.251 S 
ATOM    113  C5  SGN d  64      18.180  30.846  44.788  0.00  0.00     0.091 C 
ATOM    114  O1S SGN d  64      24.142  29.527  46.350  0.00  0.00    -0.296 OA
ATOM    115  C2  SGN d  64      20.948  30.638  45.652  0.00  0.00     0.081 C 
ATOM    116  O4S SGN d  64      17.606  27.591  42.500  0.00  0.00    -0.572 OA
ATOM    117  O3S SGN d  64      23.878  30.992  44.502  0.00  0.00    -0.296 OA
ATOM    118  S1  SGN d  64      23.715  30.855  45.939  0.00  0.00     0.156 S 
ATOM    119  O6S SGN d  64      19.070  27.803  44.343  0.00  0.00    -0.572 OA
ATOM    120  O5S SGN d  64      17.188  26.403  44.498  0.00  0.00    -0.572 OA
ATOM    121  O3  SGN d  64      21.641  31.850  43.819  0.00  0.00    -0.391 OA
ATOM    122  C1  SGN d  64      19.783  30.386  46.574  0.00  0.00     0.150 C 
ATOM    123  O2S SGN d  64      24.483  31.872  46.604  0.00  0.00    -0.296 OA
ATOM    124  C4  SGN d  64      19.348  31.071  43.811  0.00  0.00     0.095 C 
ATOM    125  O5  SGN d  64      18.661  29.912  45.799  0.00  0.00    -0.349 OA
ATOM    126  C6  SGN d  64      16.985  30.280  44.050  0.00  0.00     0.067 C 
ATOM    127  N   SGN d  64      22.042  31.164  46.431  0.00  0.00    -0.210 NA
ATOM    128  H   SGN d  64      20.221  32.572  45.058  0.00  0.00     0.089 H 
ATOM    129  H   SGN d  64      17.863  31.763  45.241  0.00  0.00     0.090 H 
ATOM    130  H   SGN d  64      23.611  28.860  45.888  0.00  0.00     0.231 HD
ATOM    131  H   SGN d  64      21.248  29.732  45.167  0.00  0.00     0.076 H 
ATOM    132  H   SGN d  64      23.360  30.306  44.052  0.00  0.00     0.231 HD
ATOM    133  H   SGN d  64      21.919  31.006  43.431  0.00  0.00     0.210 HD
ATOM    134  H   SGN d  64      20.011  29.644  47.310  0.00  0.00     0.131 H 
ATOM    135  H   SGN d  64      25.420  31.767  46.380  0.00  0.00     0.231 HD
ATOM    136  H   SGN d  64      19.644  30.163  43.328  0.00  0.00     0.091 H 
ATOM    137  H   SGN d  64      16.143  30.920  44.209  0.00  0.00     0.080 H 
ATOM    138  H   SGN d  64      17.226  30.225  43.009  0.00  0.00     0.080 H 
ATOM    139  H   SGN d  64      21.938  30.789  47.373  0.00  0.00     0.140 HD
ATOM    140  C1  IDS d  61      22.676  35.935  33.842  0.00  0.00     0.167 C 
ATOM    141  O5  IDS d  61      21.336  36.342  33.461  0.00  0.00    -0.311 OA
ATOM    142  C5  IDS d  61      20.518  35.468  32.758  0.00  0.00     0.147 C 
ATOM    143  C6  IDS d  61      19.034  35.935  32.494  0.00  0.00     0.233 C 
ATOM    144  C2  IDS d  61      23.298  35.180  32.672  0.00  0.00     0.135 C 
ATOM    145  O1S IDS d  61      22.072  38.211  32.055  0.00  0.00    -0.572 OA
ATOM    146  O3S IDS d  61      24.419  38.228  32.605  0.00  0.00    -0.572 OA
ATOM    147  O3  IDS d  61      22.781  32.940  33.000  0.00  0.00    -0.389 OA
ATOM    148  C4  IDS d  61      20.989  34.313  32.211  0.00  0.00    -0.034 C 
ATOM    149  C3  IDS d  61      22.448  34.007  32.184  0.00  0.00     0.086 C 
ATOM    150  O61 IDS d  61      18.277  35.226  31.829  0.00  0.00    -0.642 OA
ATOM    151  O62 IDS d  61      18.638  37.043  32.932  0.00  0.00    -0.642 OA
ATOM    152  O2S IDS d  61      23.597  38.402  30.364  0.00  0.00    -0.572 OA
ATOM    153  S   IDS d  61      23.398  37.825  31.649  0.00  0.00     0.252 S 
ATOM    154  O2  IDS d  61      23.448  36.046  31.533  0.00  0.00    -0.244 OA
ATOM    155  H   IDS d  61      23.259  36.795  34.100  0.00  0.00     0.134 H 
ATOM    156  H   IDS d  61      24.235  34.821  33.045  0.00  0.00     0.097 H 
ATOM    157  H   IDS d  61      23.736  32.779  32.950  0.00  0.00     0.210 HD
ATOM    158  H   IDS d  61      20.323  33.636  31.807  0.00  0.00     0.085 H 
ATOM    159  H   IDS d  61      22.650  33.784  31.158  0.00  0.00     0.093 H 
ENDROOT
TORSDOF 50
ENDMDL
