MODEL 1
REMARK VINA RESULT:      -9.7      0.000      0.000
REMARK  0 active torsions:
REMARK  status: ('A' for Active; 'I' for Inactive)
REMARK       I    between atoms: C5_1  and  C6_97 
REMARK       I    between atoms: O2_2  and  C2_107 
REMARK       I    between atoms: O2_2  and  S_88 
REMARK       I    between atoms: O3_4  and  C3_95 
REMARK       I    between atoms: C1_5  and  O1_40 
REMARK       I    between atoms: C3_6  and  C2_70 
REMARK       I    between atoms: C3_6  and  O3_51 
REMARK       I    between atoms: C2_7  and  O2_9 
REMARK       I    between atoms: C2_8  and  O2_75 
REMARK       I    between atoms: O2_9  and  S_23 
REMARK       I    between atoms: S2_14  and  O6_117 
REMARK       I    between atoms: C1_15  and  O1_130 
REMARK       I    between atoms: C4_16  and  O1_59 
REMARK       I    between atoms: S1_17  and  N_128 
REMARK       I    between atoms: S1_17  and  O1S_46 
REMARK       I    between atoms: S1_17  and  O2S_29 
REMARK       I    between atoms: S1_17  and  O3S_24 
REMARK       I    between atoms: C2_18  and  N_86 
REMARK       I    between atoms: S1_19  and  N_86 
REMARK       I    between atoms: S1_19  and  O1S_71 
REMARK       I    between atoms: S1_19  and  O2S_34 
REMARK       I    between atoms: S1_19  and  O3S_81 
REMARK       I    between atoms: O2S_22  and  S1_111 
REMARK       I    between atoms: C1_25  and  O1_58 
REMARK       I    between atoms: C4_27  and  O1_58 
REMARK       I    between atoms: O2S_28  and  S1_48 
REMARK       I    between atoms: O3_32  and  C3_49 
REMARK       I    between atoms: O2_33  and  C2_70 
REMARK       I    between atoms: O2_33  and  S_133 
REMARK       I    between atoms: C5_37  and  C6_84 
REMARK       I    between atoms: C5_41  and  C6_43 
REMARK       I    between atoms: O6_42  and  C6_84 
REMARK       I    between atoms: O6_42  and  S2_77 
REMARK       I    between atoms: C5_44  and  C6_108 
REMARK       I    between atoms: O1_45  and  C1_120 
REMARK       I    between atoms: O1_45  and  C4_114 
REMARK       I    between atoms: S2_47  and  O6_94 
REMARK       I    between atoms: S1_48  and  N_53 
REMARK       I    between atoms: S1_48  and  O1S_52 
REMARK       I    between atoms: S1_48  and  O3S_83 
REMARK       I    between atoms: O3_50  and  C3_119 
REMARK       I    between atoms: N_53  and  C2_89 
REMARK       I    between atoms: S_55  and  O2_75 
REMARK       I    between atoms: O3_56  and  C3_124 
REMARK       I    between atoms: O1_59  and  C1_110 
REMARK       I    between atoms: S2_60  and  O6_132 
REMARK       I    between atoms: O3_61  and  C3_115 
REMARK       I    between atoms: C6_62  and  C5_106 
REMARK       I    between atoms: C6_62  and  O6_94 
REMARK       I    between atoms: C4_63  and  O1_96 
REMARK       I    between atoms: O3_67  and  C3_93 
REMARK       I    between atoms: O1_69  and  C1_113 
REMARK       I    between atoms: O1_69  and  C4_103 
REMARK       I    between atoms: C2_70  and  C1_76 
REMARK       I    between atoms: C5_74  and  C6_90 
REMARK       I    between atoms: C1_76  and  O1_96 
REMARK       I    between atoms: C4_78  and  O1_112 
REMARK       I    between atoms: C6_80  and  C5_134 
REMARK       I    between atoms: C6_80  and  O6_132 
REMARK       I    between atoms: C6_90  and  O6_117 
REMARK       I    between atoms: C2_98  and  N_128 
REMARK       I    between atoms: C1_100  and  O1_112 
REMARK       I    between atoms: S1_111  and  O1S_116 
REMARK       I    between atoms: C4_127  and  O1_130 
ROOT
ATOM      1  C5  IDS d 249      44.085  29.948   9.189  0.00  0.00     0.152 C 
ATOM      2  O2  IDS d 249      45.496  28.138  12.628  0.00  0.00    -0.244 OA
ATOM      3  O1S IDS d 249      45.485  25.750  12.151  0.00  0.00    -0.572 OA
ATOM      4  O5  IDS d 249      45.507  29.746   9.360  0.00  0.00    -0.340 OA
ATOM      5  O1  IDS d 249      46.057  30.875  11.290  0.00  0.00    -0.348 OA
ATOM      6  O62 IDS d 249      44.515  30.149   6.820  0.00  0.00    -0.646 OA
ATOM      7  O3  IDS d 249      42.795  27.581  11.226  0.00  0.00    -0.390 OA
ATOM      8  S   IDS d 249      46.419  26.821  12.458  0.00  0.00     0.252 S 
ATOM      9  C3  IDS d 249      44.028  27.944  10.768  0.00  0.00     0.094 C 
ATOM     10  C6  IDS d 249      43.811  30.469   7.761  0.00  0.00     0.206 C 
ATOM     11  O3S IDS d 249      47.088  26.634  13.727  0.00  0.00    -0.572 OA
ATOM     12  C2  IDS d 249      44.857  28.906  11.586  0.00  0.00     0.134 C 
ATOM     13  C1  IDS d 249      45.920  29.629  10.716  0.00  0.00     0.161 C 
ATOM     14  C4  IDS d 249      43.380  28.584   9.511  0.00  0.00     0.103 C 
ATOM     15  O2S IDS d 249      47.334  27.062  11.369  0.00  0.00    -0.572 OA
ATOM     16  O61 IDS d 249      42.869  31.232   7.545  0.00  0.00    -0.646 OA
ATOM     17  H   IDS d 249      43.691  30.690   9.852  0.00  0.00     0.104 H 
ATOM     18  H   IDS d 249      42.888  27.119  12.073  0.00  0.00     0.210 HD
ATOM     19  H   IDS d 249      44.779  27.184  10.703  0.00  0.00     0.091 H 
ATOM     20  H   IDS d 249      44.231  29.669  11.999  0.00  0.00     0.097 H 
ATOM     21  H   IDS d 249      46.840  29.083  10.690  0.00  0.00     0.133 H 
ATOM     22  H   IDS d 249      42.325  28.588   9.687  0.00  0.00     0.092 H 
ATOM     23  O3  SGN d 246      47.921  21.959  -1.220  0.00  0.00    -0.215 OA
ATOM     24  S2  SGN d 246      48.373  16.192   1.887  0.00  0.00     0.251 S 
ATOM     25  O6S SGN d 246      49.416  16.960   2.509  0.00  0.00    -0.572 OA
ATOM     26  O2S SGN d 246      51.573  23.320  -0.762  0.00  0.00    -0.294 OA
ATOM     27  C3  SGN d 246      47.784  21.478   0.099  0.00  0.00     0.121 C 
ATOM     28  C2  SGN d 246      49.154  21.430   0.792  0.00  0.00     0.084 C 
ATOM     29  O4S SGN d 246      47.509  15.540   2.836  0.00  0.00    -0.572 OA
ATOM     30  O5S SGN d 246      48.870  15.303   0.867  0.00  0.00    -0.572 OA
ATOM     31  N   SGN d 246      49.737  22.772   0.830  0.00  0.00    -0.208 NA
ATOM     32  C4  SGN d 246      47.238  20.077   0.056  0.00  0.00     0.095 C 
ATOM     33  O1  SGN d 246      48.112  21.694   3.015  0.00  0.00    -0.348 OA
ATOM     34  C5  SGN d 246      47.090  19.538   1.541  0.00  0.00     0.091 C 
ATOM     35  C6  SGN d 246      46.559  18.088   1.652  0.00  0.00     0.067 C 
ATOM     36  S1  SGN d 246      50.153  23.532  -0.566  0.00  0.00     0.188 S 
ATOM     37  C1  SGN d 246      48.985  20.863   2.270  0.00  0.00     0.151 C 
ATOM     38  O1S SGN d 246      49.801  24.931  -0.422  0.00  0.00    -0.294 OA
ATOM     39  O6  SGN d 246      47.504  17.203   1.114  0.00  0.00    -0.254 OA
ATOM     40  O5  SGN d 246      48.400  19.563   2.221  0.00  0.00    -0.349 OA
ATOM     41  O3S SGN d 246      49.358  22.874  -1.580  0.00  0.00    -0.119 OA
ATOM     42  H   SGN d 246      52.068  23.775  -0.063  0.00  0.00     0.231 HD
ATOM     43  H   SGN d 246      47.128  22.130   0.637  0.00  0.00     0.095 H 
ATOM     44  H   SGN d 246      49.807  20.784   0.242  0.00  0.00     0.077 H 
ATOM     45  H   SGN d 246      50.585  22.708   1.394  0.00  0.00     0.140 HD
ATOM     46  H   SGN d 246      47.887  19.405  -0.465  0.00  0.00     0.091 H 
ATOM     47  H   SGN d 246      46.374  20.190   1.995  0.00  0.00     0.090 H 
ATOM     48  H   SGN d 246      45.640  18.002   1.109  0.00  0.00     0.080 H 
ATOM     49  H   SGN d 246      46.389  17.847   2.681  0.00  0.00     0.080 H 
ATOM     50  H   SGN d 246      49.951  20.831   2.728  0.00  0.00     0.131 H 
ATOM     51  H   SGN d 246      50.355  25.335   0.265  0.00  0.00     0.231 HD
ATOM     52  O3  SGN d 250      46.201  33.143   9.628  0.00  0.00    -0.391 OA
ATOM     53  O5S SGN d 250      50.335  29.664  15.725  0.00  0.00    -0.572 OA
ATOM     54  C4  SGN d 250      47.274  31.582  11.133  0.00  0.00     0.095 C 
ATOM     55  S1  SGN d 250      47.803  35.968   8.972  0.00  0.00     0.156 S 
ATOM     56  O3S SGN d 250      48.815  37.017   8.967  0.00  0.00    -0.296 OA
ATOM     57  C1  SGN d 250      48.961  33.701  12.131  0.00  0.00     0.150 C 
ATOM     58  O2S SGN d 250      46.437  36.506   8.850  0.00  0.00    -0.296 OA
ATOM     59  C5  SGN d 250      48.103  31.488  12.459  0.00  0.00     0.091 C 
ATOM     60  O6  SGN d 250      48.540  29.892  14.188  0.00  0.00    -0.254 OA
ATOM     61  O1S SGN d 250      48.110  34.931   7.999  0.00  0.00    -0.296 OA
ATOM     62  O1  SGN d 250      47.969  33.936  13.112  0.00  0.00    -0.348 OA
ATOM     63  S2  SGN d 250      49.400  28.859  14.984  0.00  0.00     0.251 S 
ATOM     64  C6  SGN d 250      48.523  30.054  12.802  0.00  0.00     0.067 C 
ATOM     65  C3  SGN d 250      46.928  33.059  10.846  0.00  0.00     0.083 C 
ATOM     66  C2  SGN d 250      48.246  33.877  10.734  0.00  0.00     0.081 C 
ATOM     67  O6S SGN d 250      48.471  28.154  15.855  0.00  0.00    -0.572 OA
ATOM     68  O5  SGN d 250      49.317  32.322  12.329  0.00  0.00    -0.349 OA
ATOM     69  O4S SGN d 250      50.051  27.996  14.011  0.00  0.00    -0.572 OA
ATOM     70  N   SGN d 250      47.899  35.316  10.502  0.00  0.00    -0.210 NA
ATOM     71  H   SGN d 250      45.380  32.631   9.705  0.00  0.00     0.210 HD
ATOM     72  H   SGN d 250      47.851  31.170  10.332  0.00  0.00     0.091 H 
ATOM     73  H   SGN d 250      49.695  36.617   9.049  0.00  0.00     0.231 HD
ATOM     74  H   SGN d 250      49.816  34.344  12.181  0.00  0.00     0.131 H 
ATOM     75  H   SGN d 250      45.800  35.775   8.858  0.00  0.00     0.231 HD
ATOM     76  H   SGN d 250      47.473  31.836  13.251  0.00  0.00     0.090 H 
ATOM     77  H   SGN d 250      47.421  34.249   8.025  0.00  0.00     0.231 HD
ATOM     78  H   SGN d 250      49.500  29.865  12.409  0.00  0.00     0.080 H 
ATOM     79  H   SGN d 250      47.826  29.365  12.371  0.00  0.00     0.080 H 
ATOM     80  H   SGN d 250      46.330  33.456  11.640  0.00  0.00     0.089 H 
ATOM     81  H   SGN d 250      48.874  33.552   9.931  0.00  0.00     0.076 H 
ATOM     82  H   SGN d 250      46.986  35.462  10.932  0.00  0.00     0.140 HD
ATOM     83  C1  SGN d 252      44.235  34.507  20.376  0.00  0.00     0.147 C 
ATOM     84  C2  SGN d 252      44.698  33.434  19.364  0.00  0.00     0.081 C 
ATOM     85  S1  SGN d 252      45.179  31.063  20.598  0.00  0.00     0.156 S 
ATOM     86  O3  SGN d 252      45.741  33.185  17.268  0.00  0.00    -0.391 OA
ATOM     87  O2S SGN d 252      44.994  30.216  19.437  0.00  0.00    -0.296 OA
ATOM     88  O1  SGN d 252      45.385  35.246  20.835  0.00  0.00    -0.369 OA
ATOM     89  S2  SGN d 252      40.321  36.340  16.938  0.00  0.00     0.251 S 
ATOM     90  C3  SGN d 252      45.325  34.152  18.172  0.00  0.00     0.083 C 
ATOM     91  C6  SGN d 252      42.636  37.031  18.124  0.00  0.00     0.067 C 
ATOM     92  O6S SGN d 252      39.766  36.455  18.283  0.00  0.00    -0.572 OA
ATOM     93  O1S SGN d 252      43.950  31.289  21.336  0.00  0.00    -0.296 OA
ATOM     94  O3S SGN d 252      46.255  30.584  21.462  0.00  0.00    -0.296 OA
ATOM     95  N   SGN d 252      45.692  32.533  20.018  0.00  0.00    -0.210 NA
ATOM     96  O5  SGN d 252      43.268  35.398  19.752  0.00  0.00    -0.350 OA
ATOM     97  O6  SGN d 252      41.896  36.400  17.100  0.00  0.00    -0.254 OA
ATOM     98  O5S SGN d 252      40.080  35.028  16.346  0.00  0.00    -0.572 OA
ATOM     99  C5  SGN d 252      43.758  36.092  18.583  0.00  0.00     0.091 C 
ATOM    100  C4  SGN d 252      44.234  35.067  17.505  0.00  0.00     0.095 C 
ATOM    101  O4S SGN d 252      39.931  37.437  16.063  0.00  0.00    -0.572 OA
ATOM    102  H   SGN d 252      43.763  34.035  21.213  0.00  0.00     0.131 H 
ATOM    103  H   SGN d 252      43.873  32.839  19.032  0.00  0.00     0.076 H 
ATOM    104  H   SGN d 252      46.414  32.623  17.683  0.00  0.00     0.210 HD
ATOM    105  H   SGN d 252      44.273  30.568  18.892  0.00  0.00     0.231 HD
ATOM    106  H   SGN d 252      45.816  35.675  20.078  0.00  0.00     0.212 HD
ATOM    107  H   SGN d 252      46.155  34.755  18.476  0.00  0.00     0.089 H 
ATOM    108  H   SGN d 252      43.059  37.940  17.752  0.00  0.00     0.080 H 
ATOM    109  H   SGN d 252      41.992  37.255  18.949  0.00  0.00     0.080 H 
ATOM    110  H   SGN d 252      43.262  31.606  20.729  0.00  0.00     0.231 HD
ATOM    111  H   SGN d 252      46.345  31.176  22.225  0.00  0.00     0.231 HD
ATOM    112  H   SGN d 252      46.086  33.045  20.807  0.00  0.00     0.140 HD
ATOM    113  H   SGN d 252      44.625  36.685  18.789  0.00  0.00     0.090 H 
ATOM    114  H   SGN d 252      43.431  34.460  17.143  0.00  0.00     0.091 H 
ATOM    115  C3  IDS d 245      45.127  17.661  -3.142  0.00  0.00     0.044 C 
ATOM    116  O2S IDS d 245      43.002  18.206   0.882  0.00  0.00    -0.572 OA
ATOM    117  O2  IDS d 245      44.724  17.808  -0.810  0.00  0.00    -0.247 OA
ATOM    118  O3S IDS d 245      42.501  16.924  -1.112  0.00  0.00    -0.572 OA
ATOM    119  O3  IDS d 245      44.069  16.746  -3.302  0.00  0.00    -0.398 OA
ATOM    120  C2  IDS d 245      44.817  18.585  -2.002  0.00  0.00     0.100 C 
ATOM    121  C1  IDS d 245      45.974  19.545  -1.903  0.00  0.00     0.048 C 
ATOM    122  O1  IDS d 245      45.979  20.130  -0.626  0.00  0.00    -0.378 OA
ATOM    123  O1S IDS d 245      43.969  16.017   0.579  0.00  0.00    -0.572 OA
ATOM    124  S   IDS d 245      43.463  17.216  -0.076  0.00  0.00     0.252 S 
ATOM    125  H   IDS d 245      46.031  17.129  -2.934  0.00  0.00     0.078 H 
ATOM    126  H   IDS d 245      45.247  18.230  -4.040  0.00  0.00     0.078 H 
ATOM    127  H   IDS d 245      43.961  16.231  -2.487  0.00  0.00     0.209 HD
ATOM    128  H   IDS d 245      43.898  19.115  -2.145  0.00  0.00     0.092 H 
ATOM    129  H   IDS d 245      45.872  20.308  -2.646  0.00  0.00     0.078 H 
ATOM    130  H   IDS d 245      46.893  19.019  -2.062  0.00  0.00     0.078 H 
ATOM    131  C2  IDS d 247      48.268  25.122   4.067  0.00  0.00     0.134 C 
ATOM    132  O2  IDS d 247      48.487  26.294   3.252  0.00  0.00    -0.244 OA
ATOM    133  S   IDS d 247      49.775  27.286   3.218  0.00  0.00     0.252 S 
ATOM    134  C5  IDS d 247      47.432  22.723   5.078  0.00  0.00     0.152 C 
ATOM    135  O1S IDS d 247      50.389  27.112   4.520  0.00  0.00    -0.572 OA
ATOM    136  O3  IDS d 247      50.258  24.131   3.168  0.00  0.00    -0.390 OA
ATOM    137  O3S IDS d 247      49.265  28.645   3.019  0.00  0.00    -0.572 OA
ATOM    138  O62 IDS d 247      45.641  21.121   5.250  0.00  0.00    -0.646 OA
ATOM    139  O61 IDS d 247      47.460  20.536   6.085  0.00  0.00    -0.646 OA
ATOM    140  O5  IDS d 247      46.400  23.565   4.504  0.00  0.00    -0.340 OA
ATOM    141  O2S IDS d 247      50.642  26.843   2.147  0.00  0.00    -0.572 OA
ATOM    142  C1  IDS d 247      46.757  24.936   4.312  0.00  0.00     0.161 C 
ATOM    143  C4  IDS d 247      48.601  22.573   4.025  0.00  0.00     0.103 C 
ATOM    144  C6  IDS d 247      46.802  21.381   5.499  0.00  0.00     0.206 C 
ATOM    145  O1  IDS d 247      46.459  25.702   5.424  0.00  0.00    -0.348 OA
ATOM    146  C3  IDS d 247      48.858  23.934   3.328  0.00  0.00     0.094 C 
ATOM    147  H   IDS d 247      48.739  25.220   5.023  0.00  0.00     0.097 H 
ATOM    148  H   IDS d 247      47.857  23.153   5.961  0.00  0.00     0.104 H 
ATOM    149  H   IDS d 247      50.418  24.984   2.732  0.00  0.00     0.210 HD
ATOM    150  H   IDS d 247      46.194  25.248   3.458  0.00  0.00     0.133 H 
ATOM    151  H   IDS d 247      49.493  22.227   4.503  0.00  0.00     0.092 H 
ATOM    152  H   IDS d 247      48.365  23.884   2.380  0.00  0.00     0.091 H 
ATOM    153  C2  IDS d 251      45.608  36.376  14.191  0.00  0.00     0.134 C 
ATOM    154  C1  IDS d 251      45.048  35.235  15.086  0.00  0.00     0.161 C 
ATOM    155  O62 IDS d 251      49.419  33.557  16.169  0.00  0.00    -0.646 OA
ATOM    156  C4  IDS d 251      47.840  35.092  13.838  0.00  0.00     0.103 C 
ATOM    157  C5  IDS d 251      47.406  34.581  15.245  0.00  0.00     0.152 C 
ATOM    158  C6  IDS d 251      48.278  33.390  15.772  0.00  0.00     0.206 C 
ATOM    159  S   IDS d 251      43.404  36.225  12.549  0.00  0.00     0.252 S 
ATOM    160  O3  IDS d 251      47.167  36.952  12.448  0.00  0.00    -0.390 OA
ATOM    161  O61 IDS d 251      47.830  32.239  15.790  0.00  0.00    -0.646 OA
ATOM    162  O3S IDS d 251      42.487  37.282  12.194  0.00  0.00    -0.572 OA
ATOM    163  O2  IDS d 251      44.563  36.959  13.409  0.00  0.00    -0.244 OA
ATOM    164  O2S IDS d 251      42.798  35.200  13.379  0.00  0.00    -0.572 OA
ATOM    165  O5  IDS d 251      46.000  34.158  15.145  0.00  0.00    -0.340 OA
ATOM    166  C3  IDS d 251      46.661  35.863  13.197  0.00  0.00     0.094 C 
ATOM    167  O1S IDS d 251      44.090  35.659  11.395  0.00  0.00    -0.572 OA
ATOM    168  O1  IDS d 251      44.808  35.828  16.375  0.00  0.00    -0.348 OA
ATOM    169  H   IDS d 251      46.046  37.088  14.858  0.00  0.00     0.097 H 
ATOM    170  H   IDS d 251      44.143  34.813  14.702  0.00  0.00     0.133 H 
ATOM    171  H   IDS d 251      48.712  35.711  13.875  0.00  0.00     0.092 H 
ATOM    172  H   IDS d 251      47.539  35.377  15.947  0.00  0.00     0.104 H 
ATOM    173  H   IDS d 251      46.430  37.437  12.045  0.00  0.00     0.210 HD
ATOM    174  H   IDS d 251      46.152  35.156  12.575  0.00  0.00     0.091 H 
ATOM    175  O5S SGN d 248      44.324  24.536   3.435  0.00  0.00    -0.572 OA
ATOM    176  O4S SGN d 248      42.792  25.857   2.105  0.00  0.00    -0.572 OA
ATOM    177  O2S SGN d 248      41.842  24.691  11.003  0.00  0.00    -0.296 OA
ATOM    178  O1  SGN d 248      43.960  27.843   8.217  0.00  0.00    -0.348 OA
ATOM    179  S1  SGN d 248      42.097  24.249   9.638  0.00  0.00     0.156 S 
ATOM    180  O3  SGN d 248      45.326  24.056   7.373  0.00  0.00    -0.391 OA
ATOM    181  O1S SGN d 248      42.509  22.865   9.542  0.00  0.00    -0.296 OA
ATOM    182  N   SGN d 248      43.346  25.196   9.104  0.00  0.00    -0.210 NA
ATOM    183  S2  SGN d 248      43.541  25.756   3.344  0.00  0.00     0.251 S 
ATOM    184  C4  SGN d 248      45.092  25.850   5.781  0.00  0.00     0.095 C 
ATOM    185  C6  SGN d 248      44.737  27.919   4.243  0.00  0.00     0.067 C 
ATOM    186  O6S SGN d 248      42.732  25.994   4.523  0.00  0.00    -0.572 OA
ATOM    187  O3S SGN d 248      40.979  24.526   8.757  0.00  0.00    -0.296 OA
ATOM    188  O5  SGN d 248      43.260  27.482   6.116  0.00  0.00    -0.349 OA
ATOM    189  C2  SGN d 248      43.482  25.584   7.671  0.00  0.00     0.081 C 
ATOM    190  C3  SGN d 248      44.947  25.417   7.241  0.00  0.00     0.083 C 
ATOM    191  C1  SGN d 248      43.090  27.087   7.474  0.00  0.00     0.150 C 
ATOM    192  O6  SGN d 248      44.610  26.880   3.323  0.00  0.00    -0.254 OA
ATOM    193  C5  SGN d 248      44.652  27.351   5.669  0.00  0.00     0.091 C 
ATOM    194  H   SGN d 248      42.611  24.488  11.558  0.00  0.00     0.231 HD
ATOM    195  H   SGN d 248      46.251  23.951   7.101  0.00  0.00     0.210 HD
ATOM    196  H   SGN d 248      43.256  22.708  10.140  0.00  0.00     0.231 HD
ATOM    197  H   SGN d 248      44.205  24.703   9.350  0.00  0.00     0.140 HD
ATOM    198  H   SGN d 248      44.484  25.260   5.128  0.00  0.00     0.091 H 
ATOM    199  H   SGN d 248      45.682  28.403   4.107  0.00  0.00     0.080 H 
ATOM    200  H   SGN d 248      43.950  28.628   4.093  0.00  0.00     0.080 H 
ATOM    201  H   SGN d 248      40.724  25.458   8.841  0.00  0.00     0.231 HD
ATOM    202  H   SGN d 248      42.837  24.961   7.086  0.00  0.00     0.076 H 
ATOM    203  H   SGN d 248      45.576  26.021   7.859  0.00  0.00     0.089 H 
ATOM    204  H   SGN d 248      42.069  27.221   7.764  0.00  0.00     0.131 H 
ATOM    205  H   SGN d 248      45.333  27.905   6.281  0.00  0.00     0.090 H 
ENDROOT
TORSDOF 64
ENDMDL
MODEL 2
REMARK VINA RESULT:      -9.4      1.909      2.297
REMARK  0 active torsions:
REMARK  status: ('A' for Active; 'I' for Inactive)
REMARK       I    between atoms: C5_1  and  C6_97 
REMARK       I    between atoms: O2_2  and  C2_107 
REMARK       I    between atoms: O2_2  and  S_88 
REMARK       I    between atoms: O3_4  and  C3_95 
REMARK       I    between atoms: C1_5  and  O1_40 
REMARK       I    between atoms: C3_6  and  C2_70 
REMARK       I    between atoms: C3_6  and  O3_51 
REMARK       I    between atoms: C2_7  and  O2_9 
REMARK       I    between atoms: C2_8  and  O2_75 
REMARK       I    between atoms: O2_9  and  S_23 
REMARK       I    between atoms: S2_14  and  O6_117 
REMARK       I    between atoms: C1_15  and  O1_130 
REMARK       I    between atoms: C4_16  and  O1_59 
REMARK       I    between atoms: S1_17  and  N_128 
REMARK       I    between atoms: S1_17  and  O1S_46 
REMARK       I    between atoms: S1_17  and  O2S_29 
REMARK       I    between atoms: S1_17  and  O3S_24 
REMARK       I    between atoms: C2_18  and  N_86 
REMARK       I    between atoms: S1_19  and  N_86 
REMARK       I    between atoms: S1_19  and  O1S_71 
REMARK       I    between atoms: S1_19  and  O2S_34 
REMARK       I    between atoms: S1_19  and  O3S_81 
REMARK       I    between atoms: O2S_22  and  S1_111 
REMARK       I    between atoms: C1_25  and  O1_58 
REMARK       I    between atoms: C4_27  and  O1_58 
REMARK       I    between atoms: O2S_28  and  S1_48 
REMARK       I    between atoms: O3_32  and  C3_49 
REMARK       I    between atoms: O2_33  and  C2_70 
REMARK       I    between atoms: O2_33  and  S_133 
REMARK       I    between atoms: C5_37  and  C6_84 
REMARK       I    between atoms: C5_41  and  C6_43 
REMARK       I    between atoms: O6_42  and  C6_84 
REMARK       I    between atoms: O6_42  and  S2_77 
REMARK       I    between atoms: C5_44  and  C6_108 
REMARK       I    between atoms: O1_45  and  C1_120 
REMARK       I    between atoms: O1_45  and  C4_114 
REMARK       I    between atoms: S2_47  and  O6_94 
REMARK       I    between atoms: S1_48  and  N_53 
REMARK       I    between atoms: S1_48  and  O1S_52 
REMARK       I    between atoms: S1_48  and  O3S_83 
REMARK       I    between atoms: O3_50  and  C3_119 
REMARK       I    between atoms: N_53  and  C2_89 
REMARK       I    between atoms: S_55  and  O2_75 
REMARK       I    between atoms: O3_56  and  C3_124 
REMARK       I    between atoms: O1_59  and  C1_110 
REMARK       I    between atoms: S2_60  and  O6_132 
REMARK       I    between atoms: O3_61  and  C3_115 
REMARK       I    between atoms: C6_62  and  C5_106 
REMARK       I    between atoms: C6_62  and  O6_94 
REMARK       I    between atoms: C4_63  and  O1_96 
REMARK       I    between atoms: O3_67  and  C3_93 
REMARK       I    between atoms: O1_69  and  C1_113 
REMARK       I    between atoms: O1_69  and  C4_103 
REMARK       I    between atoms: C2_70  and  C1_76 
REMARK       I    between atoms: C5_74  and  C6_90 
REMARK       I    between atoms: C1_76  and  O1_96 
REMARK       I    between atoms: C4_78  and  O1_112 
REMARK       I    between atoms: C6_80  and  C5_134 
REMARK       I    between atoms: C6_80  and  O6_132 
REMARK       I    between atoms: C6_90  and  O6_117 
REMARK       I    between atoms: C2_98  and  N_128 
REMARK       I    between atoms: C1_100  and  O1_112 
REMARK       I    between atoms: S1_111  and  O1S_116 
REMARK       I    between atoms: C4_127  and  O1_130 
ROOT
ATOM      1  C5  IDS d 249      44.182  29.834  10.172  0.00  0.00     0.152 C 
ATOM      2  O2  IDS d 249      46.333  27.710  12.995  0.00  0.00    -0.244 OA
ATOM      3  O1S IDS d 249      46.043  25.368  12.397  0.00  0.00    -0.572 OA
ATOM      4  O5  IDS d 249      45.583  29.554   9.944  0.00  0.00    -0.340 OA
ATOM      5  O1  IDS d 249      46.695  30.510  11.719  0.00  0.00    -0.348 OA
ATOM      6  O62 IDS d 249      43.983  30.190   7.791  0.00  0.00    -0.646 OA
ATOM      7  O3  IDS d 249      43.327  27.384  12.337  0.00  0.00    -0.390 OA
ATOM      8  S   IDS d 249      47.092  26.369  12.505  0.00  0.00     0.252 S 
ATOM      9  C3  IDS d 249      44.416  27.723  11.588  0.00  0.00     0.094 C 
ATOM     10  C6  IDS d 249      43.575  30.471   8.904  0.00  0.00     0.206 C 
ATOM     11  O3S IDS d 249      48.059  26.057  13.536  0.00  0.00    -0.572 OA
ATOM     12  C2  IDS d 249      45.493  28.583  12.209  0.00  0.00     0.134 C 
ATOM     13  C1  IDS d 249      46.332  29.318  11.130  0.00  0.00     0.161 C 
ATOM     14  C4  IDS d 249      43.502  28.483  10.591  0.00  0.00     0.103 C 
ATOM     15  O2S IDS d 249      47.700  26.647  11.227  0.00  0.00    -0.572 OA
ATOM     16  O61 IDS d 249      42.660  31.290   8.993  0.00  0.00    -0.646 OA
ATOM     17  H   IDS d 249      44.026  30.541  10.960  0.00  0.00     0.104 H 
ATOM     18  H   IDS d 249      43.611  26.857  13.100  0.00  0.00     0.210 HD
ATOM     19  H   IDS d 249      45.073  26.936  11.279  0.00  0.00     0.091 H 
ATOM     20  H   IDS d 249      45.048  29.341  12.819  0.00  0.00     0.097 H 
ATOM     21  H   IDS d 249      47.175  28.734  10.826  0.00  0.00     0.133 H 
ATOM     22  H   IDS d 249      42.533  28.523  11.043  0.00  0.00     0.092 H 
ATOM     23  O3  SGN d 246      44.609  22.469  -1.337  0.00  0.00    -0.215 OA
ATOM     24  S2  SGN d 246      45.494  16.473   1.189  0.00  0.00     0.251 S 
ATOM     25  O6S SGN d 246      46.711  17.144   1.552  0.00  0.00    -0.572 OA
ATOM     26  O2S SGN d 246      48.331  23.622  -1.795  0.00  0.00    -0.294 OA
ATOM     27  C3  SGN d 246      44.794  21.898  -0.060  0.00  0.00     0.121 C 
ATOM     28  C2  SGN d 246      46.292  21.736   0.236  0.00  0.00     0.084 C 
ATOM     29  O4S SGN d 246      44.872  15.793   2.294  0.00  0.00    -0.572 OA
ATOM     30  O5S SGN d 246      45.645  15.640   0.023  0.00  0.00    -0.572 OA
ATOM     31  N   SGN d 246      46.950  23.043   0.196  0.00  0.00    -0.208 NA
ATOM     32  C4  SGN d 246      44.167  20.531  -0.038  0.00  0.00     0.095 C 
ATOM     33  O1  SGN d 246      45.895  21.882   2.669  0.00  0.00    -0.348 OA
ATOM     34  C5  SGN d 246      44.383  19.891   1.398  0.00  0.00     0.091 C 
ATOM     35  C6  SGN d 246      43.808  18.463   1.561  0.00  0.00     0.067 C 
ATOM     36  S1  SGN d 246      47.030  23.884  -1.213  0.00  0.00     0.188 S 
ATOM     37  C1  SGN d 246      46.484  21.070   1.669  0.00  0.00     0.151 C 
ATOM     38  O1S SGN d 246      46.820  25.284  -0.898  0.00  0.00    -0.294 OA
ATOM     39  O6  SGN d 246      44.519  17.578   0.739  0.00  0.00    -0.254 OA
ATOM     40  O5  SGN d 246      45.825  19.805   1.702  0.00  0.00    -0.349 OA
ATOM     41  O3S SGN d 246      45.954  23.341  -2.014  0.00  0.00    -0.119 OA
ATOM     42  H   SGN d 246      49.021  24.001  -1.229  0.00  0.00     0.231 HD
ATOM     43  H   SGN d 246      44.347  22.538   0.671  0.00  0.00     0.095 H 
ATOM     44  H   SGN d 246      46.735  21.104  -0.506  0.00  0.00     0.077 H 
ATOM     45  H   SGN d 246      47.911  22.898   0.506  0.00  0.00     0.140 HD
ATOM     46  H   SGN d 246      44.611  19.871  -0.753  0.00  0.00     0.091 H 
ATOM     47  H   SGN d 246      43.856  20.540   2.065  0.00  0.00     0.090 H 
ATOM     48  H   SGN d 246      42.775  18.460   1.281  0.00  0.00     0.080 H 
ATOM     49  H   SGN d 246      43.901  18.155   2.582  0.00  0.00     0.080 H 
ATOM     50  H   SGN d 246      47.533  20.959   1.849  0.00  0.00     0.131 H 
ATOM     51  H   SGN d 246      47.560  25.610  -0.362  0.00  0.00     0.231 HD
ATOM     52  O3  SGN d 250      46.540  32.886  10.216  0.00  0.00    -0.391 OA
ATOM     53  O5S SGN d 250      51.907  28.777  14.765  0.00  0.00    -0.572 OA
ATOM     54  C4  SGN d 250      47.870  31.170  11.284  0.00  0.00     0.095 C 
ATOM     55  S1  SGN d 250      48.090  35.675   9.323  0.00  0.00     0.156 S 
ATOM     56  O3S SGN d 250      49.130  36.674   9.109  0.00  0.00    -0.296 OA
ATOM     57  C1  SGN d 250      49.894  33.129  11.916  0.00  0.00     0.150 C 
ATOM     58  O2S SGN d 250      46.778  36.283   9.604  0.00  0.00    -0.296 OA
ATOM     59  C5  SGN d 250      49.013  30.940  12.331  0.00  0.00     0.091 C 
ATOM     60  O6  SGN d 250      49.788  29.202  13.782  0.00  0.00    -0.254 OA
ATOM     61  O1S SGN d 250      48.062  34.699   8.244  0.00  0.00    -0.296 OA
ATOM     62  O1  SGN d 250      49.214  33.336  13.139  0.00  0.00    -0.348 OA
ATOM     63  S2  SGN d 250      50.760  28.074  14.256  0.00  0.00     0.251 S 
ATOM     64  C6  SGN d 250      49.415  29.466  12.463  0.00  0.00     0.067 C 
ATOM     65  C3  SGN d 250      47.556  32.679  11.188  0.00  0.00     0.083 C 
ATOM     66  C2  SGN d 250      48.848  33.440  10.775  0.00  0.00     0.081 C 
ATOM     67  O6S SGN d 250      50.050  27.350  15.301  0.00  0.00    -0.572 OA
ATOM     68  O5  SGN d 250      50.200  31.724  11.929  0.00  0.00    -0.349 OA
ATOM     69  O4S SGN d 250      51.073  27.257  13.094  0.00  0.00    -0.572 OA
ATOM     70  N   SGN d 250      48.545  34.908  10.729  0.00  0.00    -0.210 NA
ATOM     71  H   SGN d 250      45.738  32.409  10.480  0.00  0.00     0.210 HD
ATOM     72  H   SGN d 250      48.187  30.792  10.334  0.00  0.00     0.091 H 
ATOM     73  H   SGN d 250      49.972  36.229   8.928  0.00  0.00     0.231 HD
ATOM     74  H   SGN d 250      50.771  33.726  11.773  0.00  0.00     0.131 H 
ATOM     75  H   SGN d 250      46.120  35.583   9.739  0.00  0.00     0.231 HD
ATOM     76  H   SGN d 250      48.638  31.257  13.282  0.00  0.00     0.090 H 
ATOM     77  H   SGN d 250      47.362  34.050   8.413  0.00  0.00     0.231 HD
ATOM     78  H   SGN d 250      50.239  29.262  11.812  0.00  0.00     0.080 H 
ATOM     79  H   SGN d 250      48.587  28.845  12.195  0.00  0.00     0.080 H 
ATOM     80  H   SGN d 250      47.216  33.043  12.135  0.00  0.00     0.089 H 
ATOM     81  H   SGN d 250      49.219  33.148   9.815  0.00  0.00     0.076 H 
ATOM     82  H   SGN d 250      47.789  35.064  11.397  0.00  0.00     0.140 HD
ATOM     83  C1  SGN d 252      47.578  33.539  21.159  0.00  0.00     0.147 C 
ATOM     84  C2  SGN d 252      47.686  32.524  19.998  0.00  0.00     0.081 C 
ATOM     85  S1  SGN d 252      48.323  30.049  20.916  0.00  0.00     0.156 S 
ATOM     86  O3  SGN d 252      48.120  32.384  17.688  0.00  0.00    -0.391 OA
ATOM     87  O2S SGN d 252      47.784  29.300  19.799  0.00  0.00    -0.296 OA
ATOM     88  O1  SGN d 252      48.853  34.189  21.335  0.00  0.00    -0.369 OA
ATOM     89  S2  SGN d 252      43.020  35.801  19.011  0.00  0.00     0.251 S 
ATOM     90  C3  SGN d 252      48.021  33.299  18.727  0.00  0.00     0.083 C 
ATOM     91  C6  SGN d 252      45.606  36.294  19.571  0.00  0.00     0.067 C 
ATOM     92  O6S SGN d 252      42.849  35.842  20.460  0.00  0.00    -0.572 OA
ATOM     93  O1S SGN d 252      47.351  30.276  21.968  0.00  0.00    -0.296 OA
ATOM     94  O3S SGN d 252      49.556  29.457  21.430  0.00  0.00    -0.296 OA
ATOM     95  N   SGN d 252      48.758  31.533  20.308  0.00  0.00    -0.210 NA
ATOM     96  O5  SGN d 252      46.539  34.518  20.870  0.00  0.00    -0.350 OA
ATOM     97  O6  SGN d 252      44.583  35.776  18.748  0.00  0.00    -0.254 OA
ATOM     98  O5S SGN d 252      42.548  34.549  18.429  0.00  0.00    -0.572 OA
ATOM     99  C5  SGN d 252      46.747  35.273  19.657  0.00  0.00     0.091 C 
ATOM    100  C4  SGN d 252      46.854  34.310  18.432  0.00  0.00     0.095 C 
ATOM    101  O4S SGN d 252      42.484  36.977  18.339  0.00  0.00    -0.572 OA
ATOM    102  H   SGN d 252      47.315  33.029  22.063  0.00  0.00     0.131 H 
ATOM    103  H   SGN d 252      46.766  31.994  19.865  0.00  0.00     0.076 H 
ATOM    104  H   SGN d 252      48.842  31.762  17.874  0.00  0.00     0.210 HD
ATOM    105  H   SGN d 252      46.969  29.724  19.489  0.00  0.00     0.231 HD
ATOM    106  H   SGN d 252      49.095  34.652  20.518  0.00  0.00     0.212 HD
ATOM    107  H   SGN d 252      48.939  33.839  18.832  0.00  0.00     0.089 H 
ATOM    108  H   SGN d 252      45.973  37.208  19.154  0.00  0.00     0.080 H 
ATOM    109  H   SGN d 252      45.219  36.486  20.550  0.00  0.00     0.080 H 
ATOM    110  H   SGN d 252      46.548  30.668  21.588  0.00  0.00     0.231 HD
ATOM    111  H   SGN d 252      49.883  29.987  22.174  0.00  0.00     0.231 HD
ATOM    112  H   SGN d 252      49.379  31.966  20.991  0.00  0.00     0.140 HD
ATOM    113  H   SGN d 252      47.673  35.809  19.657  0.00  0.00     0.090 H 
ATOM    114  H   SGN d 252      45.946  33.769  18.263  0.00  0.00     0.091 H 
ATOM    115  C3  IDS d 245      41.135  18.459  -2.689  0.00  0.00     0.044 C 
ATOM    116  O2S IDS d 245      40.189  18.802   1.781  0.00  0.00    -0.572 OA
ATOM    117  O2  IDS d 245      41.374  18.451  -0.330  0.00  0.00    -0.247 OA
ATOM    118  O3S IDS d 245      39.097  17.696  -0.077  0.00  0.00    -0.572 OA
ATOM    119  O3  IDS d 245      40.017  17.608  -2.614  0.00  0.00    -0.398 OA
ATOM    120  C2  IDS d 245      41.197  19.310  -1.456  0.00  0.00     0.100 C 
ATOM    121  C1  IDS d 245      42.399  20.205  -1.614  0.00  0.00     0.048 C 
ATOM    122  O1  IDS d 245      42.779  20.692  -0.353  0.00  0.00    -0.378 OA
ATOM    123  O1S IDS d 245      40.899  16.599   1.102  0.00  0.00    -0.572 OA
ATOM    124  S   IDS d 245      40.316  17.865   0.679  0.00  0.00     0.252 S 
ATOM    125  H   IDS d 245      42.026  17.872  -2.763  0.00  0.00     0.078 H 
ATOM    126  H   IDS d 245      41.050  19.086  -3.552  0.00  0.00     0.078 H 
ATOM    127  H   IDS d 245      40.094  17.040  -1.832  0.00  0.00     0.209 HD
ATOM    128  H   IDS d 245      40.310  19.890  -1.316  0.00  0.00     0.092 H 
ATOM    129  H   IDS d 245      42.154  21.025  -2.256  0.00  0.00     0.078 H 
ATOM    130  H   IDS d 245      43.207  19.651  -2.045  0.00  0.00     0.078 H 
ATOM    131  C2  IDS d 247      46.543  25.212   3.841  0.00  0.00     0.134 C 
ATOM    132  O2  IDS d 247      46.614  26.430   3.068  0.00  0.00    -0.244 OA
ATOM    133  S   IDS d 247      47.908  27.361   2.749  0.00  0.00     0.252 S 
ATOM    134  C5  IDS d 247      45.852  22.786   4.896  0.00  0.00     0.152 C 
ATOM    135  O1S IDS d 247      48.832  27.063   3.825  0.00  0.00    -0.572 OA
ATOM    136  O3  IDS d 247      48.157  24.200   2.384  0.00  0.00    -0.390 OA
ATOM    137  O3S IDS d 247      47.452  28.753   2.774  0.00  0.00    -0.572 OA
ATOM    138  O62 IDS d 247      44.072  21.261   5.447  0.00  0.00    -0.646 OA
ATOM    139  O61 IDS d 247      46.004  20.531   5.727  0.00  0.00    -0.646 OA
ATOM    140  O5  IDS d 247      44.761  23.715   4.670  0.00  0.00    -0.340 OA
ATOM    141  O2S IDS d 247      48.431  26.959   1.460  0.00  0.00    -0.572 OA
ATOM    142  C1  IDS d 247      45.143  25.079   4.471  0.00  0.00     0.161 C 
ATOM    143  C4  IDS d 247      46.689  22.661   3.560  0.00  0.00     0.103 C 
ATOM    144  C6  IDS d 247      45.271  21.447   5.390  0.00  0.00     0.206 C 
ATOM    145  O1  IDS d 247      45.198  25.773   5.665  0.00  0.00    -0.348 OA
ATOM    146  C3  IDS d 247      46.840  24.057   2.902  0.00  0.00     0.094 C 
ATOM    147  H   IDS d 247      47.256  25.218   4.640  0.00  0.00     0.097 H 
ATOM    148  H   IDS d 247      46.522  23.130   5.656  0.00  0.00     0.104 H 
ATOM    149  H   IDS d 247      48.250  25.074   1.973  0.00  0.00     0.210 HD
ATOM    150  H   IDS d 247      44.395  25.478   3.819  0.00  0.00     0.133 H 
ATOM    151  H   IDS d 247      47.651  22.239   3.760  0.00  0.00     0.092 H 
ATOM    152  H   IDS d 247      46.111  24.100   2.120  0.00  0.00     0.091 H 
ATOM    153  C2  IDS d 251      47.384  35.796  14.954  0.00  0.00     0.134 C 
ATOM    154  C1  IDS d 251      47.008  34.619  15.897  0.00  0.00     0.161 C 
ATOM    155  O62 IDS d 251      51.393  32.666  15.667  0.00  0.00    -0.646 OA
ATOM    156  C4  IDS d 251      49.356  34.440  13.940  0.00  0.00     0.103 C 
ATOM    157  C5  IDS d 251      49.277  33.847  15.379  0.00  0.00     0.152 C 
ATOM    158  C6  IDS d 251      50.179  32.581  15.582  0.00  0.00     0.206 C 
ATOM    159  S   IDS d 251      44.819  35.869  13.957  0.00  0.00     0.252 S 
ATOM    160  O3  IDS d 251      48.460  36.427  12.894  0.00  0.00    -0.390 OA
ATOM    161  O61 IDS d 251      49.678  31.454  15.651  0.00  0.00    -0.646 OA
ATOM    162  O3S IDS d 251      43.911  36.991  13.924  0.00  0.00    -0.572 OA
ATOM    163  O2  IDS d 251      46.209  36.483  14.517  0.00  0.00    -0.244 OA
ATOM    164  O2S IDS d 251      44.389  34.814  14.857  0.00  0.00    -0.572 OA
ATOM    165  O5  IDS d 251      47.870  33.498  15.636  0.00  0.00    -0.340 OA
ATOM    166  C3  IDS d 251      48.101  35.310  13.685  0.00  0.00     0.094 C 
ATOM    167  O1S IDS d 251      45.138  35.359  12.630  0.00  0.00    -0.572 OA
ATOM    168  O1  IDS d 251      47.156  35.126  17.236  0.00  0.00    -0.348 OA
ATOM    169  H   IDS d 251      48.027  36.435  15.520  0.00  0.00     0.097 H 
ATOM    170  H   IDS d 251      46.009  34.269  15.746  0.00  0.00     0.133 H 
ATOM    171  H   IDS d 251      50.244  35.014  13.778  0.00  0.00     0.092 H 
ATOM    172  H   IDS d 251      49.642  34.582  16.065  0.00  0.00     0.104 H 
ATOM    173  H   IDS d 251      47.676  36.974  12.732  0.00  0.00     0.210 HD
ATOM    174  H   IDS d 251      47.402  34.675  13.182  0.00  0.00     0.091 H 
ATOM    175  O5S SGN d 248      42.543  24.857   4.256  0.00  0.00    -0.572 OA
ATOM    176  O4S SGN d 248      40.802  26.343   3.467  0.00  0.00    -0.572 OA
ATOM    177  O2S SGN d 248      42.166  24.566  12.208  0.00  0.00    -0.296 OA
ATOM    178  O1  SGN d 248      43.670  27.815   9.147  0.00  0.00    -0.348 OA
ATOM    179  S1  SGN d 248      42.022  24.215  10.801  0.00  0.00     0.156 S 
ATOM    180  O3  SGN d 248      44.518  24.041   7.746  0.00  0.00    -0.391 OA
ATOM    181  O1S SGN d 248      42.304  22.824  10.516  0.00  0.00    -0.296 OA
ATOM    182  N   SGN d 248      43.143  25.140  10.008  0.00  0.00    -0.210 NA
ATOM    183  S2  SGN d 248      41.845  26.116   4.451  0.00  0.00     0.251 S 
ATOM    184  C4  SGN d 248      43.987  25.957   6.384  0.00  0.00     0.095 C 
ATOM    185  C6  SGN d 248      43.372  28.149   5.122  0.00  0.00     0.067 C 
ATOM    186  O6S SGN d 248      41.393  26.303   5.815  0.00  0.00    -0.572 OA
ATOM    187  O3S SGN d 248      40.731  24.608  10.270  0.00  0.00    -0.296 OA
ATOM    188  O5  SGN d 248      42.417  27.643   7.293  0.00  0.00    -0.349 OA
ATOM    189  C2  SGN d 248      42.920  25.626   8.617  0.00  0.00     0.081 C 
ATOM    190  C3  SGN d 248      44.205  25.424   7.800  0.00  0.00     0.083 C 
ATOM    191  C1  SGN d 248      42.588  27.157   8.621  0.00  0.00     0.150 C 
ATOM    192  O6  SGN d 248      42.940  27.188   4.211  0.00  0.00    -0.254 OA
ATOM    193  C5  SGN d 248      43.631  27.481   6.482  0.00  0.00     0.091 C 
ATOM    194  H   SGN d 248      43.040  24.287  12.524  0.00  0.00     0.231 HD
ATOM    195  H   SGN d 248      45.330  23.914   7.230  0.00  0.00     0.210 HD
ATOM    196  H   SGN d 248      43.171  22.589  10.882  0.00  0.00     0.231 HD
ATOM    197  H   SGN d 248      44.003  24.592   9.985  0.00  0.00     0.140 HD
ATOM    198  H   SGN d 248      43.191  25.446   5.884  0.00  0.00     0.091 H 
ATOM    199  H   SGN d 248      44.276  28.597   4.767  0.00  0.00     0.080 H 
ATOM    200  H   SGN d 248      42.621  28.903   5.231  0.00  0.00     0.080 H 
ATOM    201  H   SGN d 248      40.568  25.542  10.474  0.00  0.00     0.231 HD
ATOM    202  H   SGN d 248      42.105  25.079   8.191  0.00  0.00     0.076 H 
ATOM    203  H   SGN d 248      45.014  25.951   8.262  0.00  0.00     0.089 H 
ATOM    204  H   SGN d 248      41.691  27.316   9.182  0.00  0.00     0.131 H 
ATOM    205  H   SGN d 248      44.484  27.956   6.921  0.00  0.00     0.090 H 
ENDROOT
TORSDOF 64
ENDMDL
MODEL 3
REMARK VINA RESULT:      -6.5      2.708     17.722
REMARK  0 active torsions:
REMARK  status: ('A' for Active; 'I' for Inactive)
REMARK       I    between atoms: C5_1  and  C6_97 
REMARK       I    between atoms: O2_2  and  C2_107 
REMARK       I    between atoms: O2_2  and  S_88 
REMARK       I    between atoms: O3_4  and  C3_95 
REMARK       I    between atoms: C1_5  and  O1_40 
REMARK       I    between atoms: C3_6  and  C2_70 
REMARK       I    between atoms: C3_6  and  O3_51 
REMARK       I    between atoms: C2_7  and  O2_9 
REMARK       I    between atoms: C2_8  and  O2_75 
REMARK       I    between atoms: O2_9  and  S_23 
REMARK       I    between atoms: S2_14  and  O6_117 
REMARK       I    between atoms: C1_15  and  O1_130 
REMARK       I    between atoms: C4_16  and  O1_59 
REMARK       I    between atoms: S1_17  and  N_128 
REMARK       I    between atoms: S1_17  and  O1S_46 
REMARK       I    between atoms: S1_17  and  O2S_29 
REMARK       I    between atoms: S1_17  and  O3S_24 
REMARK       I    between atoms: C2_18  and  N_86 
REMARK       I    between atoms: S1_19  and  N_86 
REMARK       I    between atoms: S1_19  and  O1S_71 
REMARK       I    between atoms: S1_19  and  O2S_34 
REMARK       I    between atoms: S1_19  and  O3S_81 
REMARK       I    between atoms: O2S_22  and  S1_111 
REMARK       I    between atoms: C1_25  and  O1_58 
REMARK       I    between atoms: C4_27  and  O1_58 
REMARK       I    between atoms: O2S_28  and  S1_48 
REMARK       I    between atoms: O3_32  and  C3_49 
REMARK       I    between atoms: O2_33  and  C2_70 
REMARK       I    between atoms: O2_33  and  S_133 
REMARK       I    between atoms: C5_37  and  C6_84 
REMARK       I    between atoms: C5_41  and  C6_43 
REMARK       I    between atoms: O6_42  and  C6_84 
REMARK       I    between atoms: O6_42  and  S2_77 
REMARK       I    between atoms: C5_44  and  C6_108 
REMARK       I    between atoms: O1_45  and  C1_120 
REMARK       I    between atoms: O1_45  and  C4_114 
REMARK       I    between atoms: S2_47  and  O6_94 
REMARK       I    between atoms: S1_48  and  N_53 
REMARK       I    between atoms: S1_48  and  O1S_52 
REMARK       I    between atoms: S1_48  and  O3S_83 
REMARK       I    between atoms: O3_50  and  C3_119 
REMARK       I    between atoms: N_53  and  C2_89 
REMARK       I    between atoms: S_55  and  O2_75 
REMARK       I    between atoms: O3_56  and  C3_124 
REMARK       I    between atoms: O1_59  and  C1_110 
REMARK       I    between atoms: S2_60  and  O6_132 
REMARK       I    between atoms: O3_61  and  C3_115 
REMARK       I    between atoms: C6_62  and  C5_106 
REMARK       I    between atoms: C6_62  and  O6_94 
REMARK       I    between atoms: C4_63  and  O1_96 
REMARK       I    between atoms: O3_67  and  C3_93 
REMARK       I    between atoms: O1_69  and  C1_113 
REMARK       I    between atoms: O1_69  and  C4_103 
REMARK       I    between atoms: C2_70  and  C1_76 
REMARK       I    between atoms: C5_74  and  C6_90 
REMARK       I    between atoms: C1_76  and  O1_96 
REMARK       I    between atoms: C4_78  and  O1_112 
REMARK       I    between atoms: C6_80  and  C5_134 
REMARK       I    between atoms: C6_80  and  O6_132 
REMARK       I    between atoms: C6_90  and  O6_117 
REMARK       I    between atoms: C2_98  and  N_128 
REMARK       I    between atoms: C1_100  and  O1_112 
REMARK       I    between atoms: S1_111  and  O1S_116 
REMARK       I    between atoms: C4_127  and  O1_130 
ROOT
ATOM      1  C5  IDS d 249      47.361  25.723   8.785  0.00  0.00     0.152 C 
ATOM      2  O2  IDS d 249      44.917  26.162   5.479  0.00  0.00    -0.244 OA
ATOM      3  O1S IDS d 249      43.088  27.591   6.214  0.00  0.00    -0.572 OA
ATOM      4  O5  IDS d 249      47.611  26.796   7.847  0.00  0.00    -0.340 OA
ATOM      5  O1  IDS d 249      47.971  25.765   5.820  0.00  0.00    -0.348 OA
ATOM      6  O62 IDS d 249      48.643  26.988  10.396  0.00  0.00    -0.646 OA
ATOM      7  O3  IDS d 249      44.085  25.086   8.257  0.00  0.00    -0.390 OA
ATOM      8  S   IDS d 249      44.191  27.592   5.267  0.00  0.00     0.252 S 
ATOM      9  C3  IDS d 249      45.004  26.009   7.849  0.00  0.00     0.094 C 
ATOM     10  C6  IDS d 249      48.288  25.889  10.009  0.00  0.00     0.206 C 
ATOM     11  O3S IDS d 249      43.747  27.616   3.890  0.00  0.00    -0.572 OA
ATOM     12  C2  IDS d 249      45.771  25.761   6.571  0.00  0.00     0.134 C 
ATOM     13  C1  IDS d 249      47.104  26.558   6.540  0.00  0.00     0.161 C 
ATOM     14  C4  IDS d 249      45.833  25.762   9.138  0.00  0.00     0.103 C 
ATOM     15  O2S IDS d 249      45.153  28.624   5.567  0.00  0.00    -0.572 OA
ATOM     16  O61 IDS d 249      48.696  24.901  10.621  0.00  0.00    -0.646 OA
ATOM     17  H   IDS d 249      47.583  24.759   8.377  0.00  0.00     0.104 H 
ATOM     18  H   IDS d 249      43.382  25.015   7.593  0.00  0.00     0.210 HD
ATOM     19  H   IDS d 249      44.647  26.979   7.574  0.00  0.00     0.091 H 
ATOM     20  H   IDS d 249      46.033  24.727   6.496  0.00  0.00     0.097 H 
ATOM     21  H   IDS d 249      46.969  27.526   6.103  0.00  0.00     0.133 H 
ATOM     22  H   IDS d 249      45.401  24.907   9.613  0.00  0.00     0.092 H 
ATOM     23  O3  SGN d 246      46.159  37.260  16.021  0.00  0.00    -0.215 OA
ATOM     24  S2  SGN d 246      40.173  39.171  14.117  0.00  0.00     0.251 S 
ATOM     25  O6S SGN d 246      40.929  39.267  12.900  0.00  0.00    -0.572 OA
ATOM     26  O2S SGN d 246      48.384  39.042  13.324  0.00  0.00    -0.294 OA
ATOM     27  C3  SGN d 246      45.169  36.820  15.118  0.00  0.00     0.121 C 
ATOM     28  C2  SGN d 246      45.319  37.544  13.772  0.00  0.00     0.084 C 
ATOM     29  O4S SGN d 246      38.938  38.449  13.959  0.00  0.00    -0.572 OA
ATOM     30  O5S SGN d 246      40.007  40.444  14.771  0.00  0.00    -0.572 OA
ATOM     31  N   SGN d 246      46.639  37.267  13.205  0.00  0.00    -0.208 NA
ATOM     32  C4  SGN d 246      43.812  37.157  15.676  0.00  0.00     0.095 C 
ATOM     33  O1  SGN d 246      44.278  35.657  12.566  0.00  0.00    -0.348 OA
ATOM     34  C5  SGN d 246      42.702  36.665  14.655  0.00  0.00     0.091 C 
ATOM     35  C6  SGN d 246      41.247  36.969  15.088  0.00  0.00     0.067 C 
ATOM     36  S1  SGN d 246      47.993  37.803  13.966  0.00  0.00     0.188 S 
ATOM     37  C1  SGN d 246      44.180  37.054  12.773  0.00  0.00     0.151 C 
ATOM     38  O1S SGN d 246      48.997  36.762  13.852  0.00  0.00    -0.294 OA
ATOM     39  O6  SGN d 246      41.043  38.357  15.094  0.00  0.00    -0.254 OA
ATOM     40  O5  SGN d 246      42.898  37.313  13.343  0.00  0.00    -0.349 OA
ATOM     41  O3S SGN d 246      47.575  38.005  15.336  0.00  0.00    -0.119 OA
ATOM     42  H   SGN d 246      48.655  38.861  12.411  0.00  0.00     0.231 HD
ATOM     43  H   SGN d 246      45.275  35.765  14.977  0.00  0.00     0.095 H 
ATOM     44  H   SGN d 246      45.221  38.599  13.923  0.00  0.00     0.077 H 
ATOM     45  H   SGN d 246      46.648  37.673  12.269  0.00  0.00     0.140 HD
ATOM     46  H   SGN d 246      43.680  38.210  15.811  0.00  0.00     0.091 H 
ATOM     47  H   SGN d 246      42.822  35.603  14.615  0.00  0.00     0.090 H 
ATOM     48  H   SGN d 246      41.078  36.579  16.070  0.00  0.00     0.080 H 
ATOM     49  H   SGN d 246      40.566  36.511  14.401  0.00  0.00     0.080 H 
ATOM     50  H   SGN d 246      44.299  37.577  11.848  0.00  0.00     0.131 H 
ATOM     51  H   SGN d 246      49.251  36.657  12.922  0.00  0.00     0.231 HD
ATOM     52  O3  SGN d 250      50.615  25.444   6.733  0.00  0.00    -0.391 OA
ATOM     53  O5S SGN d 250      46.617  27.561  -0.044  0.00  0.00    -0.572 OA
ATOM     54  C4  SGN d 250      49.052  26.365   5.132  0.00  0.00     0.095 C 
ATOM     55  S1  SGN d 250      53.824  25.464   5.909  0.00  0.00     0.156 S 
ATOM     56  O3S SGN d 250      55.062  25.672   5.168  0.00  0.00    -0.296 OA
ATOM     57  C1  SGN d 250      51.021  26.076   3.040  0.00  0.00     0.150 C 
ATOM     58  O2S SGN d 250      53.858  24.239   6.725  0.00  0.00    -0.296 OA
ATOM     59  C5  SGN d 250      48.719  26.435   3.602  0.00  0.00     0.091 C 
ATOM     60  O6  SGN d 250      46.817  26.807   2.199  0.00  0.00    -0.254 OA
ATOM     61  O1S SGN d 250      53.448  26.654   6.657  0.00  0.00    -0.296 OA
ATOM     62  O1  SGN d 250      50.478  24.791   2.802  0.00  0.00    -0.348 OA
ATOM     63  S2  SGN d 250      45.916  27.616   1.212  0.00  0.00     0.251 S 
ATOM     64  C6  SGN d 250      47.511  27.327   3.292  0.00  0.00     0.067 C 
ATOM     65  C3  SGN d 250      50.299  25.481   5.347  0.00  0.00     0.083 C 
ATOM     66  C2  SGN d 250      51.491  26.081   4.548  0.00  0.00     0.081 C 
ATOM     67  O6S SGN d 250      44.644  26.908   1.162  0.00  0.00    -0.572 OA
ATOM     68  O5  SGN d 250      49.897  26.957   2.875  0.00  0.00    -0.349 OA
ATOM     69  O4S SGN d 250      45.806  28.969   1.734  0.00  0.00    -0.572 OA
ATOM     70  N   SGN d 250      52.684  25.190   4.726  0.00  0.00    -0.210 NA
ATOM     71  H   SGN d 250      49.868  25.070   7.225  0.00  0.00     0.210 HD
ATOM     72  H   SGN d 250      49.228  27.357   5.495  0.00  0.00     0.091 H 
ATOM     73  H   SGN d 250      54.994  26.487   4.647  0.00  0.00     0.231 HD
ATOM     74  H   SGN d 250      51.839  26.352   2.408  0.00  0.00     0.131 H 
ATOM     75  H   SGN d 250      53.016  24.142   7.198  0.00  0.00     0.231 HD
ATOM     76  H   SGN d 250      48.474  25.442   3.287  0.00  0.00     0.090 H 
ATOM     77  H   SGN d 250      52.623  26.486   7.139  0.00  0.00     0.231 HD
ATOM     78  H   SGN d 250      47.848  28.316   3.063  0.00  0.00     0.080 H 
ATOM     79  H   SGN d 250      46.864  27.359   4.143  0.00  0.00     0.080 H 
ATOM     80  H   SGN d 250      50.106  24.486   5.005  0.00  0.00     0.089 H 
ATOM     81  H   SGN d 250      51.760  27.065   4.869  0.00  0.00     0.076 H 
ATOM     82  H   SGN d 250      52.317  24.253   4.895  0.00  0.00     0.140 HD
ATOM     83  C1  SGN d 252      46.719  18.531  -0.901  0.00  0.00     0.147 C 
ATOM     84  C2  SGN d 252      46.383  19.870  -0.206  0.00  0.00     0.081 C 
ATOM     85  S1  SGN d 252      44.041  20.892  -1.126  0.00  0.00     0.156 S 
ATOM     86  O3  SGN d 252      47.385  21.695   0.894  0.00  0.00    -0.391 OA
ATOM     87  O2S SGN d 252      43.733  21.706   0.032  0.00  0.00    -0.296 OA
ATOM     88  O1  SGN d 252      47.555  18.793  -2.046  0.00  0.00    -0.369 OA
ATOM     89  S2  SGN d 252      48.318  16.240   3.863  0.00  0.00     0.251 S 
ATOM     90  C3  SGN d 252      47.691  20.491   0.274  0.00  0.00     0.083 C 
ATOM     91  C6  SGN d 252      49.219  17.060   1.463  0.00  0.00     0.067 C 
ATOM     92  O6S SGN d 252      47.677  15.176   3.097  0.00  0.00    -0.572 OA
ATOM     93  O1S SGN d 252      43.509  19.546  -1.031  0.00  0.00    -0.296 OA
ATOM     94  O3S SGN d 252      43.655  21.545  -2.375  0.00  0.00    -0.296 OA
ATOM     95  N   SGN d 252      45.698  20.772  -1.178  0.00  0.00    -0.210 NA
ATOM     96  O5  SGN d 252      47.393  17.640   0.033  0.00  0.00    -0.350 OA
ATOM     97  O6  SGN d 252      48.846  17.295   2.805  0.00  0.00    -0.254 OA
ATOM     98  O5S SGN d 252      47.367  16.999   4.668  0.00  0.00    -0.572 OA
ATOM     99  C5  SGN d 252      48.625  18.163   0.578  0.00  0.00     0.091 C 
ATOM    100  C4  SGN d 252      48.361  19.517   1.311  0.00  0.00     0.095 C 
ATOM    101  O4S SGN d 252      49.468  15.779   4.629  0.00  0.00    -0.572 OA
ATOM    102  H   SGN d 252      45.817  18.054  -1.225  0.00  0.00     0.131 H 
ATOM    103  H   SGN d 252      45.730  19.717   0.628  0.00  0.00     0.076 H 
ATOM    104  H   SGN d 252      46.973  22.294   0.252  0.00  0.00     0.210 HD
ATOM    105  H   SGN d 252      44.004  21.238   0.836  0.00  0.00     0.231 HD
ATOM    106  H   SGN d 252      48.374  19.225  -1.757  0.00  0.00     0.212 HD
ATOM    107  H   SGN d 252      48.364  20.657  -0.541  0.00  0.00     0.089 H 
ATOM    108  H   SGN d 252      50.286  17.070   1.381  0.00  0.00     0.080 H 
ATOM    109  H   SGN d 252      48.851  16.107   1.148  0.00  0.00     0.080 H 
ATOM    110  H   SGN d 252      43.786  19.147  -0.191  0.00  0.00     0.231 HD
ATOM    111  H   SGN d 252      43.877  20.970  -3.124  0.00  0.00     0.231 HD
ATOM    112  H   SGN d 252      45.946  20.449  -2.113  0.00  0.00     0.140 HD
ATOM    113  H   SGN d 252      49.342  18.404  -0.178  0.00  0.00     0.090 H 
ATOM    114  H   SGN d 252      47.717  19.399   2.157  0.00  0.00     0.091 H 
ATOM    115  C3  IDS d 245      42.342  38.263  19.814  0.00  0.00     0.044 C 
ATOM    116  O2S IDS d 245      40.434  34.637  17.763  0.00  0.00    -0.572 OA
ATOM    117  O2  IDS d 245      41.378  36.858  18.166  0.00  0.00    -0.247 OA
ATOM    118  O3S IDS d 245      39.987  35.811  19.835  0.00  0.00    -0.572 OA
ATOM    119  O3  IDS d 245      41.268  38.027  20.693  0.00  0.00    -0.398 OA
ATOM    120  C2  IDS d 245      42.553  37.056  18.951  0.00  0.00     0.100 C 
ATOM    121  C1  IDS d 245      43.724  37.370  18.055  0.00  0.00     0.048 C 
ATOM    122  O1  IDS d 245      43.700  36.507  16.948  0.00  0.00    -0.378 OA
ATOM    123  O1S IDS d 245      39.038  36.605  17.759  0.00  0.00    -0.572 OA
ATOM    124  S   IDS d 245      40.144  35.908  18.403  0.00  0.00     0.252 S 
ATOM    125  H   IDS d 245      42.119  39.109  19.198  0.00  0.00     0.078 H 
ATOM    126  H   IDS d 245      43.229  38.459  20.379  0.00  0.00     0.078 H 
ATOM    127  H   IDS d 245      40.463  37.850  20.181  0.00  0.00     0.209 HD
ATOM    128  H   IDS d 245      42.743  36.173  19.524  0.00  0.00     0.092 H 
ATOM    129  H   IDS d 245      44.637  37.233  18.597  0.00  0.00     0.078 H 
ATOM    130  H   IDS d 245      43.661  38.385  17.723  0.00  0.00     0.078 H 
ATOM    131  C2  IDS d 247      46.805  33.546  11.136  0.00  0.00     0.134 C 
ATOM    132  O2  IDS d 247      48.203  33.467  11.488  0.00  0.00    -0.244 OA
ATOM    133  S   IDS d 247      49.500  33.920  10.617  0.00  0.00     0.252 S 
ATOM    134  C5  IDS d 247      44.075  33.713  11.166  0.00  0.00     0.152 C 
ATOM    135  O1S IDS d 247      49.035  33.882   9.245  0.00  0.00    -0.572 OA
ATOM    136  O3  IDS d 247      47.018  35.915  10.835  0.00  0.00    -0.390 OA
ATOM    137  O3S IDS d 247      50.555  32.936  10.877  0.00  0.00    -0.572 OA
ATOM    138  O62 IDS d 247      42.033  33.142  12.308  0.00  0.00    -0.646 OA
ATOM    139  O61 IDS d 247      41.825  34.409  10.665  0.00  0.00    -0.646 OA
ATOM    140  O5  IDS d 247      44.665  32.777  12.105  0.00  0.00    -0.340 OA
ATOM    141  O2S IDS d 247      49.860  35.260  11.031  0.00  0.00    -0.572 OA
ATOM    142  C1  IDS d 247      46.026  32.422  11.849  0.00  0.00     0.161 C 
ATOM    143  C4  IDS d 247      44.780  35.117  11.347  0.00  0.00     0.103 C 
ATOM    144  C6  IDS d 247      42.551  33.752  11.394  0.00  0.00     0.206 C 
ATOM    145  O1  IDS d 247      46.119  31.317  11.024  0.00  0.00    -0.348 OA
ATOM    146  C3  IDS d 247      46.304  34.917  11.554  0.00  0.00     0.094 C 
ATOM    147  H   IDS d 247      46.661  33.417  10.083  0.00  0.00     0.097 H 
ATOM    148  H   IDS d 247      44.227  33.413  10.150  0.00  0.00     0.104 H 
ATOM    149  H   IDS d 247      47.972  35.789  10.966  0.00  0.00     0.210 HD
ATOM    150  H   IDS d 247      46.443  32.228  12.815  0.00  0.00     0.133 H 
ATOM    151  H   IDS d 247      44.600  35.738  10.494  0.00  0.00     0.092 H 
ATOM    152  H   IDS d 247      46.477  35.000  12.607  0.00  0.00     0.091 H 
ATOM    153  C2  IDS d 251      51.289  21.326   2.963  0.00  0.00     0.134 C 
ATOM    154  C1  IDS d 251      49.767  21.103   2.743  0.00  0.00     0.161 C 
ATOM    155  O62 IDS d 251      49.415  24.694  -0.430  0.00  0.00    -0.646 OA
ATOM    156  C4  IDS d 251      51.117  23.782   2.129  0.00  0.00     0.103 C 
ATOM    157  C5  IDS d 251      49.962  23.100   1.334  0.00  0.00     0.152 C 
ATOM    158  C6  IDS d 251      49.041  24.118   0.577  0.00  0.00     0.206 C 
ATOM    159  S   IDS d 251      51.070  20.513   5.584  0.00  0.00     0.252 S 
ATOM    160  O3  IDS d 251      53.023  22.950   3.361  0.00  0.00    -0.390 OA
ATOM    161  O61 IDS d 251      47.906  24.370   0.993  0.00  0.00    -0.646 OA
ATOM    162  O3S IDS d 251      51.792  19.454   6.249  0.00  0.00    -0.572 OA
ATOM    163  O2  IDS d 251      51.741  20.605   4.113  0.00  0.00    -0.244 OA
ATOM    164  O2S IDS d 251      49.656  20.225   5.425  0.00  0.00    -0.572 OA
ATOM    165  O5  IDS d 251      49.160  22.328   2.296  0.00  0.00    -0.340 OA
ATOM    166  C3  IDS d 251      51.623  22.803   3.218  0.00  0.00     0.094 C 
ATOM    167  O1S IDS d 251      51.297  21.819   6.187  0.00  0.00    -0.572 OA
ATOM    168  O1  IDS d 251      49.662  20.050   1.767  0.00  0.00    -0.348 OA
ATOM    169  H   IDS d 251      51.771  20.986   2.071  0.00  0.00     0.097 H 
ATOM    170  H   IDS d 251      49.255  20.824   3.639  0.00  0.00     0.133 H 
ATOM    171  H   IDS d 251      51.926  24.088   1.500  0.00  0.00     0.092 H 
ATOM    172  H   IDS d 251      50.396  22.478   0.580  0.00  0.00     0.104 H 
ATOM    173  H   IDS d 251      53.343  22.338   4.043  0.00  0.00     0.210 HD
ATOM    174  H   IDS d 251      51.103  23.068   4.114  0.00  0.00     0.091 H 
ATOM    175  O5S SGN d 248      45.205  31.229  14.030  0.00  0.00    -0.572 OA
ATOM    176  O4S SGN d 248      46.335  30.015  15.793  0.00  0.00    -0.572 OA
ATOM    177  O2S SGN d 248      41.403  25.966   9.413  0.00  0.00    -0.296 OA
ATOM    178  O1  SGN d 248      45.933  27.143   9.941  0.00  0.00    -0.348 OA
ATOM    179  S1  SGN d 248      41.672  26.986  10.419  0.00  0.00     0.156 S 
ATOM    180  O3  SGN d 248      43.544  30.464  10.369  0.00  0.00    -0.391 OA
ATOM    181  O1S SGN d 248      40.682  28.042  10.457  0.00  0.00    -0.296 OA
ATOM    182  N   SGN d 248      43.121  27.655   9.978  0.00  0.00    -0.210 NA
ATOM    183  S2  SGN d 248      46.004  30.068  14.381  0.00  0.00     0.251 S 
ATOM    184  C4  SGN d 248      45.627  30.078  11.516  0.00  0.00     0.095 C 
ATOM    185  C6  SGN d 248      47.881  29.438  12.649  0.00  0.00     0.067 C 
ATOM    186  O6S SGN d 248      45.447  28.828  13.877  0.00  0.00    -0.572 OA
ATOM    187  O3S SGN d 248      41.879  26.414  11.735  0.00  0.00    -0.296 OA
ATOM    188  O5  SGN d 248      46.240  27.746  12.081  0.00  0.00    -0.349 OA
ATOM    189  C2  SGN d 248      44.078  28.192  10.986  0.00  0.00     0.081 C 
ATOM    190  C3  SGN d 248      44.617  29.546  10.498  0.00  0.00     0.083 C 
ATOM    191  C1  SGN d 248      45.295  27.221  11.153  0.00  0.00     0.150 C 
ATOM    192  O6  SGN d 248      47.333  30.286  13.609  0.00  0.00    -0.254 OA
ATOM    193  C5  SGN d 248      46.791  29.035  11.643  0.00  0.00     0.091 C 
ATOM    194  H   SGN d 248      41.270  26.390   8.550  0.00  0.00     0.231 HD
ATOM    195  H   SGN d 248      43.884  31.318  10.061  0.00  0.00     0.210 HD
ATOM    196  H   SGN d 248      40.563  28.406   9.566  0.00  0.00     0.231 HD
ATOM    197  H   SGN d 248      42.900  28.430   9.351  0.00  0.00     0.140 HD
ATOM    198  H   SGN d 248      45.184  30.223  12.479  0.00  0.00     0.091 H 
ATOM    199  H   SGN d 248      48.671  29.945  12.135  0.00  0.00     0.080 H 
ATOM    200  H   SGN d 248      48.271  28.563  13.125  0.00  0.00     0.080 H 
ATOM    201  H   SGN d 248      42.545  25.711  11.680  0.00  0.00     0.231 HD
ATOM    202  H   SGN d 248      43.567  28.297  11.920  0.00  0.00     0.076 H 
ATOM    203  H   SGN d 248      45.094  29.424   9.548  0.00  0.00     0.089 H 
ATOM    204  H   SGN d 248      44.939  26.273  11.498  0.00  0.00     0.131 H 
ATOM    205  H   SGN d 248      47.246  28.979  10.676  0.00  0.00     0.090 H 
ENDROOT
TORSDOF 64
ENDMDL
MODEL 4
REMARK VINA RESULT:      -6.2      2.884     17.766
REMARK  0 active torsions:
REMARK  status: ('A' for Active; 'I' for Inactive)
REMARK       I    between atoms: C5_1  and  C6_97 
REMARK       I    between atoms: O2_2  and  C2_107 
REMARK       I    between atoms: O2_2  and  S_88 
REMARK       I    between atoms: O3_4  and  C3_95 
REMARK       I    between atoms: C1_5  and  O1_40 
REMARK       I    between atoms: C3_6  and  C2_70 
REMARK       I    between atoms: C3_6  and  O3_51 
REMARK       I    between atoms: C2_7  and  O2_9 
REMARK       I    between atoms: C2_8  and  O2_75 
REMARK       I    between atoms: O2_9  and  S_23 
REMARK       I    between atoms: S2_14  and  O6_117 
REMARK       I    between atoms: C1_15  and  O1_130 
REMARK       I    between atoms: C4_16  and  O1_59 
REMARK       I    between atoms: S1_17  and  N_128 
REMARK       I    between atoms: S1_17  and  O1S_46 
REMARK       I    between atoms: S1_17  and  O2S_29 
REMARK       I    between atoms: S1_17  and  O3S_24 
REMARK       I    between atoms: C2_18  and  N_86 
REMARK       I    between atoms: S1_19  and  N_86 
REMARK       I    between atoms: S1_19  and  O1S_71 
REMARK       I    between atoms: S1_19  and  O2S_34 
REMARK       I    between atoms: S1_19  and  O3S_81 
REMARK       I    between atoms: O2S_22  and  S1_111 
REMARK       I    between atoms: C1_25  and  O1_58 
REMARK       I    between atoms: C4_27  and  O1_58 
REMARK       I    between atoms: O2S_28  and  S1_48 
REMARK       I    between atoms: O3_32  and  C3_49 
REMARK       I    between atoms: O2_33  and  C2_70 
REMARK       I    between atoms: O2_33  and  S_133 
REMARK       I    between atoms: C5_37  and  C6_84 
REMARK       I    between atoms: C5_41  and  C6_43 
REMARK       I    between atoms: O6_42  and  C6_84 
REMARK       I    between atoms: O6_42  and  S2_77 
REMARK       I    between atoms: C5_44  and  C6_108 
REMARK       I    between atoms: O1_45  and  C1_120 
REMARK       I    between atoms: O1_45  and  C4_114 
REMARK       I    between atoms: S2_47  and  O6_94 
REMARK       I    between atoms: S1_48  and  N_53 
REMARK       I    between atoms: S1_48  and  O1S_52 
REMARK       I    between atoms: S1_48  and  O3S_83 
REMARK       I    between atoms: O3_50  and  C3_119 
REMARK       I    between atoms: N_53  and  C2_89 
REMARK       I    between atoms: S_55  and  O2_75 
REMARK       I    between atoms: O3_56  and  C3_124 
REMARK       I    between atoms: O1_59  and  C1_110 
REMARK       I    between atoms: S2_60  and  O6_132 
REMARK       I    between atoms: O3_61  and  C3_115 
REMARK       I    between atoms: C6_62  and  C5_106 
REMARK       I    between atoms: C6_62  and  O6_94 
REMARK       I    between atoms: C4_63  and  O1_96 
REMARK       I    between atoms: O3_67  and  C3_93 
REMARK       I    between atoms: O1_69  and  C1_113 
REMARK       I    between atoms: O1_69  and  C4_103 
REMARK       I    between atoms: C2_70  and  C1_76 
REMARK       I    between atoms: C5_74  and  C6_90 
REMARK       I    between atoms: C1_76  and  O1_96 
REMARK       I    between atoms: C4_78  and  O1_112 
REMARK       I    between atoms: C6_80  and  C5_134 
REMARK       I    between atoms: C6_80  and  O6_132 
REMARK       I    between atoms: C6_90  and  O6_117 
REMARK       I    between atoms: C2_98  and  N_128 
REMARK       I    between atoms: C1_100  and  O1_112 
REMARK       I    between atoms: S1_111  and  O1S_116 
REMARK       I    between atoms: C4_127  and  O1_130 
ROOT
ATOM      1  C5  IDS d 249      49.631  27.252   6.545  0.00  0.00     0.152 C 
ATOM      2  O2  IDS d 249      46.263  24.859   6.710  0.00  0.00    -0.244 OA
ATOM      3  O1S IDS d 249      45.499  24.979   9.019  0.00  0.00    -0.572 OA
ATOM      4  O5  IDS d 249      48.334  27.821   6.254  0.00  0.00    -0.340 OA
ATOM      5  O1  IDS d 249      47.517  26.604   4.478  0.00  0.00    -0.348 OA
ATOM      6  O62 IDS d 249      50.398  29.505   6.962  0.00  0.00    -0.646 OA
ATOM      7  O3  IDS d 249      48.809  24.581   8.445  0.00  0.00    -0.390 OA
ATOM      8  S   IDS d 249      45.056  25.329   7.679  0.00  0.00     0.252 S 
ATOM      9  C3  IDS d 249      48.168  25.651   7.890  0.00  0.00     0.094 C 
ATOM     10  C6  IDS d 249      50.685  28.380   6.593  0.00  0.00     0.206 C 
ATOM     11  O3S IDS d 249      43.892  24.579   7.261  0.00  0.00    -0.572 OA
ATOM     12  C2  IDS d 249      47.542  25.500   6.523  0.00  0.00     0.134 C 
ATOM     13  C1  IDS d 249      47.365  26.874   5.821  0.00  0.00     0.161 C 
ATOM     14  C4  IDS d 249      49.496  26.454   7.889  0.00  0.00     0.103 C 
ATOM     15  O2S IDS d 249      44.894  26.754   7.524  0.00  0.00    -0.572 OA
ATOM     16  O61 IDS d 249      51.847  28.164   6.249  0.00  0.00    -0.646 OA
ATOM     17  H   IDS d 249      49.963  26.573   5.788  0.00  0.00     0.104 H 
ATOM     18  H   IDS d 249      48.177  23.857   8.575  0.00  0.00     0.210 HD
ATOM     19  H   IDS d 249      47.283  26.007   8.375  0.00  0.00     0.091 H 
ATOM     20  H   IDS d 249      48.178  24.916   5.893  0.00  0.00     0.097 H 
ATOM     21  H   IDS d 249      46.414  27.309   6.050  0.00  0.00     0.133 H 
ATOM     22  H   IDS d 249      50.268  25.758   8.144  0.00  0.00     0.092 H 
ATOM     23  O3  SGN d 246      47.801  37.123  15.824  0.00  0.00    -0.215 OA
ATOM     24  S2  SGN d 246      43.724  34.052  19.954  0.00  0.00     0.251 S 
ATOM     25  O6S SGN d 246      42.932  34.156  18.760  0.00  0.00    -0.572 OA
ATOM     26  O2S SGN d 246      45.232  38.789  13.370  0.00  0.00    -0.294 OA
ATOM     27  C3  SGN d 246      47.141  35.879  15.896  0.00  0.00     0.121 C 
ATOM     28  C2  SGN d 246      45.722  35.997  15.321  0.00  0.00     0.084 C 
ATOM     29  O4S SGN d 246      43.736  32.724  20.509  0.00  0.00    -0.572 OA
ATOM     30  O5S SGN d 246      43.404  35.070  20.923  0.00  0.00    -0.572 OA
ATOM     31  N   SGN d 246      45.788  36.424  13.922  0.00  0.00    -0.208 NA
ATOM     32  C4  SGN d 246      47.022  35.468  17.338  0.00  0.00     0.095 C 
ATOM     33  O1  SGN d 246      45.699  33.605  14.709  0.00  0.00    -0.348 OA
ATOM     34  C5  SGN d 246      46.275  34.071  17.414  0.00  0.00     0.091 C 
ATOM     35  C6  SGN d 246      46.058  33.532  18.849  0.00  0.00     0.067 C 
ATOM     36  S1  SGN d 246      46.372  37.911  13.539  0.00  0.00     0.188 S 
ATOM     37  C1  SGN d 246      44.983  34.591  15.430  0.00  0.00     0.151 C 
ATOM     38  O1S SGN d 246      47.166  37.770  12.334  0.00  0.00    -0.294 OA
ATOM     39  O6  SGN d 246      45.171  34.374  19.534  0.00  0.00    -0.254 OA
ATOM     40  O5  SGN d 246      44.939  34.177  16.795  0.00  0.00    -0.349 OA
ATOM     41  O3S SGN d 246      47.181  38.280  14.681  0.00  0.00    -0.119 OA
ATOM     42  H   SGN d 246      44.719  38.507  12.597  0.00  0.00     0.231 HD
ATOM     43  H   SGN d 246      47.701  35.159  15.336  0.00  0.00     0.095 H 
ATOM     44  H   SGN d 246      45.172  36.726  15.879  0.00  0.00     0.077 H 
ATOM     45  H   SGN d 246      44.837  36.379  13.556  0.00  0.00     0.140 HD
ATOM     46  H   SGN d 246      46.453  36.168  17.913  0.00  0.00     0.091 H 
ATOM     47  H   SGN d 246      46.919  33.391  16.897  0.00  0.00     0.090 H 
ATOM     48  H   SGN d 246      46.995  33.504  19.366  0.00  0.00     0.080 H 
ATOM     49  H   SGN d 246      45.649  32.544  18.802  0.00  0.00     0.080 H 
ATOM     50  H   SGN d 246      43.995  34.700  15.033  0.00  0.00     0.131 H 
ATOM     51  H   SGN d 246      46.589  37.523  11.594  0.00  0.00     0.231 HD
ATOM     52  O3  SGN d 250      49.054  28.351   2.893  0.00  0.00    -0.391 OA
ATOM     53  O5S SGN d 250      41.662  24.925   2.946  0.00  0.00    -0.572 OA
ATOM     54  C4  SGN d 250      46.899  27.450   3.525  0.00  0.00     0.095 C 
ATOM     55  S1  SGN d 250      49.213  30.068   0.065  0.00  0.00     0.156 S 
ATOM     56  O3S SGN d 250      48.834  30.720  -1.184  0.00  0.00    -0.296 OA
ATOM     57  C1  SGN d 250      45.982  27.729   0.803  0.00  0.00     0.150 C 
ATOM     58  O2S SGN d 250      50.581  29.526   0.020  0.00  0.00    -0.296 OA
ATOM     59  C5  SGN d 250      45.619  26.747   2.958  0.00  0.00     0.091 C 
ATOM     60  O6  SGN d 250      43.863  25.323   3.742  0.00  0.00    -0.254 OA
ATOM     61  O1S SGN d 250      48.964  30.930   1.210  0.00  0.00    -0.296 OA
ATOM     62  O1  SGN d 250      46.447  26.411   0.584  0.00  0.00    -0.348 OA
ATOM     63  S2  SGN d 250      42.404  24.974   4.178  0.00  0.00     0.251 S 
ATOM     64  C6  SGN d 250      44.545  26.507   4.026  0.00  0.00     0.067 C 
ATOM     65  C3  SGN d 250      47.907  27.687   2.380  0.00  0.00     0.083 C 
ATOM     66  C2  SGN d 250      47.234  28.561   1.284  0.00  0.00     0.081 C 
ATOM     67  O6S SGN d 250      42.481  23.672   4.824  0.00  0.00    -0.572 OA
ATOM     68  O5  SGN d 250      45.044  27.585   1.884  0.00  0.00    -0.349 OA
ATOM     69  O4S SGN d 250      41.951  26.035   5.063  0.00  0.00    -0.572 OA
ATOM     70  N   SGN d 250      48.204  28.746   0.156  0.00  0.00    -0.210 NA
ATOM     71  H   SGN d 250      49.468  27.801   3.576  0.00  0.00     0.210 HD
ATOM     72  H   SGN d 250      46.616  28.381   3.973  0.00  0.00     0.091 H 
ATOM     73  H   SGN d 250      47.929  31.060  -1.108  0.00  0.00     0.231 HD
ATOM     74  H   SGN d 250      45.538  28.205  -0.047  0.00  0.00     0.131 H 
ATOM     75  H   SGN d 250      50.789  29.103   0.868  0.00  0.00     0.231 HD
ATOM     76  H   SGN d 250      45.923  25.790   2.588  0.00  0.00     0.090 H 
ATOM     77  H   SGN d 250      49.225  30.471   2.023  0.00  0.00     0.231 HD
ATOM     78  H   SGN d 250      43.855  27.324   4.028  0.00  0.00     0.080 H 
ATOM     79  H   SGN d 250      45.009  26.430   4.987  0.00  0.00     0.080 H 
ATOM     80  H   SGN d 250      48.205  26.751   1.955  0.00  0.00     0.089 H 
ATOM     81  H   SGN d 250      46.946  29.529   1.638  0.00  0.00     0.076 H 
ATOM     82  H   SGN d 250      48.809  27.925   0.163  0.00  0.00     0.140 HD
ATOM     83  C1  SGN d 252      46.518  18.389  -1.052  0.00  0.00     0.147 C 
ATOM     84  C2  SGN d 252      46.148  19.361   0.092  0.00  0.00     0.081 C 
ATOM     85  S1  SGN d 252      44.253  18.288   1.715  0.00  0.00     0.156 S 
ATOM     86  O3  SGN d 252      46.120  21.648   0.649  0.00  0.00    -0.391 OA
ATOM     87  O2S SGN d 252      44.559  19.076   2.892  0.00  0.00    -0.296 OA
ATOM     88  O1  SGN d 252      45.701  18.683  -2.202  0.00  0.00    -0.369 OA
ATOM     89  S2  SGN d 252      51.903  19.484  -0.495  0.00  0.00     0.251 S 
ATOM     90  C3  SGN d 252      46.457  20.779  -0.379  0.00  0.00     0.083 C 
ATOM     91  C6  SGN d 252      49.815  19.761  -2.170  0.00  0.00     0.067 C 
ATOM     92  O6S SGN d 252      51.811  18.070  -0.847  0.00  0.00    -0.572 OA
ATOM     93  O1S SGN d 252      45.011  17.052   1.649  0.00  0.00    -0.296 OA
ATOM     94  O3S SGN d 252      42.818  18.058   1.565  0.00  0.00    -0.296 OA
ATOM     95  N   SGN d 252      44.697  19.217   0.411  0.00  0.00    -0.210 NA
ATOM     96  O5  SGN d 252      47.931  18.520  -1.379  0.00  0.00    -0.350 OA
ATOM     97  O6  SGN d 252      50.594  20.171  -1.066  0.00  0.00    -0.254 OA
ATOM     98  O5S SGN d 252      51.816  19.707   0.944  0.00  0.00    -0.572 OA
ATOM     99  C5  SGN d 252      48.330  19.845  -1.794  0.00  0.00     0.091 C 
ATOM    100  C4  SGN d 252      47.997  20.885  -0.678  0.00  0.00     0.095 C 
ATOM    101  O4S SGN d 252      53.046  20.151  -1.104  0.00  0.00    -0.572 OA
ATOM    102  H   SGN d 252      46.340  17.380  -0.742  0.00  0.00     0.131 H 
ATOM    103  H   SGN d 252      46.710  19.144   0.976  0.00  0.00     0.076 H 
ATOM    104  H   SGN d 252      45.169  21.580   0.831  0.00  0.00     0.210 HD
ATOM    105  H   SGN d 252      45.518  19.205   2.954  0.00  0.00     0.231 HD
ATOM    106  H   SGN d 252      45.860  19.597  -2.486  0.00  0.00     0.212 HD
ATOM    107  H   SGN d 252      45.907  21.022  -1.263  0.00  0.00     0.089 H 
ATOM    108  H   SGN d 252      50.010  20.403  -3.004  0.00  0.00     0.080 H 
ATOM    109  H   SGN d 252      50.064  18.755  -2.435  0.00  0.00     0.080 H 
ATOM    110  H   SGN d 252      45.956  17.246   1.753  0.00  0.00     0.231 HD
ATOM    111  H   SGN d 252      42.657  17.528   0.769  0.00  0.00     0.231 HD
ATOM    112  H   SGN d 252      44.248  18.813  -0.411  0.00  0.00     0.140 HD
ATOM    113  H   SGN d 252      47.790  20.190  -2.651  0.00  0.00     0.090 H 
ATOM    114  H   SGN d 252      48.549  20.704   0.220  0.00  0.00     0.091 H 
ATOM    115  C3  IDS d 245      49.114  36.798  21.129  0.00  0.00     0.044 C 
ATOM    116  O2S IDS d 245      49.293  32.353  20.033  0.00  0.00    -0.572 OA
ATOM    117  O2  IDS d 245      48.484  34.632  20.401  0.00  0.00    -0.247 OA
ATOM    118  O3S IDS d 245      50.036  33.631  21.953  0.00  0.00    -0.572 OA
ATOM    119  O3  IDS d 245      49.656  36.279  22.320  0.00  0.00    -0.398 OA
ATOM    120  C2  IDS d 245      49.247  35.781  20.036  0.00  0.00     0.100 C 
ATOM    121  C1  IDS d 245      48.669  36.409  18.794  0.00  0.00     0.048 C 
ATOM    122  O1  IDS d 245      48.350  35.399  17.872  0.00  0.00    -0.378 OA
ATOM    123  O1S IDS d 245      47.751  32.855  21.819  0.00  0.00    -0.572 OA
ATOM    124  S   IDS d 245      48.933  33.287  21.085  0.00  0.00     0.252 S 
ATOM    125  H   IDS d 245      48.080  37.029  21.278  0.00  0.00     0.078 H 
ATOM    126  H   IDS d 245      49.641  37.688  20.855  0.00  0.00     0.078 H 
ATOM    127  H   IDS d 245      49.178  35.472  22.568  0.00  0.00     0.209 HD
ATOM    128  H   IDS d 245      50.263  35.487  19.873  0.00  0.00     0.092 H 
ATOM    129  H   IDS d 245      49.387  37.075  18.362  0.00  0.00     0.078 H 
ATOM    130  H   IDS d 245      47.786  36.959  19.046  0.00  0.00     0.078 H 
ATOM    131  C2  IDS d 247      46.523  33.195  11.240  0.00  0.00     0.134 C 
ATOM    132  O2  IDS d 247      47.182  34.136  10.365  0.00  0.00    -0.244 OA
ATOM    133  S   IDS d 247      46.571  34.949   9.096  0.00  0.00     0.252 S 
ATOM    134  C5  IDS d 247      45.770  31.625  13.348  0.00  0.00     0.152 C 
ATOM    135  O1S IDS d 247      45.442  34.145   8.672  0.00  0.00    -0.572 OA
ATOM    136  O3  IDS d 247      44.911  34.874  11.821  0.00  0.00    -0.390 OA
ATOM    137  O3S IDS d 247      47.624  35.012   8.079  0.00  0.00    -0.572 OA
ATOM    138  O62 IDS d 247      46.474  30.363  15.274  0.00  0.00    -0.646 OA
ATOM    139  O61 IDS d 247      44.413  30.531  15.009  0.00  0.00    -0.646 OA
ATOM    140  O5  IDS d 247      47.192  31.674  13.068  0.00  0.00    -0.340 OA
ATOM    141  O2S IDS d 247      46.160  36.254   9.568  0.00  0.00    -0.572 OA
ATOM    142  C1  IDS d 247      47.551  32.182  11.781  0.00  0.00     0.161 C 
ATOM    143  C4  IDS d 247      45.229  33.106  13.460  0.00  0.00     0.103 C 
ATOM    144  C6  IDS d 247      45.542  30.785  14.619  0.00  0.00     0.206 C 
ATOM    145  O1  IDS d 247      47.622  31.176  10.836  0.00  0.00    -0.348 OA
ATOM    146  C3  IDS d 247      45.884  33.989  12.365  0.00  0.00     0.094 C 
ATOM    147  H   IDS d 247      45.770  32.642  10.718  0.00  0.00     0.097 H 
ATOM    148  H   IDS d 247      45.222  31.148  12.562  0.00  0.00     0.104 H 
ATOM    149  H   IDS d 247      45.323  35.425  11.136  0.00  0.00     0.210 HD
ATOM    150  H   IDS d 247      48.502  32.650  11.928  0.00  0.00     0.133 H 
ATOM    151  H   IDS d 247      44.164  33.124  13.362  0.00  0.00     0.092 H 
ATOM    152  H   IDS d 247      46.671  34.529  12.848  0.00  0.00     0.091 H 
ATOM    153  C2  IDS d 251      48.872  24.557  -1.254  0.00  0.00     0.134 C 
ATOM    154  C1  IDS d 251      48.464  23.376  -0.330  0.00  0.00     0.161 C 
ATOM    155  O62 IDS d 251      43.801  24.530  -0.441  0.00  0.00    -0.646 OA
ATOM    156  C4  IDS d 251      46.709  25.865  -0.646  0.00  0.00     0.103 C 
ATOM    157  C5  IDS d 251      46.236  24.388  -0.486  0.00  0.00     0.152 C 
ATOM    158  C6  IDS d 251      44.819  24.254   0.171  0.00  0.00     0.206 C 
ATOM    159  S   IDS d 251      51.291  24.787   0.040  0.00  0.00     0.252 S 
ATOM    160  O3  IDS d 251      48.616  26.910  -1.702  0.00  0.00    -0.390 OA
ATOM    161  O61 IDS d 251      44.699  23.872   1.339  0.00  0.00    -0.646 OA
ATOM    162  O3S IDS d 251      52.614  24.736  -0.536  0.00  0.00    -0.572 OA
ATOM    163  O2  IDS d 251      50.289  24.745  -1.232  0.00  0.00    -0.244 OA
ATOM    164  O2S IDS d 251      50.996  23.650   0.893  0.00  0.00    -0.572 OA
ATOM    165  O5  IDS d 251      47.234  23.693   0.344  0.00  0.00    -0.340 OA
ATOM    166  C3  IDS d 251      48.250  25.885  -0.797  0.00  0.00     0.094 C 
ATOM    167  O1S IDS d 251      51.010  26.054   0.701  0.00  0.00    -0.572 OA
ATOM    168  O1  IDS d 251      48.340  22.229  -1.190  0.00  0.00    -0.348 OA
ATOM    169  H   IDS d 251      48.523  24.303  -2.232  0.00  0.00     0.097 H 
ATOM    170  H   IDS d 251      49.184  23.182   0.437  0.00  0.00     0.133 H 
ATOM    171  H   IDS d 251      46.248  26.358  -1.476  0.00  0.00     0.092 H 
ATOM    172  H   IDS d 251      46.151  23.956  -1.461  0.00  0.00     0.104 H 
ATOM    173  H   IDS d 251      49.581  26.926  -1.799  0.00  0.00     0.210 HD
ATOM    174  H   IDS d 251      48.638  26.066   0.184  0.00  0.00     0.091 H 
ATOM    175  O5S SGN d 248      49.720  31.616  13.134  0.00  0.00    -0.572 OA
ATOM    176  O4S SGN d 248      52.068  32.102  12.800  0.00  0.00    -0.572 OA
ATOM    177  O2S SGN d 248      48.485  23.937  11.409  0.00  0.00    -0.296 OA
ATOM    178  O1  SGN d 248      49.290  27.764   8.784  0.00  0.00    -0.348 OA
ATOM    179  S1  SGN d 248      48.693  25.174  12.152  0.00  0.00     0.156 S 
ATOM    180  O3  SGN d 248      47.008  28.745  12.063  0.00  0.00    -0.391 OA
ATOM    181  O1S SGN d 248      47.836  25.307  13.311  0.00  0.00    -0.296 OA
ATOM    182  N   SGN d 248      48.312  26.385  11.089  0.00  0.00    -0.210 NA
ATOM    183  S2  SGN d 248      50.887  31.430  12.290  0.00  0.00     0.251 S 
ATOM    184  C4  SGN d 248      48.624  30.181  10.998  0.00  0.00     0.095 C 
ATOM    185  C6  SGN d 248      50.425  31.541   9.703  0.00  0.00     0.067 C 
ATOM    186  O6S SGN d 248      51.121  30.039  11.953  0.00  0.00    -0.572 OA
ATOM    187  O3S SGN d 248      50.085  25.373  12.503  0.00  0.00    -0.296 OA
ATOM    188  O5  SGN d 248      50.617  29.138   9.963  0.00  0.00    -0.349 OA
ATOM    189  C2  SGN d 248      48.984  27.714  11.137  0.00  0.00     0.081 C 
ATOM    190  C3  SGN d 248      47.928  28.819  10.985  0.00  0.00     0.083 C 
ATOM    191  C1  SGN d 248      50.000  27.854   9.954  0.00  0.00     0.150 C 
ATOM    192  O6  SGN d 248      50.500  32.133  10.962  0.00  0.00    -0.254 OA
ATOM    193  C5  SGN d 248      49.640  30.224   9.805  0.00  0.00     0.091 C 
ATOM    194  H   SGN d 248      47.544  23.843  11.194  0.00  0.00     0.231 HD
ATOM    195  H   SGN d 248      46.341  29.442  11.967  0.00  0.00     0.210 HD
ATOM    196  H   SGN d 248      46.913  25.170  13.048  0.00  0.00     0.231 HD
ATOM    197  H   SGN d 248      47.314  26.565  11.204  0.00  0.00     0.140 HD
ATOM    198  H   SGN d 248      49.153  30.350  11.912  0.00  0.00     0.091 H 
ATOM    199  H   SGN d 248      49.925  32.203   9.027  0.00  0.00     0.080 H 
ATOM    200  H   SGN d 248      51.412  31.343   9.341  0.00  0.00     0.080 H 
ATOM    201  H   SGN d 248      50.635  25.278  11.710  0.00  0.00     0.231 HD
ATOM    202  H   SGN d 248      49.500  27.802  12.071  0.00  0.00     0.076 H 
ATOM    203  H   SGN d 248      47.402  28.692  10.063  0.00  0.00     0.089 H 
ATOM    204  H   SGN d 248      50.748  27.094  10.046  0.00  0.00     0.131 H 
ATOM    205  H   SGN d 248      49.055  30.123   8.914  0.00  0.00     0.090 H 
ENDROOT
TORSDOF 64
ENDMDL
MODEL 5
REMARK VINA RESULT:      -6.0      4.152     18.443
REMARK  0 active torsions:
REMARK  status: ('A' for Active; 'I' for Inactive)
REMARK       I    between atoms: C5_1  and  C6_97 
REMARK       I    between atoms: O2_2  and  C2_107 
REMARK       I    between atoms: O2_2  and  S_88 
REMARK       I    between atoms: O3_4  and  C3_95 
REMARK       I    between atoms: C1_5  and  O1_40 
REMARK       I    between atoms: C3_6  and  C2_70 
REMARK       I    between atoms: C3_6  and  O3_51 
REMARK       I    between atoms: C2_7  and  O2_9 
REMARK       I    between atoms: C2_8  and  O2_75 
REMARK       I    between atoms: O2_9  and  S_23 
REMARK       I    between atoms: S2_14  and  O6_117 
REMARK       I    between atoms: C1_15  and  O1_130 
REMARK       I    between atoms: C4_16  and  O1_59 
REMARK       I    between atoms: S1_17  and  N_128 
REMARK       I    between atoms: S1_17  and  O1S_46 
REMARK       I    between atoms: S1_17  and  O2S_29 
REMARK       I    between atoms: S1_17  and  O3S_24 
REMARK       I    between atoms: C2_18  and  N_86 
REMARK       I    between atoms: S1_19  and  N_86 
REMARK       I    between atoms: S1_19  and  O1S_71 
REMARK       I    between atoms: S1_19  and  O2S_34 
REMARK       I    between atoms: S1_19  and  O3S_81 
REMARK       I    between atoms: O2S_22  and  S1_111 
REMARK       I    between atoms: C1_25  and  O1_58 
REMARK       I    between atoms: C4_27  and  O1_58 
REMARK       I    between atoms: O2S_28  and  S1_48 
REMARK       I    between atoms: O3_32  and  C3_49 
REMARK       I    between atoms: O2_33  and  C2_70 
REMARK       I    between atoms: O2_33  and  S_133 
REMARK       I    between atoms: C5_37  and  C6_84 
REMARK       I    between atoms: C5_41  and  C6_43 
REMARK       I    between atoms: O6_42  and  C6_84 
REMARK       I    between atoms: O6_42  and  S2_77 
REMARK       I    between atoms: C5_44  and  C6_108 
REMARK       I    between atoms: O1_45  and  C1_120 
REMARK       I    between atoms: O1_45  and  C4_114 
REMARK       I    between atoms: S2_47  and  O6_94 
REMARK       I    between atoms: S1_48  and  N_53 
REMARK       I    between atoms: S1_48  and  O1S_52 
REMARK       I    between atoms: S1_48  and  O3S_83 
REMARK       I    between atoms: O3_50  and  C3_119 
REMARK       I    between atoms: N_53  and  C2_89 
REMARK       I    between atoms: S_55  and  O2_75 
REMARK       I    between atoms: O3_56  and  C3_124 
REMARK       I    between atoms: O1_59  and  C1_110 
REMARK       I    between atoms: S2_60  and  O6_132 
REMARK       I    between atoms: O3_61  and  C3_115 
REMARK       I    between atoms: C6_62  and  C5_106 
REMARK       I    between atoms: C6_62  and  O6_94 
REMARK       I    between atoms: C4_63  and  O1_96 
REMARK       I    between atoms: O3_67  and  C3_93 
REMARK       I    between atoms: O1_69  and  C1_113 
REMARK       I    between atoms: O1_69  and  C4_103 
REMARK       I    between atoms: C2_70  and  C1_76 
REMARK       I    between atoms: C5_74  and  C6_90 
REMARK       I    between atoms: C1_76  and  O1_96 
REMARK       I    between atoms: C4_78  and  O1_112 
REMARK       I    between atoms: C6_80  and  C5_134 
REMARK       I    between atoms: C6_80  and  O6_132 
REMARK       I    between atoms: C6_90  and  O6_117 
REMARK       I    between atoms: C2_98  and  N_128 
REMARK       I    between atoms: C1_100  and  O1_112 
REMARK       I    between atoms: S1_111  and  O1S_116 
REMARK       I    between atoms: C4_127  and  O1_130 
ROOT
ATOM      1  C5  IDS d 249      48.946  25.006   9.564  0.00  0.00     0.152 C 
ATOM      2  O2  IDS d 249      49.876  26.693   5.905  0.00  0.00    -0.244 OA
ATOM      3  O1S IDS d 249      49.372  29.063   6.142  0.00  0.00    -0.572 OA
ATOM      4  O5  IDS d 249      50.290  25.479   9.315  0.00  0.00    -0.340 OA
ATOM      5  O1  IDS d 249      51.028  24.290   7.486  0.00  0.00    -0.348 OA
ATOM      6  O62 IDS d 249      49.455  25.151  11.922  0.00  0.00    -0.646 OA
ATOM      7  O3  IDS d 249      47.146  26.823   7.356  0.00  0.00    -0.390 OA
ATOM      8  S   IDS d 249      50.505  28.183   5.905  0.00  0.00     0.252 S 
ATOM      9  C3  IDS d 249      48.437  26.774   7.796  0.00  0.00     0.094 C 
ATOM     10  C6  IDS d 249      48.816  24.594  11.047  0.00  0.00     0.206 C 
ATOM     11  O3S IDS d 249      51.094  28.369   4.596  0.00  0.00    -0.572 OA
ATOM     12  C2  IDS d 249      49.435  25.924   7.044  0.00  0.00     0.134 C 
ATOM     13  C1  IDS d 249      50.643  25.534   7.938  0.00  0.00     0.161 C 
ATOM     14  C4  IDS d 249      47.963  26.152   9.136  0.00  0.00     0.103 C 
ATOM     15  O2S IDS d 249      51.471  28.255   6.974  0.00  0.00    -0.572 OA
ATOM     16  O61 IDS d 249      48.060  23.680  11.377  0.00  0.00    -0.646 OA
ATOM     17  H   IDS d 249      48.704  24.132   8.995  0.00  0.00     0.104 H 
ATOM     18  H   IDS d 249      47.124  27.202   6.463  0.00  0.00     0.210 HD
ATOM     19  H   IDS d 249      49.012  27.676   7.754  0.00  0.00     0.091 H 
ATOM     20  H   IDS d 249      48.975  25.008   6.736  0.00  0.00     0.097 H 
ATOM     21  H   IDS d 249      51.427  26.259   7.871  0.00  0.00     0.133 H 
ATOM     22  H   IDS d 249      46.930  25.910   9.006  0.00  0.00     0.092 H 
ATOM     23  O3  SGN d 246      51.216  34.678  18.955  0.00  0.00    -0.215 OA
ATOM     24  S2  SGN d 246      50.382  40.049  15.271  0.00  0.00     0.251 S 
ATOM     25  O6S SGN d 246      51.551  39.452  14.687  0.00  0.00    -0.572 OA
ATOM     26  O2S SGN d 246      55.062  34.063  18.484  0.00  0.00    -0.294 OA
ATOM     27  C3  SGN d 246      50.955  34.977  17.601  0.00  0.00     0.121 C 
ATOM     28  C2  SGN d 246      52.270  35.234  16.851  0.00  0.00     0.084 C 
ATOM     29  O4S SGN d 246      49.382  40.403  14.299  0.00  0.00    -0.572 OA
ATOM     30  O5S SGN d 246      50.700  41.125  16.176  0.00  0.00    -0.572 OA
ATOM     31  N   SGN d 246      53.122  34.046  16.923  0.00  0.00    -0.208 NA
ATOM     32  C4  SGN d 246      50.127  36.231  17.527  0.00  0.00     0.095 C 
ATOM     33  O1  SGN d 246      51.264  34.525  14.710  0.00  0.00    -0.348 OA
ATOM     34  C5  SGN d 246      49.840  36.566  16.002  0.00  0.00     0.091 C 
ATOM     35  C6  SGN d 246      49.013  37.854  15.770  0.00  0.00     0.067 C 
ATOM     36  S1  SGN d 246      53.716  33.542  18.369  0.00  0.00     0.188 S 
ATOM     37  C1  SGN d 246      51.956  35.593  15.332  0.00  0.00     0.151 C 
ATOM     38  O1S SGN d 246      53.664  32.093  18.380  0.00  0.00    -0.294 OA
ATOM     39  O6  SGN d 246      49.761  38.968  16.176  0.00  0.00    -0.254 OA
ATOM     40  O5  SGN d 246      51.112  36.741  15.274  0.00  0.00    -0.349 OA
ATOM     41  O3S SGN d 246      52.820  34.124  19.345  0.00  0.00    -0.119 OA
ATOM     42  H   SGN d 246      55.628  33.649  17.815  0.00  0.00     0.231 HD
ATOM     43  H   SGN d 246      50.440  34.149  17.159  0.00  0.00     0.095 H 
ATOM     44  H   SGN d 246      52.783  36.056  17.306  0.00  0.00     0.077 H 
ATOM     45  H   SGN d 246      53.926  34.224  16.321  0.00  0.00     0.140 HD
ATOM     46  H   SGN d 246      50.630  37.074  17.951  0.00  0.00     0.091 H 
ATOM     47  H   SGN d 246      49.268  35.735  15.646  0.00  0.00     0.090 H 
ATOM     48  H   SGN d 246      48.107  37.805  16.338  0.00  0.00     0.080 H 
ATOM     49  H   SGN d 246      48.776  37.943  14.730  0.00  0.00     0.080 H 
ATOM     50  H   SGN d 246      52.885  35.776  14.833  0.00  0.00     0.131 H 
ATOM     51  H   SGN d 246      54.277  31.742  17.715  0.00  0.00     0.231 HD
ATOM     52  O3  SGN d 250      51.678  22.291   9.359  0.00  0.00    -0.391 OA
ATOM     53  O5S SGN d 250      54.867  25.884   2.778  0.00  0.00    -0.572 OA
ATOM     54  C4  SGN d 250      52.369  23.871   7.662  0.00  0.00     0.095 C 
ATOM     55  S1  SGN d 250      53.852  19.947  10.227  0.00  0.00     0.156 S 
ATOM     56  O3S SGN d 250      55.062  19.136  10.294  0.00  0.00    -0.296 OA
ATOM     57  C1  SGN d 250      54.445  22.055   6.812  0.00  0.00     0.150 C 
ATOM     58  O2S SGN d 250      52.633  19.153  10.458  0.00  0.00    -0.296 OA
ATOM     59  C5  SGN d 250      53.134  23.994   6.300  0.00  0.00     0.091 C 
ATOM     60  O6  SGN d 250      53.191  25.453   4.404  0.00  0.00    -0.254 OA
ATOM     61  O1S SGN d 250      53.953  21.122  11.078  0.00  0.00    -0.296 OA
ATOM     62  O1  SGN d 250      53.506  21.516   5.901  0.00  0.00    -0.348 OA
ATOM     63  S2  SGN d 250      53.798  26.552   3.474  0.00  0.00     0.251 S 
ATOM     64  C6  SGN d 250      53.235  25.440   5.799  0.00  0.00     0.067 C 
ATOM     65  C3  SGN d 250      52.347  22.394   8.109  0.00  0.00     0.083 C 
ATOM     66  C2  SGN d 250      53.811  21.885   8.248  0.00  0.00     0.081 C 
ATOM     67  O6S SGN d 250      52.724  26.952   2.576  0.00  0.00    -0.572 OA
ATOM     68  O5  SGN d 250      54.499  23.449   6.463  0.00  0.00    -0.349 OA
ATOM     69  O4S SGN d 250      54.272  27.629   4.328  0.00  0.00    -0.572 OA
ATOM     70  N   SGN d 250      53.779  20.437   8.637  0.00  0.00    -0.210 NA
ATOM     71  H   SGN d 250      50.767  22.611   9.265  0.00  0.00     0.210 HD
ATOM     72  H   SGN d 250      52.861  24.478   8.394  0.00  0.00     0.091 H 
ATOM     73  H   SGN d 250      55.836  19.699  10.136  0.00  0.00     0.231 HD
ATOM     74  H   SGN d 250      55.415  21.602   6.791  0.00  0.00     0.131 H 
ATOM     75  H   SGN d 250      51.857  19.731  10.404  0.00  0.00     0.231 HD
ATOM     76  H   SGN d 250      52.575  23.441   5.574  0.00  0.00     0.090 H 
ATOM     77  H   SGN d 250      53.135  21.640  11.012  0.00  0.00     0.231 HD
ATOM     78  H   SGN d 250      54.158  25.868   6.130  0.00  0.00     0.080 H 
ATOM     79  H   SGN d 250      52.418  26.010   6.187  0.00  0.00     0.080 H 
ATOM     80  H   SGN d 250      51.831  21.799   7.385  0.00  0.00     0.089 H 
ATOM     81  H   SGN d 250      54.372  22.416   8.987  0.00  0.00     0.076 H 
ATOM     82  H   SGN d 250      52.909  20.060   8.262  0.00  0.00     0.140 HD
ATOM     83  C1  SGN d 252      49.835  19.414  -1.109  0.00  0.00     0.147 C 
ATOM     84  C2  SGN d 252      50.080  20.661  -0.228  0.00  0.00     0.081 C 
ATOM     85  S1  SGN d 252      50.027  22.935  -1.712  0.00  0.00     0.156 S 
ATOM     86  O3  SGN d 252      51.089  21.342   1.787  0.00  0.00    -0.391 OA
ATOM     87  O2S SGN d 252      49.691  23.844  -0.635  0.00  0.00    -0.296 OA
ATOM     88  O1  SGN d 252      51.105  18.885  -1.538  0.00  0.00    -0.369 OA
ATOM     89  S2  SGN d 252      46.462  17.185   2.654  0.00  0.00     0.251 S 
ATOM     90  C3  SGN d 252      50.868  20.219   1.001  0.00  0.00     0.083 C 
ATOM     91  C6  SGN d 252      48.847  16.867   1.448  0.00  0.00     0.067 C 
ATOM     92  O6S SGN d 252      45.917  16.815   1.351  0.00  0.00    -0.572 OA
ATOM     93  O1S SGN d 252      48.860  22.382  -2.372  0.00  0.00    -0.296 OA
ATOM     94  O3S SGN d 252      50.961  23.533  -2.664  0.00  0.00    -0.296 OA
ATOM     95  N   SGN d 252      50.849  21.674  -1.010  0.00  0.00    -0.210 NA
ATOM     96  O5  SGN d 252      49.089  18.414  -0.359  0.00  0.00    -0.350 OA
ATOM     97  O6  SGN d 252      48.011  17.436   2.434  0.00  0.00    -0.254 OA
ATOM     98  O5S SGN d 252      45.962  18.473   3.122  0.00  0.00    -0.572 OA
ATOM     99  C5  SGN d 252      49.737  17.965   0.852  0.00  0.00     0.091 C 
ATOM    100  C4  SGN d 252      50.007  19.174   1.801  0.00  0.00     0.095 C 
ATOM    101  O4S SGN d 252      46.330  16.130   3.650  0.00  0.00    -0.572 OA
ATOM    102  H   SGN d 252      49.257  19.686  -1.969  0.00  0.00     0.131 H 
ATOM    103  H   SGN d 252      49.155  21.104   0.076  0.00  0.00     0.076 H 
ATOM    104  H   SGN d 252      51.620  21.985   1.290  0.00  0.00     0.210 HD
ATOM    105  H   SGN d 252      49.071  23.410  -0.028  0.00  0.00     0.231 HD
ATOM    106  H   SGN d 252      51.631  18.638  -0.762  0.00  0.00     0.212 HD
ATOM    107  H   SGN d 252      51.800  19.773   0.725  0.00  0.00     0.089 H 
ATOM    108  H   SGN d 252      49.460  16.110   1.892  0.00  0.00     0.080 H 
ATOM    109  H   SGN d 252      48.249  16.429   0.678  0.00  0.00     0.080 H 
ATOM    110  H   SGN d 252      48.265  21.996  -1.709  0.00  0.00     0.231 HD
ATOM    111  H   SGN d 252      51.159  22.895  -3.367  0.00  0.00     0.231 HD
ATOM    112  H   SGN d 252      51.327  21.174  -1.760  0.00  0.00     0.140 HD
ATOM    113  H   SGN d 252      50.705  17.546   0.671  0.00  0.00     0.090 H 
ATOM    114  H   SGN d 252      49.102  19.637   2.134  0.00  0.00     0.091 H 
ATOM    115  C3  IDS d 245      47.617  38.481  20.552  0.00  0.00     0.044 C 
ATOM    116  O2S IDS d 245      45.577  37.083  16.694  0.00  0.00    -0.572 OA
ATOM    117  O2  IDS d 245      47.209  38.008  18.265  0.00  0.00    -0.247 OA
ATOM    118  O3S IDS d 245      44.855  38.438  18.569  0.00  0.00    -0.572 OA
ATOM    119  O3  IDS d 245      46.394  39.169  20.663  0.00  0.00    -0.398 OA
ATOM    120  C2  IDS d 245      47.486  37.397  19.524  0.00  0.00     0.100 C 
ATOM    121  C1  IDS d 245      48.818  36.694  19.473  0.00  0.00     0.048 C 
ATOM    122  O1  IDS d 245      48.921  35.990  18.262  0.00  0.00    -0.378 OA
ATOM    123  O1S IDS d 245      46.066  39.444  16.736  0.00  0.00    -0.572 OA
ATOM    124  S   IDS d 245      45.837  38.243  17.528  0.00  0.00     0.252 S 
ATOM    125  H   IDS d 245      48.385  39.164  20.254  0.00  0.00     0.078 H 
ATOM    126  H   IDS d 245      47.872  38.049  21.497  0.00  0.00     0.078 H 
ATOM    127  H   IDS d 245      46.163  39.561  19.807  0.00  0.00     0.209 HD
ATOM    128  H   IDS d 245      46.703  36.707  19.757  0.00  0.00     0.092 H 
ATOM    129  H   IDS d 245      48.894  36.009  20.292  0.00  0.00     0.078 H 
ATOM    130  H   IDS d 245      49.608  37.412  19.541  0.00  0.00     0.078 H 
ATOM    131  C2  IDS d 247      52.118  31.111  14.001  0.00  0.00     0.134 C 
ATOM    132  O2  IDS d 247      52.594  30.104  14.918  0.00  0.00    -0.244 OA
ATOM    133  S   IDS d 247      54.063  29.410  14.998  0.00  0.00     0.252 S 
ATOM    134  C5  IDS d 247      50.775  33.163  12.790  0.00  0.00     0.152 C 
ATOM    135  O1S IDS d 247      54.601  29.568  13.661  0.00  0.00    -0.572 OA
ATOM    136  O3  IDS d 247      53.872  32.583  14.713  0.00  0.00    -0.390 OA
ATOM    137  O3S IDS d 247      53.855  28.004  15.353  0.00  0.00    -0.572 OA
ATOM    138  O62 IDS d 247      48.685  34.331  12.533  0.00  0.00    -0.646 OA
ATOM    139  O61 IDS d 247      50.322  35.189  11.569  0.00  0.00    -0.646 OA
ATOM    140  O5  IDS d 247      49.955  32.191  13.488  0.00  0.00    -0.340 OA
ATOM    141  O2S IDS d 247      54.838  30.135  15.983  0.00  0.00    -0.572 OA
ATOM    142  C1  IDS d 247      50.597  30.952  13.800  0.00  0.00     0.161 C 
ATOM    143  C4  IDS d 247      51.907  33.664  13.774  0.00  0.00     0.103 C 
ATOM    144  C6  IDS d 247      49.869  34.293  12.264  0.00  0.00     0.206 C 
ATOM    145  O1  IDS d 247      50.445  30.028  12.785  0.00  0.00    -0.348 OA
ATOM    146  C3  IDS d 247      52.459  32.467  14.592  0.00  0.00     0.094 C 
ATOM    147  H   IDS d 247      52.580  31.012  13.040  0.00  0.00     0.097 H 
ATOM    148  H   IDS d 247      51.265  32.739  11.938  0.00  0.00     0.104 H 
ATOM    149  H   IDS d 247      54.216  31.834  15.225  0.00  0.00     0.210 HD
ATOM    150  H   IDS d 247      50.129  30.624  14.704  0.00  0.00     0.133 H 
ATOM    151  H   IDS d 247      52.697  34.135  13.227  0.00  0.00     0.092 H 
ATOM    152  H   IDS d 247      51.984  32.514  15.550  0.00  0.00     0.091 H 
ATOM    153  C2  IDS d 251      51.691  18.539   5.170  0.00  0.00     0.134 C 
ATOM    154  C1  IDS d 251      50.886  19.438   4.190  0.00  0.00     0.161 C 
ATOM    155  O62 IDS d 251      54.783  21.860   2.764  0.00  0.00    -0.646 OA
ATOM    156  C4  IDS d 251      53.609  20.289   5.300  0.00  0.00     0.103 C 
ATOM    157  C5  IDS d 251      53.049  20.546   3.869  0.00  0.00     0.152 C 
ATOM    158  C6  IDS d 251      53.641  21.829   3.189  0.00  0.00     0.206 C 
ATOM    159  S   IDS d 251      49.537  18.404   6.879  0.00  0.00     0.252 S 
ATOM    160  O3  IDS d 251      53.370  18.488   6.896  0.00  0.00    -0.390 OA
ATOM    161  O61 IDS d 251      52.959  22.853   3.075  0.00  0.00    -0.646 OA
ATOM    162  O3S IDS d 251      48.871  17.223   7.375  0.00  0.00    -0.572 OA
ATOM    163  O2  IDS d 251      50.808  17.838   6.049  0.00  0.00    -0.244 OA
ATOM    164  O2S IDS d 251      48.713  19.187   5.976  0.00  0.00    -0.572 OA
ATOM    165  O5  IDS d 251      51.588  20.676   3.983  0.00  0.00    -0.340 OA
ATOM    166  C3  IDS d 251      52.631  19.362   6.063  0.00  0.00     0.094 C 
ATOM    167  O1S IDS d 251      50.111  19.218   7.941  0.00  0.00    -0.572 OA
ATOM    168  O1  IDS d 251      50.751  18.673   2.977  0.00  0.00    -0.348 OA
ATOM    169  H   IDS d 251      52.256  17.867   4.559  0.00  0.00     0.097 H 
ATOM    170  H   IDS d 251      49.920  19.700   4.566  0.00  0.00     0.133 H 
ATOM    171  H   IDS d 251      54.591  19.863   5.289  0.00  0.00     0.092 H 
ATOM    172  H   IDS d 251      53.333  19.724   3.245  0.00  0.00     0.104 H 
ATOM    173  H   IDS d 251      52.760  17.907   7.376  0.00  0.00     0.210 HD
ATOM    174  H   IDS d 251      51.997  20.010   6.632  0.00  0.00     0.091 H 
ATOM    175  O5S SGN d 248      48.152  30.931  14.734  0.00  0.00    -0.572 OA
ATOM    176  O4S SGN d 248      46.959  29.469  16.251  0.00  0.00    -0.572 OA
ATOM    177  O2S SGN d 248      45.611  29.459   7.328  0.00  0.00    -0.296 OA
ATOM    178  O1  SGN d 248      48.400  27.130  10.325  0.00  0.00    -0.348 OA
ATOM    179  S1  SGN d 248      45.793  30.088   8.631  0.00  0.00     0.156 S 
ATOM    180  O3  SGN d 248      48.954  31.186  10.729  0.00  0.00    -0.391 OA
ATOM    181  O1S SGN d 248      45.907  31.529   8.571  0.00  0.00    -0.296 OA
ATOM    182  N   SGN d 248      47.224  29.482   9.204  0.00  0.00    -0.210 NA
ATOM    183  S2  SGN d 248      47.646  29.591  14.978  0.00  0.00     0.251 S 
ATOM    184  C4  SGN d 248      49.133  29.563  12.501  0.00  0.00     0.095 C 
ATOM    185  C6  SGN d 248      49.253  27.640  14.251  0.00  0.00     0.067 C 
ATOM    186  O6S SGN d 248      46.882  29.067  13.863  0.00  0.00    -0.572 OA
ATOM    187  O3S SGN d 248      44.777  29.680   9.581  0.00  0.00    -0.296 OA
ATOM    188  O5  SGN d 248      47.680  27.560  12.407  0.00  0.00    -0.349 OA
ATOM    189  C2  SGN d 248      47.467  29.286  10.662  0.00  0.00     0.081 C 
ATOM    190  C3  SGN d 248      48.872  29.798  11.012  0.00  0.00     0.083 C 
ATOM    191  C1  SGN d 248      47.405  27.764  11.024  0.00  0.00     0.150 C 
ATOM    192  O6  SGN d 248      48.928  28.722  15.067  0.00  0.00    -0.254 OA
ATOM    193  C5  SGN d 248      49.022  28.024  12.781  0.00  0.00     0.091 C 
ATOM    194  H   SGN d 248      46.309  29.758   6.724  0.00  0.00     0.231 HD
ATOM    195  H   SGN d 248      49.841  31.509  10.950  0.00  0.00     0.210 HD
ATOM    196  H   SGN d 248      46.592  31.774   7.930  0.00  0.00     0.231 HD
ATOM    197  H   SGN d 248      47.955  30.114   8.875  0.00  0.00     0.140 HD
ATOM    198  H   SGN d 248      48.427  30.079  13.116  0.00  0.00     0.091 H 
ATOM    199  H   SGN d 248      50.280  27.380  14.395  0.00  0.00     0.080 H 
ATOM    200  H   SGN d 248      48.636  26.803  14.503  0.00  0.00     0.080 H 
ATOM    201  H   SGN d 248      44.722  28.712   9.600  0.00  0.00     0.231 HD
ATOM    202  H   SGN d 248      46.716  29.820  11.208  0.00  0.00     0.076 H 
ATOM    203  H   SGN d 248      49.602  29.276  10.431  0.00  0.00     0.089 H 
ATOM    204  H   SGN d 248      46.429  27.391  10.791  0.00  0.00     0.131 H 
ATOM    205  H   SGN d 248      49.792  27.561  12.199  0.00  0.00     0.090 H 
ENDROOT
TORSDOF 64
ENDMDL
MODEL 6
REMARK VINA RESULT:      -5.7      4.087      7.997
REMARK  0 active torsions:
REMARK  status: ('A' for Active; 'I' for Inactive)
REMARK       I    between atoms: C5_1  and  C6_97 
REMARK       I    between atoms: O2_2  and  C2_107 
REMARK       I    between atoms: O2_2  and  S_88 
REMARK       I    between atoms: O3_4  and  C3_95 
REMARK       I    between atoms: C1_5  and  O1_40 
REMARK       I    between atoms: C3_6  and  C2_70 
REMARK       I    between atoms: C3_6  and  O3_51 
REMARK       I    between atoms: C2_7  and  O2_9 
REMARK       I    between atoms: C2_8  and  O2_75 
REMARK       I    between atoms: O2_9  and  S_23 
REMARK       I    between atoms: S2_14  and  O6_117 
REMARK       I    between atoms: C1_15  and  O1_130 
REMARK       I    between atoms: C4_16  and  O1_59 
REMARK       I    between atoms: S1_17  and  N_128 
REMARK       I    between atoms: S1_17  and  O1S_46 
REMARK       I    between atoms: S1_17  and  O2S_29 
REMARK       I    between atoms: S1_17  and  O3S_24 
REMARK       I    between atoms: C2_18  and  N_86 
REMARK       I    between atoms: S1_19  and  N_86 
REMARK       I    between atoms: S1_19  and  O1S_71 
REMARK       I    between atoms: S1_19  and  O2S_34 
REMARK       I    between atoms: S1_19  and  O3S_81 
REMARK       I    between atoms: O2S_22  and  S1_111 
REMARK       I    between atoms: C1_25  and  O1_58 
REMARK       I    between atoms: C4_27  and  O1_58 
REMARK       I    between atoms: O2S_28  and  S1_48 
REMARK       I    between atoms: O3_32  and  C3_49 
REMARK       I    between atoms: O2_33  and  C2_70 
REMARK       I    between atoms: O2_33  and  S_133 
REMARK       I    between atoms: C5_37  and  C6_84 
REMARK       I    between atoms: C5_41  and  C6_43 
REMARK       I    between atoms: O6_42  and  C6_84 
REMARK       I    between atoms: O6_42  and  S2_77 
REMARK       I    between atoms: C5_44  and  C6_108 
REMARK       I    between atoms: O1_45  and  C1_120 
REMARK       I    between atoms: O1_45  and  C4_114 
REMARK       I    between atoms: S2_47  and  O6_94 
REMARK       I    between atoms: S1_48  and  N_53 
REMARK       I    between atoms: S1_48  and  O1S_52 
REMARK       I    between atoms: S1_48  and  O3S_83 
REMARK       I    between atoms: O3_50  and  C3_119 
REMARK       I    between atoms: N_53  and  C2_89 
REMARK       I    between atoms: S_55  and  O2_75 
REMARK       I    between atoms: O3_56  and  C3_124 
REMARK       I    between atoms: O1_59  and  C1_110 
REMARK       I    between atoms: S2_60  and  O6_132 
REMARK       I    between atoms: O3_61  and  C3_115 
REMARK       I    between atoms: C6_62  and  C5_106 
REMARK       I    between atoms: C6_62  and  O6_94 
REMARK       I    between atoms: C4_63  and  O1_96 
REMARK       I    between atoms: O3_67  and  C3_93 
REMARK       I    between atoms: O1_69  and  C1_113 
REMARK       I    between atoms: O1_69  and  C4_103 
REMARK       I    between atoms: C2_70  and  C1_76 
REMARK       I    between atoms: C5_74  and  C6_90 
REMARK       I    between atoms: C1_76  and  O1_96 
REMARK       I    between atoms: C4_78  and  O1_112 
REMARK       I    between atoms: C6_80  and  C5_134 
REMARK       I    between atoms: C6_80  and  O6_132 
REMARK       I    between atoms: C6_90  and  O6_117 
REMARK       I    between atoms: C2_98  and  N_128 
REMARK       I    between atoms: C1_100  and  O1_112 
REMARK       I    between atoms: S1_111  and  O1S_116 
REMARK       I    between atoms: C4_127  and  O1_130 
ROOT
ATOM      1  C5  IDS d 249      51.913  28.740  10.257  0.00  0.00     0.152 C 
ATOM      2  O2  IDS d 249      48.007  30.095  10.209  0.00  0.00    -0.244 OA
ATOM      3  O1S IDS d 249      46.973  29.012   8.290  0.00  0.00    -0.572 OA
ATOM      4  O5  IDS d 249      50.900  28.029  11.004  0.00  0.00    -0.340 OA
ATOM      5  O1  IDS d 249      50.040  29.566  12.486  0.00  0.00    -0.348 OA
ATOM      6  O62 IDS d 249      53.235  26.719  10.348  0.00  0.00    -0.646 OA
ATOM      7  O3  IDS d 249      50.067  30.325   7.912  0.00  0.00    -0.390 OA
ATOM      8  S   IDS d 249      46.859  29.058   9.738  0.00  0.00     0.252 S 
ATOM      9  C3  IDS d 249      49.860  29.398   8.893  0.00  0.00     0.094 C 
ATOM     10  C6  IDS d 249      53.231  27.936  10.292  0.00  0.00     0.206 C 
ATOM     11  O3S IDS d 249      45.603  29.622  10.184  0.00  0.00    -0.572 OA
ATOM     12  C2  IDS d 249      49.431  29.867  10.263  0.00  0.00     0.134 C 
ATOM     13  C1  IDS d 249      49.773  28.821  11.359  0.00  0.00     0.161 C 
ATOM     14  C4  IDS d 249      51.349  28.969   8.811  0.00  0.00     0.103 C 
ATOM     15  O2S IDS d 249      47.148  27.779  10.338  0.00  0.00    -0.572 OA
ATOM     16  O61 IDS d 249      54.317  28.516  10.268  0.00  0.00    -0.646 OA
ATOM     17  H   IDS d 249      52.142  29.696  10.679  0.00  0.00     0.104 H 
ATOM     18  H   IDS d 249      49.238  30.795   7.731  0.00  0.00     0.210 HD
ATOM     19  H   IDS d 249      49.055  28.705   8.760  0.00  0.00     0.091 H 
ATOM     20  H   IDS d 249      49.956  30.763  10.524  0.00  0.00     0.097 H 
ATOM     21  H   IDS d 249      48.968  28.130  11.501  0.00  0.00     0.133 H 
ATOM     22  H   IDS d 249      51.835  29.689   8.186  0.00  0.00     0.092 H 
ATOM     23  O3  SGN d 246      51.676  16.122   5.000  0.00  0.00    -0.215 OA
ATOM     24  S2  SGN d 246      46.302  16.559   1.254  0.00  0.00     0.251 S 
ATOM     25  O6S SGN d 246      45.766  16.698   2.579  0.00  0.00    -0.572 OA
ATOM     26  O2S SGN d 246      50.110  14.875   8.375  0.00  0.00    -0.294 OA
ATOM     27  C3  SGN d 246      50.677  17.080   4.727  0.00  0.00     0.121 C 
ATOM     28  C2  SGN d 246      49.459  16.850   5.634  0.00  0.00     0.084 C 
ATOM     29  O4S SGN d 246      45.841  17.577   0.347  0.00  0.00    -0.572 OA
ATOM     30  O5S SGN d 246      46.152  15.224   0.731  0.00  0.00    -0.572 OA
ATOM     31  N   SGN d 246      49.858  16.962   7.038  0.00  0.00    -0.208 NA
ATOM     32  C4  SGN d 246      50.227  16.927   3.300  0.00  0.00     0.095 C 
ATOM     33  O1  SGN d 246      48.829  19.234   5.504  0.00  0.00    -0.348 OA
ATOM     34  C5  SGN d 246      49.100  18.002   2.999  0.00  0.00     0.091 C 
ATOM     35  C6  SGN d 246      48.520  17.945   1.564  0.00  0.00     0.067 C 
ATOM     36  S1  SGN d 246      50.904  15.874   7.688  0.00  0.00     0.188 S 
ATOM     37  C1  SGN d 246      48.333  17.924   5.297  0.00  0.00     0.151 C 
ATOM     38  O1S SGN d 246      51.794  16.601   8.573  0.00  0.00    -0.294 OA
ATOM     39  O6  SGN d 246      47.826  16.740   1.390  0.00  0.00    -0.254 OA
ATOM     40  O5  SGN d 246      47.964  17.817   3.923  0.00  0.00    -0.349 OA
ATOM     41  O3S SGN d 246      51.603  15.326   6.547  0.00  0.00    -0.119 OA
ATOM     42  H   SGN d 246      49.660  15.283   9.131  0.00  0.00     0.231 HD
ATOM     43  H   SGN d 246      51.080  18.056   4.901  0.00  0.00     0.095 H 
ATOM     44  H   SGN d 246      49.069  15.868   5.463  0.00  0.00     0.077 H 
ATOM     45  H   SGN d 246      49.002  16.914   7.591  0.00  0.00     0.140 HD
ATOM     46  H   SGN d 246      49.808  15.961   3.110  0.00  0.00     0.091 H 
ATOM     47  H   SGN d 246      49.587  18.946   3.124  0.00  0.00     0.090 H 
ATOM     48  H   SGN d 246      49.319  18.004   0.854  0.00  0.00     0.080 H 
ATOM     49  H   SGN d 246      47.852  18.768   1.417  0.00  0.00     0.080 H 
ATOM     50  H   SGN d 246      47.493  17.738   5.934  0.00  0.00     0.131 H 
ATOM     51  H   SGN d 246      51.289  16.951   9.323  0.00  0.00     0.231 HD
ATOM     52  O3  SGN d 250      52.243  28.876  14.098  0.00  0.00    -0.391 OA
ATOM     53  O5S SGN d 250      44.253  30.297  14.814  0.00  0.00    -0.572 OA
ATOM     54  C4  SGN d 250      49.849  28.987  13.764  0.00  0.00     0.095 C 
ATOM     55  S1  SGN d 250      53.324  28.331  17.181  0.00  0.00     0.156 S 
ATOM     56  O3S SGN d 250      53.346  28.085  18.618  0.00  0.00    -0.296 OA
ATOM     57  C1  SGN d 250      49.476  29.470  16.585  0.00  0.00     0.150 C 
ATOM     58  O2S SGN d 250      54.464  29.151  16.736  0.00  0.00    -0.296 OA
ATOM     59  C5  SGN d 250      48.521  29.534  14.389  0.00  0.00     0.091 C 
ATOM     60  O6  SGN d 250      46.326  30.159  13.666  0.00  0.00    -0.254 OA
ATOM     61  O1S SGN d 250      53.168  27.092  16.434  0.00  0.00    -0.296 OA
ATOM     62  O1  SGN d 250      49.562  30.851  16.290  0.00  0.00    -0.348 OA
ATOM     63  S2  SGN d 250      44.781  29.994  13.510  0.00  0.00     0.251 S 
ATOM     64  C6  SGN d 250      47.275  29.137  13.587  0.00  0.00     0.067 C 
ATOM     65  C3  SGN d 250      51.043  29.398  14.652  0.00  0.00     0.083 C 
ATOM     66  C2  SGN d 250      50.830  28.830  16.084  0.00  0.00     0.081 C 
ATOM     67  O6S SGN d 250      44.374  30.972  12.511  0.00  0.00    -0.572 OA
ATOM     68  O5  SGN d 250      48.386  29.013  15.767  0.00  0.00    -0.349 OA
ATOM     69  O4S SGN d 250      44.530  28.618  13.110  0.00  0.00    -0.572 OA
ATOM     70  N   SGN d 250      51.970  29.273  16.950  0.00  0.00    -0.210 NA
ATOM     71  H   SGN d 250      52.370  29.234  13.205  0.00  0.00     0.210 HD
ATOM     72  H   SGN d 250      49.787  27.921  13.690  0.00  0.00     0.091 H 
ATOM     73  H   SGN d 250      52.580  27.544  18.865  0.00  0.00     0.231 HD
ATOM     74  H   SGN d 250      49.326  29.231  17.618  0.00  0.00     0.131 H 
ATOM     75  H   SGN d 250      54.408  29.288  15.778  0.00  0.00     0.231 HD
ATOM     76  H   SGN d 250      48.583  30.602  14.378  0.00  0.00     0.090 H 
ATOM     77  H   SGN d 250      53.158  27.288  15.484  0.00  0.00     0.231 HD
ATOM     78  H   SGN d 250      46.863  28.236  13.991  0.00  0.00     0.080 H 
ATOM     79  H   SGN d 250      47.544  28.980  12.564  0.00  0.00     0.080 H 
ATOM     80  H   SGN d 250      51.114  30.465  14.700  0.00  0.00     0.089 H 
ATOM     81  H   SGN d 250      50.788  27.761  16.110  0.00  0.00     0.076 H 
ATOM     82  H   SGN d 250      52.300  30.155  16.558  0.00  0.00     0.140 HD
ATOM     83  C1  SGN d 252      47.525  38.735  15.435  0.00  0.00     0.147 C 
ATOM     84  C2  SGN d 252      47.288  37.370  14.750  0.00  0.00     0.081 C 
ATOM     85  S1  SGN d 252      44.939  37.352  13.386  0.00  0.00     0.156 S 
ATOM     86  O3  SGN d 252      47.847  35.088  14.911  0.00  0.00    -0.391 OA
ATOM     87  O2S SGN d 252      45.281  36.296  12.455  0.00  0.00    -0.296 OA
ATOM     88  O1  SGN d 252      47.014  38.681  16.782  0.00  0.00    -0.369 OA
ATOM     89  S2  SGN d 252      52.845  38.768  13.952  0.00  0.00     0.251 S 
ATOM     90  C3  SGN d 252      48.066  36.312  15.527  0.00  0.00     0.083 C 
ATOM     91  C6  SGN d 252      51.209  38.622  16.084  0.00  0.00     0.067 C 
ATOM     92  O6S SGN d 252      52.398  40.155  13.885  0.00  0.00    -0.572 OA
ATOM     93  O1S SGN d 252      45.302  38.672  12.904  0.00  0.00    -0.296 OA
ATOM     94  O3S SGN d 252      43.540  37.288  13.801  0.00  0.00    -0.296 OA
ATOM     95  N   SGN d 252      45.828  37.060  14.760  0.00  0.00    -0.210 NA
ATOM     96  O5  SGN d 252      48.947  39.050  15.439  0.00  0.00    -0.350 OA
ATOM     97  O6  SGN d 252      51.898  38.043  14.995  0.00  0.00    -0.254 OA
ATOM     98  O5S SGN d 252      52.611  38.045  12.707  0.00  0.00    -0.572 OA
ATOM     99  C5  SGN d 252      49.775  38.079  16.116  0.00  0.00     0.091 C 
ATOM    100  C4  SGN d 252      49.597  36.669  15.467  0.00  0.00     0.095 C 
ATOM    101  O4S SGN d 252      54.212  38.631  14.438  0.00  0.00    -0.572 OA
ATOM    102  H   SGN d 252      47.015  39.505  14.895  0.00  0.00     0.131 H 
ATOM    103  H   SGN d 252      47.621  37.387  13.733  0.00  0.00     0.076 H 
ATOM    104  H   SGN d 252      46.902  34.871  14.950  0.00  0.00     0.210 HD
ATOM    105  H   SGN d 252      46.214  36.375  12.206  0.00  0.00     0.231 HD
ATOM    106  H   SGN d 252      47.475  37.983  17.274  0.00  0.00     0.212 HD
ATOM    107  H   SGN d 252      47.753  36.273  16.549  0.00  0.00     0.089 H 
ATOM    108  H   SGN d 252      51.708  38.372  16.997  0.00  0.00     0.080 H 
ATOM    109  H   SGN d 252      51.190  39.686  15.973  0.00  0.00     0.080 H 
ATOM    110  H   SGN d 252      46.235  38.674  12.638  0.00  0.00     0.231 HD
ATOM    111  H   SGN d 252      43.353  38.010  14.422  0.00  0.00     0.231 HD
ATOM    112  H   SGN d 252      45.409  37.611  15.510  0.00  0.00     0.140 HD
ATOM    113  H   SGN d 252      49.495  37.939  17.139  0.00  0.00     0.090 H 
ATOM    114  H   SGN d 252      49.929  36.648  14.450  0.00  0.00     0.091 H 
ATOM    115  C3  IDS d 245      52.018  14.875  -0.319  0.00  0.00     0.044 C 
ATOM    116  O2S IDS d 245      51.050  19.342  -0.651  0.00  0.00    -0.572 OA
ATOM    117  O2  IDS d 245      50.898  16.956  -0.130  0.00  0.00    -0.247 OA
ATOM    118  O3S IDS d 245      51.835  17.681  -2.231  0.00  0.00    -0.572 OA
ATOM    119  O3  IDS d 245      52.197  15.058  -1.703  0.00  0.00    -0.398 OA
ATOM    120  C2  IDS d 245      52.011  16.211   0.362  0.00  0.00     0.100 C 
ATOM    121  C1  IDS d 245      51.837  15.938   1.835  0.00  0.00     0.048 C 
ATOM    122  O1  IDS d 245      51.379  17.106   2.467  0.00  0.00    -0.378 OA
ATOM    123  O1S IDS d 245      49.471  17.916  -1.788  0.00  0.00    -0.572 OA
ATOM    124  S   IDS d 245      50.825  18.045  -1.265  0.00  0.00     0.252 S 
ATOM    125  H   IDS d 245      51.087  14.379  -0.142  0.00  0.00     0.078 H 
ATOM    126  H   IDS d 245      52.818  14.281   0.069  0.00  0.00     0.078 H 
ATOM    127  H   IDS d 245      51.472  15.598  -2.055  0.00  0.00     0.209 HD
ATOM    128  H   IDS d 245      52.908  16.765   0.184  0.00  0.00     0.092 H 
ATOM    129  H   IDS d 245      52.775  15.646   2.258  0.00  0.00     0.078 H 
ATOM    130  H   IDS d 245      51.127  15.150   1.974  0.00  0.00     0.078 H 
ATOM    131  C2  IDS d 247      50.012  20.997   8.398  0.00  0.00     0.134 C 
ATOM    132  O2  IDS d 247      51.042  20.595   9.326  0.00  0.00    -0.244 OA
ATOM    133  S   IDS d 247      50.895  20.156  10.885  0.00  0.00     0.252 S 
ATOM    134  C5  IDS d 247      48.521  21.524   6.166  0.00  0.00     0.152 C 
ATOM    135  O1S IDS d 247      49.657  20.779  11.312  0.00  0.00    -0.572 OA
ATOM    136  O3  IDS d 247      48.894  18.903   8.738  0.00  0.00    -0.390 OA
ATOM    137  O3S IDS d 247      52.062  20.690  11.593  0.00  0.00    -0.572 OA
ATOM    138  O62 IDS d 247      48.525  22.164   3.845  0.00  0.00    -0.646 OA
ATOM    139  O61 IDS d 247      46.668  21.635   4.633  0.00  0.00    -0.646 OA
ATOM    140  O5  IDS d 247      49.921  21.899   6.100  0.00  0.00    -0.340 OA
ATOM    141  O2S IDS d 247      50.818  18.711  10.929  0.00  0.00    -0.572 OA
ATOM    142  C1  IDS d 247      50.604  21.965   7.354  0.00  0.00     0.161 C 
ATOM    143  C4  IDS d 247      48.428  20.014   6.627  0.00  0.00     0.103 C 
ATOM    144  C6  IDS d 247      47.867  21.796   4.798  0.00  0.00     0.206 C 
ATOM    145  O1  IDS d 247      50.518  23.225   7.917  0.00  0.00    -0.348 OA
ATOM    146  C3  IDS d 247      49.470  19.740   7.742  0.00  0.00     0.094 C 
ATOM    147  H   IDS d 247      49.217  21.511   8.899  0.00  0.00     0.097 H 
ATOM    148  H   IDS d 247      47.983  22.106   6.886  0.00  0.00     0.104 H 
ATOM    149  H   IDS d 247      49.547  18.732   9.435  0.00  0.00     0.210 HD
ATOM    150  H   IDS d 247      51.616  21.704   7.128  0.00  0.00     0.133 H 
ATOM    151  H   IDS d 247      47.442  19.791   6.977  0.00  0.00     0.092 H 
ATOM    152  H   IDS d 247      50.299  19.259   7.265  0.00  0.00     0.091 H 
ATOM    153  C2  IDS d 251      51.586  33.725  16.867  0.00  0.00     0.134 C 
ATOM    154  C1  IDS d 251      50.715  34.387  15.763  0.00  0.00     0.161 C 
ATOM    155  O62 IDS d 251      46.668  32.317  17.320  0.00  0.00    -0.646 OA
ATOM    156  C4  IDS d 251      49.836  31.834  17.206  0.00  0.00     0.103 C 
ATOM    157  C5  IDS d 251      48.932  33.015  16.738  0.00  0.00     0.152 C 
ATOM    158  C6  IDS d 251      47.456  32.587  16.430  0.00  0.00     0.206 C 
ATOM    159  S   IDS d 251      53.741  33.617  15.158  0.00  0.00     0.252 S 
ATOM    160  O3  IDS d 251      52.102  31.683  18.033  0.00  0.00    -0.390 OA
ATOM    161  O61 IDS d 251      47.054  32.503  15.265  0.00  0.00    -0.646 OA
ATOM    162  O3S IDS d 251      55.062  34.164  15.360  0.00  0.00    -0.572 OA
ATOM    163  O2  IDS d 251      52.976  33.869  16.563  0.00  0.00    -0.244 OA
ATOM    164  O2S IDS d 251      53.001  34.289  14.106  0.00  0.00    -0.572 OA
ATOM    165  O5  IDS d 251      49.545  33.586  15.527  0.00  0.00    -0.340 OA
ATOM    166  C3  IDS d 251      51.319  32.218  16.983  0.00  0.00     0.094 C 
ATOM    167  O1S IDS d 251      53.748  32.171  14.985  0.00  0.00    -0.572 OA
ATOM    168  O1  IDS d 251      50.392  35.702  16.253  0.00  0.00    -0.348 OA
ATOM    169  H   IDS d 251      51.330  34.218  17.781  0.00  0.00     0.097 H 
ATOM    170  H   IDS d 251      51.222  34.462  14.824  0.00  0.00     0.133 H 
ATOM    171  H   IDS d 251      49.671  31.569  18.229  0.00  0.00     0.092 H 
ATOM    172  H   IDS d 251      48.873  33.728  17.534  0.00  0.00     0.104 H 
ATOM    173  H   IDS d 251      53.032  31.921  17.897  0.00  0.00     0.210 HD
ATOM    174  H   IDS d 251      51.590  31.801  16.035  0.00  0.00     0.091 H 
ATOM    175  O5S SGN d 248      52.280  22.503   5.417  0.00  0.00    -0.572 OA
ATOM    176  O4S SGN d 248      54.689  22.710   5.306  0.00  0.00    -0.572 OA
ATOM    177  O2S SGN d 248      49.124  29.809   5.057  0.00  0.00    -0.296 OA
ATOM    178  O1  SGN d 248      51.403  27.420   8.417  0.00  0.00    -0.348 OA
ATOM    179  S1  SGN d 248      49.570  28.473   4.683  0.00  0.00     0.156 S 
ATOM    180  O3  SGN d 248      49.040  24.871   6.215  0.00  0.00    -0.391 OA
ATOM    181  O1S SGN d 248      48.625  27.755   3.854  0.00  0.00    -0.296 OA
ATOM    182  N   SGN d 248      49.726  27.653   6.113  0.00  0.00    -0.210 NA
ATOM    183  S2  SGN d 248      53.455  23.230   5.864  0.00  0.00     0.251 S 
ATOM    184  C4  SGN d 248      51.148  24.301   7.235  0.00  0.00     0.095 C 
ATOM    185  C6  SGN d 248      53.443  23.921   8.402  0.00  0.00     0.067 C 
ATOM    186  O6S SGN d 248      53.319  24.665   5.712  0.00  0.00    -0.572 OA
ATOM    187  O3S SGN d 248      50.890  28.486   4.083  0.00  0.00    -0.296 OA
ATOM    188  O5  SGN d 248      52.880  26.061   7.411  0.00  0.00    -0.349 OA
ATOM    189  C2  SGN d 248      50.744  26.579   6.297  0.00  0.00     0.081 C 
ATOM    190  C3  SGN d 248      50.093  25.387   7.014  0.00  0.00     0.083 C 
ATOM    191  C1  SGN d 248      51.923  27.093   7.190  0.00  0.00     0.150 C 
ATOM    192  O6  SGN d 248      53.497  22.963   7.392  0.00  0.00    -0.254 OA
ATOM    193  C5  SGN d 248      52.300  24.907   8.109  0.00  0.00     0.091 C 
ATOM    194  H   SGN d 248      48.240  29.756   5.454  0.00  0.00     0.231 HD
ATOM    195  H   SGN d 248      48.630  24.119   6.668  0.00  0.00     0.210 HD
ATOM    196  H   SGN d 248      47.753  27.761   4.278  0.00  0.00     0.231 HD
ATOM    197  H   SGN d 248      48.820  27.223   6.298  0.00  0.00     0.140 HD
ATOM    198  H   SGN d 248      51.558  23.950   6.312  0.00  0.00     0.091 H 
ATOM    199  H   SGN d 248      53.267  23.440   9.341  0.00  0.00     0.080 H 
ATOM    200  H   SGN d 248      54.371  24.451   8.443  0.00  0.00     0.080 H 
ATOM    201  H   SGN d 248      51.502  28.972   4.657  0.00  0.00     0.231 HD
ATOM    202  H   SGN d 248      51.115  26.293   5.335  0.00  0.00     0.076 H 
ATOM    203  H   SGN d 248      49.699  25.703   7.957  0.00  0.00     0.089 H 
ATOM    204  H   SGN d 248      52.392  27.922   6.703  0.00  0.00     0.131 H 
ATOM    205  H   SGN d 248      51.853  25.175   9.043  0.00  0.00     0.090 H 
ENDROOT
TORSDOF 64
ENDMDL
MODEL 7
REMARK VINA RESULT:      -5.7      3.966      8.490
REMARK  0 active torsions:
REMARK  status: ('A' for Active; 'I' for Inactive)
REMARK       I    between atoms: C5_1  and  C6_97 
REMARK       I    between atoms: O2_2  and  C2_107 
REMARK       I    between atoms: O2_2  and  S_88 
REMARK       I    between atoms: O3_4  and  C3_95 
REMARK       I    between atoms: C1_5  and  O1_40 
REMARK       I    between atoms: C3_6  and  C2_70 
REMARK       I    between atoms: C3_6  and  O3_51 
REMARK       I    between atoms: C2_7  and  O2_9 
REMARK       I    between atoms: C2_8  and  O2_75 
REMARK       I    between atoms: O2_9  and  S_23 
REMARK       I    between atoms: S2_14  and  O6_117 
REMARK       I    between atoms: C1_15  and  O1_130 
REMARK       I    between atoms: C4_16  and  O1_59 
REMARK       I    between atoms: S1_17  and  N_128 
REMARK       I    between atoms: S1_17  and  O1S_46 
REMARK       I    between atoms: S1_17  and  O2S_29 
REMARK       I    between atoms: S1_17  and  O3S_24 
REMARK       I    between atoms: C2_18  and  N_86 
REMARK       I    between atoms: S1_19  and  N_86 
REMARK       I    between atoms: S1_19  and  O1S_71 
REMARK       I    between atoms: S1_19  and  O2S_34 
REMARK       I    between atoms: S1_19  and  O3S_81 
REMARK       I    between atoms: O2S_22  and  S1_111 
REMARK       I    between atoms: C1_25  and  O1_58 
REMARK       I    between atoms: C4_27  and  O1_58 
REMARK       I    between atoms: O2S_28  and  S1_48 
REMARK       I    between atoms: O3_32  and  C3_49 
REMARK       I    between atoms: O2_33  and  C2_70 
REMARK       I    between atoms: O2_33  and  S_133 
REMARK       I    between atoms: C5_37  and  C6_84 
REMARK       I    between atoms: C5_41  and  C6_43 
REMARK       I    between atoms: O6_42  and  C6_84 
REMARK       I    between atoms: O6_42  and  S2_77 
REMARK       I    between atoms: C5_44  and  C6_108 
REMARK       I    between atoms: O1_45  and  C1_120 
REMARK       I    between atoms: O1_45  and  C4_114 
REMARK       I    between atoms: S2_47  and  O6_94 
REMARK       I    between atoms: S1_48  and  N_53 
REMARK       I    between atoms: S1_48  and  O1S_52 
REMARK       I    between atoms: S1_48  and  O3S_83 
REMARK       I    between atoms: O3_50  and  C3_119 
REMARK       I    between atoms: N_53  and  C2_89 
REMARK       I    between atoms: S_55  and  O2_75 
REMARK       I    between atoms: O3_56  and  C3_124 
REMARK       I    between atoms: O1_59  and  C1_110 
REMARK       I    between atoms: S2_60  and  O6_132 
REMARK       I    between atoms: O3_61  and  C3_115 
REMARK       I    between atoms: C6_62  and  C5_106 
REMARK       I    between atoms: C6_62  and  O6_94 
REMARK       I    between atoms: C4_63  and  O1_96 
REMARK       I    between atoms: O3_67  and  C3_93 
REMARK       I    between atoms: O1_69  and  C1_113 
REMARK       I    between atoms: O1_69  and  C4_103 
REMARK       I    between atoms: C2_70  and  C1_76 
REMARK       I    between atoms: C5_74  and  C6_90 
REMARK       I    between atoms: C1_76  and  O1_96 
REMARK       I    between atoms: C4_78  and  O1_112 
REMARK       I    between atoms: C6_80  and  C5_134 
REMARK       I    between atoms: C6_80  and  O6_132 
REMARK       I    between atoms: C6_90  and  O6_117 
REMARK       I    between atoms: C2_98  and  N_128 
REMARK       I    between atoms: C1_100  and  O1_112 
REMARK       I    between atoms: S1_111  and  O1S_116 
REMARK       I    between atoms: C4_127  and  O1_130 
ROOT
ATOM      1  C5  IDS d 249      52.183  27.138   9.262  0.00  0.00     0.152 C 
ATOM      2  O2  IDS d 249      48.789  29.426   8.679  0.00  0.00    -0.244 OA
ATOM      3  O1S IDS d 249      48.152  29.056   6.359  0.00  0.00    -0.572 OA
ATOM      4  O5  IDS d 249      50.881  26.573   9.543  0.00  0.00    -0.340 OA
ATOM      5  O1  IDS d 249      49.950  27.944  11.140  0.00  0.00    -0.348 OA
ATOM      6  O62 IDS d 249      53.009  24.872   9.118  0.00  0.00    -0.646 OA
ATOM      7  O3  IDS d 249      51.420  29.584   7.060  0.00  0.00    -0.390 OA
ATOM      8  S   IDS d 249      47.644  28.834   7.702  0.00  0.00     0.252 S 
ATOM      9  C3  IDS d 249      50.768  28.562   7.687  0.00  0.00     0.094 C 
ATOM     10  C6  IDS d 249      53.256  26.034   9.385  0.00  0.00     0.206 C 
ATOM     11  O3S IDS d 249      46.446  29.598   7.981  0.00  0.00    -0.572 OA
ATOM     12  C2  IDS d 249      50.067  28.836   8.997  0.00  0.00     0.134 C 
ATOM     13  C1  IDS d 249      49.875  27.537   9.826  0.00  0.00     0.161 C 
ATOM     14  C4  IDS d 249      52.107  27.793   7.838  0.00  0.00     0.103 C 
ATOM     15  O2S IDS d 249      47.498  27.430   7.994  0.00  0.00    -0.572 OA
ATOM     16  O61 IDS d 249      54.394  26.310   9.764  0.00  0.00    -0.646 OA
ATOM     17  H   IDS d 249      52.462  27.898   9.962  0.00  0.00     0.104 H 
ATOM     18  H   IDS d 249      50.783  30.277   6.823  0.00  0.00     0.210 HD
ATOM     19  H   IDS d 249      49.916  28.139   7.195  0.00  0.00     0.091 H 
ATOM     20  H   IDS d 249      50.658  29.496   9.596  0.00  0.00     0.097 H 
ATOM     21  H   IDS d 249      48.946  27.060   9.593  0.00  0.00     0.133 H 
ATOM     22  H   IDS d 249      52.879  28.476   7.554  0.00  0.00     0.092 H 
ATOM     23  O3  SGN d 246      51.019  16.340   0.959  0.00  0.00    -0.215 OA
ATOM     24  S2  SGN d 246      47.118  18.886  -3.668  0.00  0.00     0.251 S 
ATOM     25  O6S SGN d 246      46.266  18.886  -2.512  0.00  0.00    -0.572 OA
ATOM     26  O2S SGN d 246      48.351  14.875   3.434  0.00  0.00    -0.294 OA
ATOM     27  C3  SGN d 246      50.343  17.556   0.726  0.00  0.00     0.121 C 
ATOM     28  C2  SGN d 246      48.897  17.465   1.236  0.00  0.00     0.084 C 
ATOM     29  O4S SGN d 246      47.139  20.151  -4.355  0.00  0.00    -0.572 OA
ATOM     30  O5S SGN d 246      46.868  17.769  -4.544  0.00  0.00    -0.572 OA
ATOM     31  N   SGN d 246      48.895  17.184   2.673  0.00  0.00    -0.208 NA
ATOM     32  C4  SGN d 246      50.295  17.816  -0.755  0.00  0.00     0.095 C 
ATOM     33  O1  SGN d 246      48.801  19.906   1.598  0.00  0.00    -0.348 OA
ATOM     34  C5  SGN d 246      49.529  19.182  -1.012  0.00  0.00     0.091 C 
ATOM     35  C6  SGN d 246      49.381  19.568  -2.504  0.00  0.00     0.067 C 
ATOM     36  S1  SGN d 246      49.483  15.756   3.235  0.00  0.00     0.188 S 
ATOM     37  C1  SGN d 246      48.142  18.836   0.946  0.00  0.00     0.151 C 
ATOM     38  O1S SGN d 246      50.208  16.036   4.460  0.00  0.00    -0.294 OA
ATOM     39  O6  SGN d 246      48.546  18.641  -3.144  0.00  0.00    -0.254 OA
ATOM     40  O5  SGN d 246      48.165  19.109  -0.455  0.00  0.00    -0.349 OA
ATOM     41  O3S SGN d 246      50.358  15.291   2.181  0.00  0.00    -0.119 OA
ATOM     42  H   SGN d 246      47.792  15.222   4.147  0.00  0.00     0.231 HD
ATOM     43  H   SGN d 246      50.860  18.341   1.238  0.00  0.00     0.095 H 
ATOM     44  H   SGN d 246      48.390  16.672   0.728  0.00  0.00     0.077 H 
ATOM     45  H   SGN d 246      47.925  17.244   2.983  0.00  0.00     0.140 HD
ATOM     46  H   SGN d 246      49.770  17.049  -1.284  0.00  0.00     0.091 H 
ATOM     47  H   SGN d 246      50.134  19.924  -0.534  0.00  0.00     0.090 H 
ATOM     48  H   SGN d 246      50.344  19.563  -2.971  0.00  0.00     0.080 H 
ATOM     49  H   SGN d 246      48.954  20.546  -2.579  0.00  0.00     0.080 H 
ATOM     50  H   SGN d 246      47.137  18.746   1.301  0.00  0.00     0.131 H 
ATOM     51  H   SGN d 246      49.589  16.344   5.140  0.00  0.00     0.231 HD
ATOM     52  O3  SGN d 250      51.429  26.401  12.973  0.00  0.00    -0.391 OA
ATOM     53  O5S SGN d 250      43.994  29.640  12.188  0.00  0.00    -0.572 OA
ATOM     54  C4  SGN d 250      49.297  27.186  12.141  0.00  0.00     0.095 C 
ATOM     55  S1  SGN d 250      51.464  24.983  15.966  0.00  0.00     0.156 S 
ATOM     56  O3S SGN d 250      51.030  24.453  17.253  0.00  0.00    -0.296 OA
ATOM     57  C1  SGN d 250      48.239  27.164  14.827  0.00  0.00     0.150 C 
ATOM     58  O2S SGN d 250      52.819  25.558  16.026  0.00  0.00    -0.296 OA
ATOM     59  C5  SGN d 250      47.976  27.915  12.566  0.00  0.00     0.091 C 
ATOM     60  O6  SGN d 250      46.241  29.213  11.551  0.00  0.00    -0.254 OA
ATOM     61  O1S SGN d 250      51.291  24.004  14.904  0.00  0.00    -0.296 OA
ATOM     62  O1  SGN d 250      48.670  28.508  14.934  0.00  0.00    -0.348 OA
ATOM     63  S2  SGN d 250      44.802  29.483  11.007  0.00  0.00     0.251 S 
ATOM     64  C6  SGN d 250      46.957  28.021  11.425  0.00  0.00     0.067 C 
ATOM     65  C3  SGN d 250      50.245  27.089  13.355  0.00  0.00     0.083 C 
ATOM     66  C2  SGN d 250      49.529  26.315  14.498  0.00  0.00     0.081 C 
ATOM     67  O6S SGN d 250      44.892  30.715  10.236  0.00  0.00    -0.572 OA
ATOM     68  O5  SGN d 250      47.359  27.177  13.690  0.00  0.00    -0.349 OA
ATOM     69  O4S SGN d 250      44.415  28.328  10.213  0.00  0.00    -0.572 OA
ATOM     70  N   SGN d 250      50.440  26.267  15.688  0.00  0.00    -0.210 NA
ATOM     71  H   SGN d 250      51.870  26.889  12.259  0.00  0.00     0.210 HD
ATOM     72  H   SGN d 250      49.053  26.209  11.777  0.00  0.00     0.091 H 
ATOM     73  H   SGN d 250      50.136  24.087  17.166  0.00  0.00     0.231 HD
ATOM     74  H   SGN d 250      47.758  26.767  15.697  0.00  0.00     0.131 H 
ATOM     75  H   SGN d 250      53.065  25.897  15.151  0.00  0.00     0.231 HD
ATOM     76  H   SGN d 250      48.244  28.911  12.852  0.00  0.00     0.090 H 
ATOM     77  H   SGN d 250      51.589  24.385  14.063  0.00  0.00     0.231 HD
ATOM     78  H   SGN d 250      46.282  27.193  11.472  0.00  0.00     0.080 H 
ATOM     79  H   SGN d 250      47.470  28.011  10.487  0.00  0.00     0.080 H 
ATOM     80  H   SGN d 250      50.504  28.069  13.697  0.00  0.00     0.089 H 
ATOM     81  H   SGN d 250      49.277  25.310  14.231  0.00  0.00     0.076 H 
ATOM     82  H   SGN d 250      51.031  27.096  15.628  0.00  0.00     0.140 HD
ATOM     83  C1  SGN d 252      48.519  36.654  15.742  0.00  0.00     0.147 C 
ATOM     84  C2  SGN d 252      48.226  35.563  14.686  0.00  0.00     0.081 C 
ATOM     85  S1  SGN d 252      46.404  36.424  12.865  0.00  0.00     0.156 S 
ATOM     86  O3  SGN d 252      48.267  33.231  14.364  0.00  0.00    -0.391 OA
ATOM     87  O2S SGN d 252      46.785  35.528  11.793  0.00  0.00    -0.296 OA
ATOM     88  O1  SGN d 252      47.646  36.459  16.873  0.00  0.00    -0.369 OA
ATOM     89  S2  SGN d 252      53.943  35.627  15.579  0.00  0.00     0.251 S 
ATOM     90  C3  SGN d 252      48.534  34.207  15.315  0.00  0.00     0.083 C 
ATOM     91  C6  SGN d 252      51.773  35.474  17.164  0.00  0.00     0.067 C 
ATOM     92  O6S SGN d 252      53.809  37.067  15.780  0.00  0.00    -0.572 OA
ATOM     93  O1S SGN d 252      47.136  37.676  12.844  0.00  0.00    -0.296 OA
ATOM     94  O3S SGN d 252      44.959  36.636  12.917  0.00  0.00    -0.296 OA
ATOM     95  N   SGN d 252      46.793  35.642  14.279  0.00  0.00    -0.210 NA
ATOM     96  O5  SGN d 252      49.914  36.587  16.154  0.00  0.00    -0.350 OA
ATOM     97  O6  SGN d 252      52.617  34.973  16.149  0.00  0.00    -0.254 OA
ATOM     98  O5S SGN d 252      53.937  35.257  14.168  0.00  0.00    -0.572 OA
ATOM     99  C5  SGN d 252      50.312  35.321  16.722  0.00  0.00     0.091 C 
ATOM    100  C4  SGN d 252      50.057  34.166  15.703  0.00  0.00     0.095 C 
ATOM    101  O4S SGN d 252      55.062  35.050  16.312  0.00  0.00    -0.572 OA
ATOM    102  H   SGN d 252      48.340  37.622  15.322  0.00  0.00     0.131 H 
ATOM    103  H   SGN d 252      48.831  35.701  13.814  0.00  0.00     0.076 H 
ATOM    104  H   SGN d 252      47.326  33.259  14.128  0.00  0.00     0.210 HD
ATOM    105  H   SGN d 252      47.749  35.414  11.794  0.00  0.00     0.231 HD
ATOM    106  H   SGN d 252      47.805  35.582  17.256  0.00  0.00     0.212 HD
ATOM    107  H   SGN d 252      47.941  34.042  16.190  0.00  0.00     0.089 H 
ATOM    108  H   SGN d 252      51.934  34.925  18.068  0.00  0.00     0.080 H 
ATOM    109  H   SGN d 252      51.991  36.507  17.336  0.00  0.00     0.080 H 
ATOM    110  H   SGN d 252      48.089  37.494  12.810  0.00  0.00     0.231 HD
ATOM    111  H   SGN d 252      44.747  37.240  13.646  0.00  0.00     0.231 HD
ATOM    112  H   SGN d 252      46.293  36.117  15.031  0.00  0.00     0.140 HD
ATOM    113  H   SGN d 252      49.732  35.052  17.580  0.00  0.00     0.090 H 
ATOM    114  H   SGN d 252      50.653  34.267  14.820  0.00  0.00     0.091 H 
ATOM    115  C3  IDS d 245      52.610  16.155  -4.276  0.00  0.00     0.044 C 
ATOM    116  O2S IDS d 245      52.655  20.692  -3.633  0.00  0.00    -0.572 OA
ATOM    117  O2  IDS d 245      51.905  18.370  -3.808  0.00  0.00    -0.247 OA
ATOM    118  O3S IDS d 245      53.521  19.242  -5.371  0.00  0.00    -0.572 OA
ATOM    119  O3  IDS d 245      53.206  16.564  -5.484  0.00  0.00    -0.398 OA
ATOM    120  C2  IDS d 245      52.666  17.281  -3.288  0.00  0.00     0.100 C 
ATOM    121  C1  IDS d 245      52.033  16.769  -2.020  0.00  0.00     0.048 C 
ATOM    122  O1  IDS d 245      51.648  17.860  -1.224  0.00  0.00    -0.378 OA
ATOM    123  O1S IDS d 245      51.220  19.978  -5.435  0.00  0.00    -0.572 OA
ATOM    124  S   IDS d 245      52.368  19.648  -4.601  0.00  0.00     0.252 S 
ATOM    125  H   IDS d 245      51.589  15.888  -4.455  0.00  0.00     0.078 H 
ATOM    126  H   IDS d 245      53.136  15.310  -3.886  0.00  0.00     0.078 H 
ATOM    127  H   IDS d 245      52.729  17.330  -5.838  0.00  0.00     0.209 HD
ATOM    128  H   IDS d 245      53.667  17.612  -3.103  0.00  0.00     0.092 H 
ATOM    129  H   IDS d 245      52.738  16.166  -1.485  0.00  0.00     0.078 H 
ATOM    130  H   IDS d 245      51.175  16.177  -2.259  0.00  0.00     0.078 H 
ATOM    131  C2  IDS d 247      49.431  20.682   5.045  0.00  0.00     0.134 C 
ATOM    132  O2  IDS d 247      50.058  19.850   6.045  0.00  0.00    -0.244 OA
ATOM    133  S   IDS d 247      49.393  19.156   7.357  0.00  0.00     0.252 S 
ATOM    134  C5  IDS d 247      48.766  22.015   2.752  0.00  0.00     0.152 C 
ATOM    135  O1S IDS d 247      48.230  19.974   7.637  0.00  0.00    -0.572 OA
ATOM    136  O3  IDS d 247      47.881  18.919   4.556  0.00  0.00    -0.390 OA
ATOM    137  O3S IDS d 247      50.391  19.220   8.428  0.00  0.00    -0.572 OA
ATOM    138  O62 IDS d 247      49.552  23.090   0.745  0.00  0.00    -0.646 OA
ATOM    139  O61 IDS d 247      47.482  22.905   0.919  0.00  0.00    -0.646 OA
ATOM    140  O5  IDS d 247      50.172  22.026   3.108  0.00  0.00    -0.340 OA
ATOM    141  O2S IDS d 247      49.030  17.801   7.000  0.00  0.00    -0.572 OA
ATOM    142  C1  IDS d 247      50.470  21.658   4.458  0.00  0.00     0.161 C 
ATOM    143  C4  IDS d 247      48.257  20.518   2.764  0.00  0.00     0.103 C 
ATOM    144  C6  IDS d 247      48.593  22.717   1.391  0.00  0.00     0.206 C 
ATOM    145  O1  IDS d 247      50.473  22.757   5.297  0.00  0.00    -0.348 OA
ATOM    146  C3  IDS d 247      48.866  19.765   3.975  0.00  0.00     0.094 C 
ATOM    147  H   IDS d 247      48.642  21.270   5.468  0.00  0.00     0.097 H 
ATOM    148  H   IDS d 247      48.169  22.556   3.455  0.00  0.00     0.104 H 
ATOM    149  H   IDS d 247      48.265  18.449   5.314  0.00  0.00     0.210 HD
ATOM    150  H   IDS d 247      51.435  21.199   4.408  0.00  0.00     0.133 H 
ATOM    151  H   IDS d 247      47.188  20.487   2.808  0.00  0.00     0.092 H 
ATOM    152  H   IDS d 247      49.688  19.196   3.592  0.00  0.00     0.091 H 
ATOM    153  C2  IDS d 251      50.961  30.590  16.695  0.00  0.00     0.134 C 
ATOM    154  C1  IDS d 251      50.584  31.663  15.635  0.00  0.00     0.161 C 
ATOM    155  O62 IDS d 251      45.941  30.423  15.622  0.00  0.00    -0.646 OA
ATOM    156  C4  IDS d 251      48.856  29.181  16.113  0.00  0.00     0.103 C 
ATOM    157  C5  IDS d 251      48.368  30.623  15.779  0.00  0.00     0.152 C 
ATOM    158  C6  IDS d 251      46.986  30.658  15.039  0.00  0.00     0.206 C 
ATOM    159  S   IDS d 251      53.449  30.284  15.558  0.00  0.00     0.252 S 
ATOM    160  O3  IDS d 251      50.721  28.291  17.368  0.00  0.00    -0.390 OA
ATOM    161  O61 IDS d 251      46.923  30.917  13.833  0.00  0.00    -0.646 OA
ATOM    162  O3S IDS d 251      54.739  30.423  16.193  0.00  0.00    -0.572 OA
ATOM    163  O2  IDS d 251      52.380  30.433  16.766  0.00  0.00    -0.244 OA
ATOM    164  O2S IDS d 251      53.182  31.323  14.580  0.00  0.00    -0.572 OA
ATOM    165  O5  IDS d 251      49.397  31.252  14.934  0.00  0.00    -0.340 OA
ATOM    166  C3  IDS d 251      50.387  29.210  16.345  0.00  0.00     0.094 C 
ATOM    167  O1S IDS d 251      53.226  28.951  15.016  0.00  0.00    -0.572 OA
ATOM    168  O1  IDS d 251      50.394  32.888  16.366  0.00  0.00    -0.348 OA
ATOM    169  H   IDS d 251      50.556  30.935  17.622  0.00  0.00     0.097 H 
ATOM    170  H   IDS d 251      51.340  31.795  14.890  0.00  0.00     0.133 H 
ATOM    171  H   IDS d 251      48.359  28.765  16.964  0.00  0.00     0.092 H 
ATOM    172  H   IDS d 251      48.224  31.150  16.698  0.00  0.00     0.104 H 
ATOM    173  H   IDS d 251      51.679  28.306  17.515  0.00  0.00     0.210 HD
ATOM    174  H   IDS d 251      50.830  28.940  15.409  0.00  0.00     0.091 H 
ATOM    175  O5S SGN d 248      52.698  22.132   3.168  0.00  0.00    -0.572 OA
ATOM    176  O4S SGN d 248      55.033  21.735   3.670  0.00  0.00    -0.572 OA
ATOM    177  O2S SGN d 248      51.244  29.917   4.032  0.00  0.00    -0.296 OA
ATOM    178  O1  SGN d 248      51.971  26.394   7.073  0.00  0.00    -0.348 OA
ATOM    179  S1  SGN d 248      51.512  28.616   3.431  0.00  0.00     0.156 S 
ATOM    180  O3  SGN d 248      49.885  25.036   3.798  0.00  0.00    -0.391 OA
ATOM    181  O1S SGN d 248      50.721  28.347   2.249  0.00  0.00    -0.296 OA
ATOM    182  N   SGN d 248      51.095  27.511   4.592  0.00  0.00    -0.210 NA
ATOM    183  S2  SGN d 248      53.815  22.429   4.047  0.00  0.00     0.251 S 
ATOM    184  C4  SGN d 248      51.465  23.751   5.086  0.00  0.00     0.095 C 
ATOM    185  C6  SGN d 248      53.217  22.569   6.605  0.00  0.00     0.067 C 
ATOM    186  O6S SGN d 248      54.008  23.851   4.252  0.00  0.00    -0.572 OA
ATOM    187  O3S SGN d 248      52.925  28.414   3.175  0.00  0.00    -0.296 OA
ATOM    188  O5  SGN d 248      53.382  24.938   6.111  0.00  0.00    -0.349 OA
ATOM    189  C2  SGN d 248      51.791  26.199   4.714  0.00  0.00     0.081 C 
ATOM    190  C3  SGN d 248      50.747  25.092   4.923  0.00  0.00     0.083 C 
ATOM    191  C1  SGN d 248      52.745  26.202   5.957  0.00  0.00     0.150 C 
ATOM    192  O6  SGN d 248      53.369  21.855   5.418  0.00  0.00    -0.254 OA
ATOM    193  C5  SGN d 248      52.417  23.852   6.328  0.00  0.00     0.091 C 
ATOM    194  H   SGN d 248      50.291  30.012   4.187  0.00  0.00     0.231 HD
ATOM    195  H   SGN d 248      49.226  24.338   3.930  0.00  0.00     0.210 HD
ATOM    196  H   SGN d 248      49.783  28.490   2.448  0.00  0.00     0.231 HD
ATOM    197  H   SGN d 248      50.108  27.299   4.444  0.00  0.00     0.140 HD
ATOM    198  H   SGN d 248      52.046  23.503   4.222  0.00  0.00     0.091 H 
ATOM    199  H   SGN d 248      52.692  21.969   7.318  0.00  0.00     0.080 H 
ATOM    200  H   SGN d 248      54.179  22.825   6.995  0.00  0.00     0.080 H 
ATOM    201  H   SGN d 248      53.430  28.601   3.981  0.00  0.00     0.231 HD
ATOM    202  H   SGN d 248      52.358  26.029   3.822  0.00  0.00     0.076 H 
ATOM    203  H   SGN d 248      50.170  25.300   5.800  0.00  0.00     0.089 H 
ATOM    204  H   SGN d 248      53.483  26.965   5.826  0.00  0.00     0.131 H 
ATOM    205  H   SGN d 248      51.783  24.030   7.172  0.00  0.00     0.090 H 
ENDROOT
TORSDOF 64
ENDMDL
MODEL 8
REMARK VINA RESULT:      -5.7      3.770     18.222
REMARK  0 active torsions:
REMARK  status: ('A' for Active; 'I' for Inactive)
REMARK       I    between atoms: C5_1  and  C6_97 
REMARK       I    between atoms: O2_2  and  C2_107 
REMARK       I    between atoms: O2_2  and  S_88 
REMARK       I    between atoms: O3_4  and  C3_95 
REMARK       I    between atoms: C1_5  and  O1_40 
REMARK       I    between atoms: C3_6  and  C2_70 
REMARK       I    between atoms: C3_6  and  O3_51 
REMARK       I    between atoms: C2_7  and  O2_9 
REMARK       I    between atoms: C2_8  and  O2_75 
REMARK       I    between atoms: O2_9  and  S_23 
REMARK       I    between atoms: S2_14  and  O6_117 
REMARK       I    between atoms: C1_15  and  O1_130 
REMARK       I    between atoms: C4_16  and  O1_59 
REMARK       I    between atoms: S1_17  and  N_128 
REMARK       I    between atoms: S1_17  and  O1S_46 
REMARK       I    between atoms: S1_17  and  O2S_29 
REMARK       I    between atoms: S1_17  and  O3S_24 
REMARK       I    between atoms: C2_18  and  N_86 
REMARK       I    between atoms: S1_19  and  N_86 
REMARK       I    between atoms: S1_19  and  O1S_71 
REMARK       I    between atoms: S1_19  and  O2S_34 
REMARK       I    between atoms: S1_19  and  O3S_81 
REMARK       I    between atoms: O2S_22  and  S1_111 
REMARK       I    between atoms: C1_25  and  O1_58 
REMARK       I    between atoms: C4_27  and  O1_58 
REMARK       I    between atoms: O2S_28  and  S1_48 
REMARK       I    between atoms: O3_32  and  C3_49 
REMARK       I    between atoms: O2_33  and  C2_70 
REMARK       I    between atoms: O2_33  and  S_133 
REMARK       I    between atoms: C5_37  and  C6_84 
REMARK       I    between atoms: C5_41  and  C6_43 
REMARK       I    between atoms: O6_42  and  C6_84 
REMARK       I    between atoms: O6_42  and  S2_77 
REMARK       I    between atoms: C5_44  and  C6_108 
REMARK       I    between atoms: O1_45  and  C1_120 
REMARK       I    between atoms: O1_45  and  C4_114 
REMARK       I    between atoms: S2_47  and  O6_94 
REMARK       I    between atoms: S1_48  and  N_53 
REMARK       I    between atoms: S1_48  and  O1S_52 
REMARK       I    between atoms: S1_48  and  O3S_83 
REMARK       I    between atoms: O3_50  and  C3_119 
REMARK       I    between atoms: N_53  and  C2_89 
REMARK       I    between atoms: S_55  and  O2_75 
REMARK       I    between atoms: O3_56  and  C3_124 
REMARK       I    between atoms: O1_59  and  C1_110 
REMARK       I    between atoms: S2_60  and  O6_132 
REMARK       I    between atoms: O3_61  and  C3_115 
REMARK       I    between atoms: C6_62  and  C5_106 
REMARK       I    between atoms: C6_62  and  O6_94 
REMARK       I    between atoms: C4_63  and  O1_96 
REMARK       I    between atoms: O3_67  and  C3_93 
REMARK       I    between atoms: O1_69  and  C1_113 
REMARK       I    between atoms: O1_69  and  C4_103 
REMARK       I    between atoms: C2_70  and  C1_76 
REMARK       I    between atoms: C5_74  and  C6_90 
REMARK       I    between atoms: C1_76  and  O1_96 
REMARK       I    between atoms: C4_78  and  O1_112 
REMARK       I    between atoms: C6_80  and  C5_134 
REMARK       I    between atoms: C6_80  and  O6_132 
REMARK       I    between atoms: C6_90  and  O6_117 
REMARK       I    between atoms: C2_98  and  N_128 
REMARK       I    between atoms: C1_100  and  O1_112 
REMARK       I    between atoms: S1_111  and  O1S_116 
REMARK       I    between atoms: C4_127  and  O1_130 
ROOT
ATOM      1  C5  IDS d 249      49.395  26.706   5.739  0.00  0.00     0.152 C 
ATOM      2  O2  IDS d 249      51.386  23.314   7.014  0.00  0.00    -0.244 OA
ATOM      3  O1S IDS d 249      52.687  24.018   8.948  0.00  0.00    -0.572 OA
ATOM      4  O5  IDS d 249      48.761  25.818   6.688  0.00  0.00    -0.340 OA
ATOM      5  O1  IDS d 249      48.650  23.773   5.635  0.00  0.00    -0.348 OA
ATOM      6  O62 IDS d 249      47.857  28.414   6.485  0.00  0.00    -0.646 OA
ATOM      7  O3  IDS d 249      52.668  26.014   6.217  0.00  0.00    -0.390 OA
ATOM      8  S   IDS d 249      51.595  23.121   8.606  0.00  0.00     0.252 S 
ATOM      9  C3  IDS d 249      51.478  25.679   6.796  0.00  0.00     0.094 C 
ATOM     10  C6  IDS d 249      48.530  27.974   5.570  0.00  0.00     0.206 C 
ATOM     11  O3S IDS d 249      51.935  21.727   8.799  0.00  0.00    -0.572 OA
ATOM     12  C2  IDS d 249      50.768  24.427   6.336  0.00  0.00     0.134 C 
ATOM     13  C1  IDS d 249      49.249  24.482   6.654  0.00  0.00     0.161 C 
ATOM     14  C4  IDS d 249      50.844  26.993   6.269  0.00  0.00     0.103 C 
ATOM     15  O2S IDS d 249      50.367  23.498   9.262  0.00  0.00    -0.572 OA
ATOM     16  O61 IDS d 249      48.498  28.568   4.492  0.00  0.00    -0.646 OA
ATOM     17  H   IDS d 249      49.478  26.275   4.764  0.00  0.00     0.104 H 
ATOM     18  H   IDS d 249      53.320  25.318   6.392  0.00  0.00     0.210 HD
ATOM     19  H   IDS d 249      51.486  25.422   7.835  0.00  0.00     0.091 H 
ATOM     20  H   IDS d 249      50.853  24.328   5.274  0.00  0.00     0.097 H 
ATOM     21  H   IDS d 249      49.038  24.074   7.621  0.00  0.00     0.133 H 
ATOM     22  H   IDS d 249      51.554  27.419   5.593  0.00  0.00     0.092 H 
ATOM     23  O3  SGN d 246      47.155  34.280  16.898  0.00  0.00    -0.215 OA
ATOM     24  S2  SGN d 246      52.086  32.185  20.695  0.00  0.00     0.251 S 
ATOM     25  O6S SGN d 246      51.276  31.005  20.562  0.00  0.00    -0.572 OA
ATOM     26  O2S SGN d 246      44.334  31.745  17.906  0.00  0.00    -0.294 OA
ATOM     27  C3  SGN d 246      48.186  33.320  16.823  0.00  0.00     0.121 C 
ATOM     28  C2  SGN d 246      47.739  32.007  17.483  0.00  0.00     0.084 C 
ATOM     29  O4S SGN d 246      53.479  31.948  20.420  0.00  0.00    -0.572 OA
ATOM     30  O5S SGN d 246      51.862  32.875  21.941  0.00  0.00    -0.572 OA
ATOM     31  N   SGN d 246      46.552  31.489  16.801  0.00  0.00    -0.208 NA
ATOM     32  C4  SGN d 246      49.387  33.829  17.574  0.00  0.00     0.095 C 
ATOM     33  O1  SGN d 246      49.272  30.692  16.062  0.00  0.00    -0.348 OA
ATOM     34  C5  SGN d 246      50.542  32.744  17.491  0.00  0.00     0.091 C 
ATOM     35  C6  SGN d 246      51.839  33.125  18.246  0.00  0.00     0.067 C 
ATOM     36  S1  SGN d 246      45.139  32.326  16.850  0.00  0.00     0.188 S 
ATOM     37  C1  SGN d 246      48.921  30.943  17.411  0.00  0.00     0.151 C 
ATOM     38  O1S SGN d 246      44.524  32.220  15.541  0.00  0.00    -0.294 OA
ATOM     39  O6  SGN d 246      51.581  33.170  19.623  0.00  0.00    -0.254 OA
ATOM     40  O5  SGN d 246      50.077  31.466  18.064  0.00  0.00    -0.349 OA
ATOM     41  O3S SGN d 246      45.540  33.683  17.153  0.00  0.00    -0.119 OA
ATOM     42  H   SGN d 246      44.088  30.839  17.664  0.00  0.00     0.231 HD
ATOM     43  H   SGN d 246      48.422  33.147  15.794  0.00  0.00     0.095 H 
ATOM     44  H   SGN d 246      47.495  32.190  18.509  0.00  0.00     0.077 H 
ATOM     45  H   SGN d 246      46.363  30.569  17.199  0.00  0.00     0.140 HD
ATOM     46  H   SGN d 246      49.176  33.995  18.609  0.00  0.00     0.091 H 
ATOM     47  H   SGN d 246      50.771  32.673  16.449  0.00  0.00     0.090 H 
ATOM     48  H   SGN d 246      52.177  34.084  17.914  0.00  0.00     0.080 H 
ATOM     49  H   SGN d 246      52.595  32.393  18.048  0.00  0.00     0.080 H 
ATOM     50  H   SGN d 246      48.590  30.043  17.884  0.00  0.00     0.131 H 
ATOM     51  H   SGN d 246      44.270  31.298  15.377  0.00  0.00     0.231 HD
ATOM     52  O3  SGN d 250      46.306  24.788   4.451  0.00  0.00    -0.391 OA
ATOM     53  O5S SGN d 250      49.037  17.922   7.884  0.00  0.00    -0.572 OA
ATOM     54  C4  SGN d 250      47.398  23.154   5.862  0.00  0.00     0.095 C 
ATOM     55  S1  SGN d 250      43.227  24.106   3.437  0.00  0.00     0.156 S 
ATOM     56  O3S SGN d 250      41.951  23.427   3.242  0.00  0.00    -0.296 OA
ATOM     57  C1  SGN d 250      45.524  21.141   4.985  0.00  0.00     0.150 C 
ATOM     58  O2S SGN d 250      43.636  24.879   2.253  0.00  0.00    -0.296 OA
ATOM     59  C5  SGN d 250      47.610  21.614   6.065  0.00  0.00     0.091 C 
ATOM     60  O6  SGN d 250      49.211  20.144   7.065  0.00  0.00    -0.254 OA
ATOM     61  O1S SGN d 250      43.234  24.878   4.670  0.00  0.00    -0.296 OA
ATOM     62  O1  SGN d 250      46.442  20.835   3.952  0.00  0.00    -0.348 OA
ATOM     63  S2  SGN d 250      49.747  19.147   8.142  0.00  0.00     0.251 S 
ATOM     64  C6  SGN d 250      48.444  21.284   7.309  0.00  0.00     0.067 C 
ATOM     65  C3  SGN d 250      46.520  23.392   4.615  0.00  0.00     0.083 C 
ATOM     66  C2  SGN d 250      45.158  22.666   4.807  0.00  0.00     0.081 C 
ATOM     67  O6S SGN d 250      51.175  19.017   7.889  0.00  0.00    -0.572 OA
ATOM     68  O5  SGN d 250      46.290  20.958   6.188  0.00  0.00    -0.349 OA
ATOM     69  O4S SGN d 250      49.438  19.711   9.446  0.00  0.00    -0.572 OA
ATOM     70  N   SGN d 250      44.331  22.865   3.572  0.00  0.00    -0.210 NA
ATOM     71  H   SGN d 250      47.159  25.234   4.332  0.00  0.00     0.210 HD
ATOM     72  H   SGN d 250      46.928  23.558   6.734  0.00  0.00     0.091 H 
ATOM     73  H   SGN d 250      41.723  22.932   4.044  0.00  0.00     0.231 HD
ATOM     74  H   SGN d 250      44.628  20.554   4.990  0.00  0.00     0.131 H 
ATOM     75  H   SGN d 250      44.487  25.311   2.427  0.00  0.00     0.231 HD
ATOM     76  H   SGN d 250      48.148  21.255   5.213  0.00  0.00     0.090 H 
ATOM     77  H   SGN d 250      44.093  25.317   4.771  0.00  0.00     0.231 HD
ATOM     78  H   SGN d 250      47.792  21.104   8.137  0.00  0.00     0.080 H 
ATOM     79  H   SGN d 250      49.089  22.106   7.534  0.00  0.00     0.080 H 
ATOM     80  H   SGN d 250      47.008  23.008   3.744  0.00  0.00     0.089 H 
ATOM     81  H   SGN d 250      44.601  23.034   5.643  0.00  0.00     0.076 H 
ATOM     82  H   SGN d 250      44.990  22.985   2.804  0.00  0.00     0.140 HD
ATOM     83  C1  SGN d 252      51.834  16.757  -0.666  0.00  0.00     0.147 C 
ATOM     84  C2  SGN d 252      51.752  17.483   0.696  0.00  0.00     0.081 C 
ATOM     85  S1  SGN d 252      53.582  16.497   2.444  0.00  0.00     0.156 S 
ATOM     86  O3  SGN d 252      50.270  18.688   2.072  0.00  0.00    -0.391 OA
ATOM     87  O2S SGN d 252      53.669  17.669   3.292  0.00  0.00    -0.296 OA
ATOM     88  O1  SGN d 252      50.900  15.658  -0.670  0.00  0.00    -0.369 OA
ATOM     89  S2  SGN d 252      51.319  21.503  -3.443  0.00  0.00     0.251 S 
ATOM     90  C3  SGN d 252      50.340  18.040   0.847  0.00  0.00     0.083 C 
ATOM     91  C6  SGN d 252      50.076  19.175  -2.917  0.00  0.00     0.067 C 
ATOM     92  O6S SGN d 252      52.230  20.673  -4.225  0.00  0.00    -0.572 OA
ATOM     93  O1S SGN d 252      54.528  16.523   1.344  0.00  0.00    -0.296 OA
ATOM     94  O3S SGN d 252      53.669  15.256   3.211  0.00  0.00    -0.296 OA
ATOM     95  N   SGN d 252      52.055  16.514   1.790  0.00  0.00    -0.210 NA
ATOM     96  O5  SGN d 252      51.536  17.687  -1.746  0.00  0.00    -0.350 OA
ATOM     97  O6  SGN d 252      50.422  20.506  -2.598  0.00  0.00    -0.254 OA
ATOM     98  O5S SGN d 252      52.013  22.292  -2.430  0.00  0.00    -0.572 OA
ATOM     99  C5  SGN d 252      50.232  18.304  -1.664  0.00  0.00     0.091 C 
ATOM    100  C4  SGN d 252      50.079  19.070  -0.313  0.00  0.00     0.095 C 
ATOM    101  O4S SGN d 252      50.423  22.302  -4.268  0.00  0.00    -0.572 OA
ATOM    102  H   SGN d 252      52.824  16.378  -0.816  0.00  0.00     0.131 H 
ATOM    103  H   SGN d 252      52.462  18.281   0.749  0.00  0.00     0.076 H 
ATOM    104  H   SGN d 252      50.431  18.049   2.785  0.00  0.00     0.210 HD
ATOM    105  H   SGN d 252      53.607  18.468   2.746  0.00  0.00     0.231 HD
ATOM    106  H   SGN d 252      50.001  15.998  -0.535  0.00  0.00     0.212 HD
ATOM    107  H   SGN d 252      49.608  17.261   0.799  0.00  0.00     0.089 H 
ATOM    108  H   SGN d 252      49.061  19.139  -3.254  0.00  0.00     0.080 H 
ATOM    109  H   SGN d 252      50.717  18.811  -3.692  0.00  0.00     0.080 H 
ATOM    110  H   SGN d 252      54.440  17.360   0.861  0.00  0.00     0.231 HD
ATOM    111  H   SGN d 252      53.607  14.499   2.608  0.00  0.00     0.231 HD
ATOM    112  H   SGN d 252      51.876  15.580   1.422  0.00  0.00     0.140 HD
ATOM    113  H   SGN d 252      49.437  17.588  -1.656  0.00  0.00     0.090 H 
ATOM    114  H   SGN d 252      50.770  19.884  -0.229  0.00  0.00     0.091 H 
ATOM    115  C3  IDS d 245      50.632  37.936  19.022  0.00  0.00     0.044 C 
ATOM    116  O2S IDS d 245      53.506  35.679  16.257  0.00  0.00    -0.572 OA
ATOM    117  O2  IDS d 245      51.913  36.199  18.040  0.00  0.00    -0.247 OA
ATOM    118  O3S IDS d 245      53.654  37.769  17.474  0.00  0.00    -0.572 OA
ATOM    119  O3  IDS d 245      51.769  38.759  19.134  0.00  0.00    -0.398 OA
ATOM    120  C2  IDS d 245      50.780  37.041  17.828  0.00  0.00     0.100 C 
ATOM    121  C1  IDS d 245      49.525  36.209  17.760  0.00  0.00     0.048 C 
ATOM    122  O1  IDS d 245      49.770  35.072  16.972  0.00  0.00    -0.378 OA
ATOM    123  O1S IDS d 245      54.183  35.683  18.573  0.00  0.00    -0.572 OA
ATOM    124  S   IDS d 245      53.399  36.349  17.541  0.00  0.00     0.252 S 
ATOM    125  H   IDS d 245      50.535  37.340  19.906  0.00  0.00     0.078 H 
ATOM    126  H   IDS d 245      49.760  38.545  18.907  0.00  0.00     0.078 H 
ATOM    127  H   IDS d 245      52.559  38.207  19.238  0.00  0.00     0.209 HD
ATOM    128  H   IDS d 245      50.918  37.591  16.921  0.00  0.00     0.092 H 
ATOM    129  H   IDS d 245      48.736  36.784  17.322  0.00  0.00     0.078 H 
ATOM    130  H   IDS d 245      49.237  35.909  18.746  0.00  0.00     0.078 H 
ATOM    131  C2  IDS d 247      47.499  29.300  13.269  0.00  0.00     0.134 C 
ATOM    132  O2  IDS d 247      46.223  29.710  12.731  0.00  0.00    -0.244 OA
ATOM    133  S   IDS d 247      44.805  28.913  12.752  0.00  0.00     0.252 S 
ATOM    134  C5  IDS d 247      50.023  29.218  14.318  0.00  0.00     0.152 C 
ATOM    135  O1S IDS d 247      45.184  27.521  12.894  0.00  0.00    -0.572 OA
ATOM    136  O3  IDS d 247      46.510  29.092  15.444  0.00  0.00    -0.390 OA
ATOM    137  O3S IDS d 247      44.143  29.184  11.473  0.00  0.00    -0.572 OA
ATOM    138  O62 IDS d 247      52.196  30.250  14.425  0.00  0.00    -0.646 OA
ATOM    139  O61 IDS d 247      51.895  28.644  15.720  0.00  0.00    -0.646 OA
ATOM    140  O5  IDS d 247      49.819  30.148  13.224  0.00  0.00    -0.340 OA
ATOM    141  O2S IDS d 247      44.051  29.388  13.892  0.00  0.00    -0.572 OA
ATOM    142  C1  IDS d 247      48.636  29.940  12.448  0.00  0.00     0.161 C 
ATOM    143  C4  IDS d 247      48.910  29.478  15.411  0.00  0.00     0.103 C 
ATOM    144  C6  IDS d 247      51.461  29.380  14.848  0.00  0.00     0.206 C 
ATOM    145  O1  IDS d 247      48.865  29.082  11.389  0.00  0.00    -0.348 OA
ATOM    146  C3  IDS d 247      47.547  29.744  14.720  0.00  0.00     0.094 C 
ATOM    147  H   IDS d 247      47.621  28.238  13.214  0.00  0.00     0.097 H 
ATOM    148  H   IDS d 247      49.924  28.200  14.004  0.00  0.00     0.104 H 
ATOM    149  H   IDS d 247      45.658  29.260  15.010  0.00  0.00     0.210 HD
ATOM    150  H   IDS d 247      48.356  30.915  12.110  0.00  0.00     0.133 H 
ATOM    151  H   IDS d 247      48.833  28.641  16.073  0.00  0.00     0.092 H 
ATOM    152  H   IDS d 247      47.412  30.805  14.723  0.00  0.00     0.091 H 
ATOM    153  C2  IDS d 251      46.812  20.911   0.410  0.00  0.00     0.134 C 
ATOM    154  C1  IDS d 251      48.310  20.616   0.700  0.00  0.00     0.161 C 
ATOM    155  O62 IDS d 251      47.308  17.558   4.268  0.00  0.00    -0.646 OA
ATOM    156  C4  IDS d 251      46.132  20.156   2.802  0.00  0.00     0.103 C 
ATOM    157  C5  IDS d 251      47.402  19.288   2.550  0.00  0.00     0.152 C 
ATOM    158  C6  IDS d 251      47.901  18.528   3.827  0.00  0.00     0.206 C 
ATOM    159  S   IDS d 251      47.421  23.489  -0.336  0.00  0.00     0.252 S 
ATOM    160  O3  IDS d 251      44.668  21.440   1.370  0.00  0.00    -0.390 OA
ATOM    161  O61 IDS d 251      48.913  18.902   4.428  0.00  0.00    -0.646 OA
ATOM    162  O3S IDS d 251      47.118  24.148  -1.585  0.00  0.00    -0.572 OA
ATOM    163  O2  IDS d 251      46.681  22.053  -0.440  0.00  0.00    -0.244 OA
ATOM    164  O2S IDS d 251      48.842  23.259  -0.143  0.00  0.00    -0.572 OA
ATOM    165  O5  IDS d 251      48.462  20.187   2.064  0.00  0.00    -0.340 OA
ATOM    166  C3  IDS d 251      46.030  21.230   1.692  0.00  0.00     0.094 C 
ATOM    167  O1S IDS d 251      46.813  24.147   0.813  0.00  0.00    -0.572 OA
ATOM    168  O1  IDS d 251      48.701  19.601  -0.243  0.00  0.00    -0.348 OA
ATOM    169  H   IDS d 251      46.421  20.029  -0.052  0.00  0.00     0.097 H 
ATOM    170  H   IDS d 251      48.932  21.479   0.587  0.00  0.00     0.133 H 
ATOM    171  H   IDS d 251      45.235  19.573   2.839  0.00  0.00     0.092 H 
ATOM    172  H   IDS d 251      47.155  18.532   1.834  0.00  0.00     0.104 H 
ATOM    173  H   IDS d 251      44.600  22.113   0.675  0.00  0.00     0.210 HD
ATOM    174  H   IDS d 251      46.482  22.112   2.096  0.00  0.00     0.091 H 
ATOM    175  O5S SGN d 248      49.914  32.040  11.548  0.00  0.00    -0.572 OA
ATOM    176  O4S SGN d 248      49.334  33.807   9.999  0.00  0.00    -0.572 OA
ATOM    177  O2S SGN d 248      54.974  27.083   7.903  0.00  0.00    -0.296 OA
ATOM    178  O1  SGN d 248      50.342  27.847   7.526  0.00  0.00    -0.348 OA
ATOM    179  S1  SGN d 248      54.441  28.134   8.761  0.00  0.00     0.156 S 
ATOM    180  O3  SGN d 248      51.540  28.286  11.436  0.00  0.00    -0.391 OA
ATOM    181  O1S SGN d 248      55.034  28.165  10.081  0.00  0.00    -0.296 OA
ATOM    182  N   SGN d 248      52.832  27.780   8.928  0.00  0.00    -0.210 NA
ATOM    183  S2  SGN d 248      49.555  32.385  10.183  0.00  0.00     0.251 S 
ATOM    184  C4  SGN d 248      49.758  29.508  10.369  0.00  0.00     0.095 C 
ATOM    185  C6  SGN d 248      47.898  30.715   9.007  0.00  0.00     0.067 C 
ATOM    186  O6S SGN d 248      50.458  31.815   9.203  0.00  0.00    -0.572 OA
ATOM    187  O3S SGN d 248      54.501  29.437   8.128  0.00  0.00    -0.296 OA
ATOM    188  O5  SGN d 248      49.968  30.018   7.955  0.00  0.00    -0.349 OA
ATOM    189  C2  SGN d 248      51.806  28.846   9.104  0.00  0.00     0.081 C 
ATOM    190  C3  SGN d 248      50.832  28.430  10.215  0.00  0.00     0.083 C 
ATOM    191  C1  SGN d 248      50.982  29.032   7.785  0.00  0.00     0.150 C 
ATOM    192  O6  SGN d 248      48.190  31.680   9.970  0.00  0.00    -0.254 OA
ATOM    193  C5  SGN d 248      49.005  29.650   9.001  0.00  0.00     0.091 C 
ATOM    194  H   SGN d 248      54.916  26.230   8.363  0.00  0.00     0.231 HD
ATOM    195  H   SGN d 248      50.925  28.023  12.138  0.00  0.00     0.210 HD
ATOM    196  H   SGN d 248      54.981  27.283  10.480  0.00  0.00     0.231 HD
ATOM    197  H   SGN d 248      52.756  27.172   9.744  0.00  0.00     0.140 HD
ATOM    198  H   SGN d 248      50.179  30.455  10.634  0.00  0.00     0.091 H 
ATOM    199  H   SGN d 248      46.960  30.254   9.237  0.00  0.00     0.080 H 
ATOM    200  H   SGN d 248      47.840  31.177   8.044  0.00  0.00     0.080 H 
ATOM    201  H   SGN d 248      54.098  29.387   7.247  0.00  0.00     0.231 HD
ATOM    202  H   SGN d 248      52.304  29.761   9.352  0.00  0.00     0.076 H 
ATOM    203  H   SGN d 248      50.372  27.498   9.962  0.00  0.00     0.089 H 
ATOM    204  H   SGN d 248      51.645  29.328   7.000  0.00  0.00     0.131 H 
ATOM    205  H   SGN d 248      48.544  28.701   8.818  0.00  0.00     0.090 H 
ENDROOT
TORSDOF 64
ENDMDL
MODEL 9
REMARK VINA RESULT:      -5.1      3.834      7.805
REMARK  0 active torsions:
REMARK  status: ('A' for Active; 'I' for Inactive)
REMARK       I    between atoms: C5_1  and  C6_97 
REMARK       I    between atoms: O2_2  and  C2_107 
REMARK       I    between atoms: O2_2  and  S_88 
REMARK       I    between atoms: O3_4  and  C3_95 
REMARK       I    between atoms: C1_5  and  O1_40 
REMARK       I    between atoms: C3_6  and  C2_70 
REMARK       I    between atoms: C3_6  and  O3_51 
REMARK       I    between atoms: C2_7  and  O2_9 
REMARK       I    between atoms: C2_8  and  O2_75 
REMARK       I    between atoms: O2_9  and  S_23 
REMARK       I    between atoms: S2_14  and  O6_117 
REMARK       I    between atoms: C1_15  and  O1_130 
REMARK       I    between atoms: C4_16  and  O1_59 
REMARK       I    between atoms: S1_17  and  N_128 
REMARK       I    between atoms: S1_17  and  O1S_46 
REMARK       I    between atoms: S1_17  and  O2S_29 
REMARK       I    between atoms: S1_17  and  O3S_24 
REMARK       I    between atoms: C2_18  and  N_86 
REMARK       I    between atoms: S1_19  and  N_86 
REMARK       I    between atoms: S1_19  and  O1S_71 
REMARK       I    between atoms: S1_19  and  O2S_34 
REMARK       I    between atoms: S1_19  and  O3S_81 
REMARK       I    between atoms: O2S_22  and  S1_111 
REMARK       I    between atoms: C1_25  and  O1_58 
REMARK       I    between atoms: C4_27  and  O1_58 
REMARK       I    between atoms: O2S_28  and  S1_48 
REMARK       I    between atoms: O3_32  and  C3_49 
REMARK       I    between atoms: O2_33  and  C2_70 
REMARK       I    between atoms: O2_33  and  S_133 
REMARK       I    between atoms: C5_37  and  C6_84 
REMARK       I    between atoms: C5_41  and  C6_43 
REMARK       I    between atoms: O6_42  and  C6_84 
REMARK       I    between atoms: O6_42  and  S2_77 
REMARK       I    between atoms: C5_44  and  C6_108 
REMARK       I    between atoms: O1_45  and  C1_120 
REMARK       I    between atoms: O1_45  and  C4_114 
REMARK       I    between atoms: S2_47  and  O6_94 
REMARK       I    between atoms: S1_48  and  N_53 
REMARK       I    between atoms: S1_48  and  O1S_52 
REMARK       I    between atoms: S1_48  and  O3S_83 
REMARK       I    between atoms: O3_50  and  C3_119 
REMARK       I    between atoms: N_53  and  C2_89 
REMARK       I    between atoms: S_55  and  O2_75 
REMARK       I    between atoms: O3_56  and  C3_124 
REMARK       I    between atoms: O1_59  and  C1_110 
REMARK       I    between atoms: S2_60  and  O6_132 
REMARK       I    between atoms: O3_61  and  C3_115 
REMARK       I    between atoms: C6_62  and  C5_106 
REMARK       I    between atoms: C6_62  and  O6_94 
REMARK       I    between atoms: C4_63  and  O1_96 
REMARK       I    between atoms: O3_67  and  C3_93 
REMARK       I    between atoms: O1_69  and  C1_113 
REMARK       I    between atoms: O1_69  and  C4_103 
REMARK       I    between atoms: C2_70  and  C1_76 
REMARK       I    between atoms: C5_74  and  C6_90 
REMARK       I    between atoms: C1_76  and  O1_96 
REMARK       I    between atoms: C4_78  and  O1_112 
REMARK       I    between atoms: C6_80  and  C5_134 
REMARK       I    between atoms: C6_80  and  O6_132 
REMARK       I    between atoms: C6_90  and  O6_117 
REMARK       I    between atoms: C2_98  and  N_128 
REMARK       I    between atoms: C1_100  and  O1_112 
REMARK       I    between atoms: S1_111  and  O1S_116 
REMARK       I    between atoms: C4_127  and  O1_130 
ROOT
ATOM      1  C5  IDS d 249      51.787  28.402   8.744  0.00  0.00     0.152 C 
ATOM      2  O2  IDS d 249      47.767  29.359   8.902  0.00  0.00    -0.244 OA
ATOM      3  O1S IDS d 249      46.815  28.484   6.840  0.00  0.00    -0.572 OA
ATOM      4  O5  IDS d 249      50.858  27.489   9.373  0.00  0.00    -0.340 OA
ATOM      5  O1  IDS d 249      49.874  28.691  11.073  0.00  0.00    -0.348 OA
ATOM      6  O62 IDS d 249      53.299  26.530   8.526  0.00  0.00    -0.646 OA
ATOM      7  O3  IDS d 249      49.761  30.136   6.669  0.00  0.00    -0.390 OA
ATOM      8  S   IDS d 249      46.718  28.297   8.278  0.00  0.00     0.252 S 
ATOM      9  C3  IDS d 249      49.659  29.055   7.496  0.00  0.00     0.094 C 
ATOM     10  C6  IDS d 249      53.177  27.735   8.656  0.00  0.00     0.206 C 
ATOM     11  O3S IDS d 249      45.420  28.661   8.804  0.00  0.00    -0.572 OA
ATOM     12  C2  IDS d 249      49.207  29.266   8.922  0.00  0.00     0.134 C 
ATOM     13  C1  IDS d 249      49.664  28.103   9.844  0.00  0.00     0.161 C 
ATOM     14  C4  IDS d 249      51.181  28.792   7.350  0.00  0.00     0.103 C 
ATOM     15  O2S IDS d 249      47.138  26.976   8.676  0.00  0.00    -0.572 OA
ATOM     16  O61 IDS d 249      54.200  28.415   8.722  0.00  0.00    -0.646 OA
ATOM     17  H   IDS d 249      51.927  29.300   9.308  0.00  0.00     0.104 H 
ATOM     18  H   IDS d 249      48.888  30.544   6.561  0.00  0.00     0.210 HD
ATOM     19  H   IDS d 249      48.924  28.315   7.258  0.00  0.00     0.091 H 
ATOM     20  H   IDS d 249      49.646  30.158   9.316  0.00  0.00     0.097 H 
ATOM     21  H   IDS d 249      48.933  27.323   9.880  0.00  0.00     0.133 H 
ATOM     22  H   IDS d 249      51.586  29.642   6.843  0.00  0.00     0.092 H 
ATOM     23  O3  SGN d 246      52.698  16.769   1.620  0.00  0.00    -0.215 OA
ATOM     24  S2  SGN d 246      47.253  17.242  -2.018  0.00  0.00     0.251 S 
ATOM     25  O6S SGN d 246      46.725  17.125  -0.687  0.00  0.00    -0.572 OA
ATOM     26  O2S SGN d 246      51.310  14.876   4.764  0.00  0.00    -0.294 OA
ATOM     27  C3  SGN d 246      51.607  17.655   1.496  0.00  0.00     0.121 C 
ATOM     28  C2  SGN d 246      50.431  17.171   2.356  0.00  0.00     0.084 C 
ATOM     29  O4S SGN d 246      46.682  18.336  -2.759  0.00  0.00    -0.572 OA
ATOM     30  O5S SGN d 246      47.225  15.994  -2.739  0.00  0.00    -0.572 OA
ATOM     31  N   SGN d 246      50.837  17.107   3.761  0.00  0.00    -0.208 NA
ATOM     32  C4  SGN d 246      51.153  17.677   0.062  0.00  0.00     0.095 C 
ATOM     33  O1  SGN d 246      49.570  19.474   2.592  0.00  0.00    -0.348 OA
ATOM     34  C5  SGN d 246      49.923  18.670  -0.071  0.00  0.00     0.091 C 
ATOM     35  C6  SGN d 246      49.331  18.776  -1.498  0.00  0.00     0.067 C 
ATOM     36  S1  SGN d 246      51.993  16.040   4.238  0.00  0.00     0.188 S 
ATOM     37  C1  SGN d 246      49.200  18.168   2.187  0.00  0.00     0.151 C 
ATOM     38  O1S SGN d 246      52.821  16.708   5.224  0.00  0.00    -0.294 OA
ATOM     39  O6  SGN d 246      48.754  17.549  -1.855  0.00  0.00    -0.254 OA
ATOM     40  O5  SGN d 246      48.824  18.236   0.813  0.00  0.00    -0.349 OA
ATOM     41  O3S SGN d 246      52.725  15.744   3.026  0.00  0.00    -0.119 OA
ATOM     42  H   SGN d 246      50.834  15.118   5.573  0.00  0.00     0.231 HD
ATOM     43  H   SGN d 246      51.916  18.628   1.817  0.00  0.00     0.095 H 
ATOM     44  H   SGN d 246      50.135  16.193   2.037  0.00  0.00     0.077 H 
ATOM     45  H   SGN d 246      49.998  16.891   4.300  0.00  0.00     0.140 HD
ATOM     46  H   SGN d 246      50.827  16.715  -0.274  0.00  0.00     0.091 H 
ATOM     47  H   SGN d 246      50.318  19.627   0.197  0.00  0.00     0.090 H 
ATOM     48  H   SGN d 246      50.109  19.020  -2.191  0.00  0.00     0.080 H 
ATOM     49  H   SGN d 246      48.583  19.542  -1.519  0.00  0.00     0.080 H 
ATOM     50  H   SGN d 246      48.392  17.806   2.787  0.00  0.00     0.131 H 
ATOM     51  H   SGN d 246      52.296  16.889   6.019  0.00  0.00     0.231 HD
ATOM     52  O3  SGN d 250      52.158  27.983  12.561  0.00  0.00    -0.391 OA
ATOM     53  O5S SGN d 250      44.078  28.488  13.482  0.00  0.00    -0.572 OA
ATOM     54  C4  SGN d 250      49.760  27.908  12.247  0.00  0.00     0.095 C 
ATOM     55  S1  SGN d 250      53.331  27.084  15.525  0.00  0.00     0.156 S 
ATOM     56  O3S SGN d 250      53.398  26.625  16.908  0.00  0.00    -0.296 OA
ATOM     57  C1  SGN d 250      49.383  27.917  15.109  0.00  0.00     0.150 C 
ATOM     58  O2S SGN d 250      54.379  28.069  15.211  0.00  0.00    -0.296 OA
ATOM     59  C5  SGN d 250      48.393  28.220  12.948  0.00  0.00     0.091 C 
ATOM     60  O6  SGN d 250      46.139  28.730  12.328  0.00  0.00    -0.254 OA
ATOM     61  O1S SGN d 250      53.286  25.964  14.597  0.00  0.00    -0.296 OA
ATOM     62  O1  SGN d 250      49.330  29.329  15.028  0.00  0.00    -0.348 OA
ATOM     63  S2  SGN d 250      44.614  28.440  12.148  0.00  0.00     0.251 S 
ATOM     64  C6  SGN d 250      47.180  27.830  12.094  0.00  0.00     0.067 C 
ATOM     65  C3  SGN d 250      50.921  28.295  13.188  0.00  0.00     0.083 C 
ATOM     66  C2  SGN d 250      50.784  27.496  14.516  0.00  0.00     0.081 C 
ATOM     67  O6S SGN d 250      44.100  29.514  11.310  0.00  0.00    -0.572 OA
ATOM     68  O5  SGN d 250      48.330  27.486  14.230  0.00  0.00    -0.349 OA
ATOM     69  O4S SGN d 250      44.493  27.123  11.542  0.00  0.00    -0.572 OA
ATOM     70  N   SGN d 250      51.889  27.912  15.440  0.00  0.00    -0.210 NA
ATOM     71  H   SGN d 250      52.236  28.483  11.733  0.00  0.00     0.210 HD
ATOM     72  H   SGN d 250      49.800  26.865  12.011  0.00  0.00     0.091 H 
ATOM     73  H   SGN d 250      52.692  25.980  17.068  0.00  0.00     0.231 HD
ATOM     74  H   SGN d 250      49.271  27.510  16.093  0.00  0.00     0.131 H 
ATOM     75  H   SGN d 250      54.296  28.345  14.285  0.00  0.00     0.231 HD
ATOM     76  H   SGN d 250      48.352  29.278  13.100  0.00  0.00     0.090 H 
ATOM     77  H   SGN d 250      53.242  26.300  13.688  0.00  0.00     0.231 HD
ATOM     78  H   SGN d 250      46.864  26.842  12.355  0.00  0.00     0.080 H 
ATOM     79  H   SGN d 250      47.449  27.857  11.059  0.00  0.00     0.080 H 
ATOM     80  H   SGN d 250      50.888  29.343  13.399  0.00  0.00     0.089 H 
ATOM     81  H   SGN d 250      50.847  26.438  14.378  0.00  0.00     0.076 H 
ATOM     82  H   SGN d 250      52.126  28.872  15.188  0.00  0.00     0.140 HD
ATOM     83  C1  SGN d 252      46.525  37.013  15.388  0.00  0.00     0.147 C 
ATOM     84  C2  SGN d 252      46.411  35.751  14.502  0.00  0.00     0.081 C 
ATOM     85  S1  SGN d 252      44.056  35.711  13.150  0.00  0.00     0.156 S 
ATOM     86  O3  SGN d 252      47.192  33.538  14.313  0.00  0.00    -0.391 OA
ATOM     87  O2S SGN d 252      44.485  34.848  12.069  0.00  0.00    -0.296 OA
ATOM     88  O1  SGN d 252      46.041  36.704  16.710  0.00  0.00    -0.369 OA
ATOM     89  S2  SGN d 252      51.795  37.792  13.930  0.00  0.00     0.251 S 
ATOM     90  C3  SGN d 252      47.300  34.669  15.109  0.00  0.00     0.083 C 
ATOM     91  C6  SGN d 252      50.212  37.164  16.013  0.00  0.00     0.067 C 
ATOM     92  O6S SGN d 252      51.214  39.123  14.076  0.00  0.00    -0.572 OA
ATOM     93  O1S SGN d 252      44.282  37.118  12.876  0.00  0.00    -0.296 OA
ATOM     94  O3S SGN d 252      42.676  35.447  13.551  0.00  0.00    -0.296 OA
ATOM     95  N   SGN d 252      44.988  35.302  14.464  0.00  0.00    -0.210 NA
ATOM     96  O5  SGN d 252      47.910  37.461  15.440  0.00  0.00    -0.350 OA
ATOM     97  O6  SGN d 252      50.937  36.828  14.850  0.00  0.00    -0.254 OA
ATOM     98  O5S SGN d 252      51.614  37.248  12.588  0.00  0.00    -0.572 OA
ATOM     99  C5  SGN d 252      48.838  36.484  15.961  0.00  0.00     0.091 C 
ATOM    100  C4  SGN d 252      48.788  35.180  15.105  0.00  0.00     0.095 C 
ATOM    101  O4S SGN d 252      53.175  37.718  14.389  0.00  0.00    -0.572 OA
ATOM    102  H   SGN d 252      45.934  37.802  14.972  0.00  0.00     0.131 H 
ATOM    103  H   SGN d 252      46.726  35.955  13.500  0.00  0.00     0.076 H 
ATOM    104  H   SGN d 252      46.273  33.225  14.318  0.00  0.00     0.210 HD
ATOM    105  H   SGN d 252      45.403  35.055  11.835  0.00  0.00     0.231 HD
ATOM    106  H   SGN d 252      46.575  35.988  17.091  0.00  0.00     0.212 HD
ATOM    107  H   SGN d 252      47.007  34.444  16.113  0.00  0.00     0.089 H 
ATOM    108  H   SGN d 252      50.745  36.828  16.878  0.00  0.00     0.080 H 
ATOM    109  H   SGN d 252      50.088  38.225  16.067  0.00  0.00     0.080 H 
ATOM    110  H   SGN d 252      45.207  37.252  12.614  0.00  0.00     0.231 HD
ATOM    111  H   SGN d 252      42.429  36.044  14.274  0.00  0.00     0.231 HD
ATOM    112  H   SGN d 252      44.530  35.688  15.289  0.00  0.00     0.140 HD
ATOM    113  H   SGN d 252      48.588  36.164  16.951  0.00  0.00     0.090 H 
ATOM    114  H   SGN d 252      49.105  35.346  14.097  0.00  0.00     0.091 H 
ATOM    115  C3  IDS d 245      53.082  16.387  -3.828  0.00  0.00     0.044 C 
ATOM    116  O2S IDS d 245      51.680  20.735  -3.473  0.00  0.00    -0.572 OA
ATOM    117  O2  IDS d 245      51.768  18.294  -3.323  0.00  0.00    -0.247 OA
ATOM    118  O3S IDS d 245      52.600  19.419  -5.288  0.00  0.00    -0.572 OA
ATOM    119  O3  IDS d 245      53.223  16.795  -5.168  0.00  0.00    -0.398 OA
ATOM    120  C2  IDS d 245      52.955  17.596  -2.950  0.00  0.00     0.100 C 
ATOM    121  C1  IDS d 245      52.830  17.086  -1.537  0.00  0.00     0.048 C 
ATOM    122  O1  IDS d 245      52.270  18.093  -0.733  0.00  0.00    -0.378 OA
ATOM    123  O1S IDS d 245      50.231  19.350  -4.815  0.00  0.00    -0.572 OA
ATOM    124  S   IDS d 245      51.573  19.531  -4.278  0.00  0.00     0.252 S 
ATOM    125  H   IDS d 245      52.207  15.780  -3.729  0.00  0.00     0.078 H 
ATOM    126  H   IDS d 245      53.942  15.821  -3.534  0.00  0.00     0.078 H 
ATOM    127  H   IDS d 245      52.444  17.308  -5.433  0.00  0.00     0.209 HD
ATOM    128  H   IDS d 245      53.792  18.256  -3.041  0.00  0.00     0.092 H 
ATOM    129  H   IDS d 245      53.798  16.826  -1.162  0.00  0.00     0.078 H 
ATOM    130  H   IDS d 245      52.202  16.221  -1.520  0.00  0.00     0.078 H 
ATOM    131  C2  IDS d 247      50.618  20.883   5.722  0.00  0.00     0.134 C 
ATOM    132  O2  IDS d 247      51.696  20.447   6.578  0.00  0.00    -0.244 OA
ATOM    133  S   IDS d 247      51.615  19.764   8.052  0.00  0.00     0.252 S 
ATOM    134  C5  IDS d 247      49.052  21.595   3.597  0.00  0.00     0.152 C 
ATOM    135  O1S IDS d 247      50.329  20.190   8.568  0.00  0.00    -0.572 OA
ATOM    136  O3  IDS d 247      49.714  18.662   5.737  0.00  0.00    -0.390 OA
ATOM    137  O3S IDS d 247      52.735  20.296   8.833  0.00  0.00    -0.572 OA
ATOM    138  O62 IDS d 247      48.959  22.578   1.400  0.00  0.00    -0.646 OA
ATOM    139  O61 IDS d 247      47.174  21.756   2.098  0.00  0.00    -0.646 OA
ATOM    140  O5  IDS d 247      50.407  22.112   3.589  0.00  0.00    -0.340 OA
ATOM    141  O2S IDS d 247      51.679  18.329   7.875  0.00  0.00    -0.572 OA
ATOM    142  C1  IDS d 247      51.098  22.052   4.839  0.00  0.00     0.161 C 
ATOM    143  C4  IDS d 247      49.112  20.031   3.821  0.00  0.00     0.103 C 
ATOM    144  C6  IDS d 247      48.354  22.006   2.286  0.00  0.00     0.206 C 
ATOM    145  O1  IDS d 247      50.899  23.197   5.587  0.00  0.00    -0.348 OA
ATOM    146  C3  IDS d 247      50.192  19.693   4.881  0.00  0.00     0.094 C 
ATOM    147  H   IDS d 247      49.785  21.235   6.295  0.00  0.00     0.097 H 
ATOM    148  H   IDS d 247      48.470  22.005   4.396  0.00  0.00     0.104 H 
ATOM    149  H   IDS d 247      50.391  18.452   6.400  0.00  0.00     0.210 HD
ATOM    150  H   IDS d 247      52.128  21.929   4.576  0.00  0.00     0.133 H 
ATOM    151  H   IDS d 247      48.158  19.661   4.133  0.00  0.00     0.092 H 
ATOM    152  H   IDS d 247      51.057  19.374   4.337  0.00  0.00     0.091 H 
ATOM    153  C2  IDS d 251      51.074  32.266  16.039  0.00  0.00     0.134 C 
ATOM    154  C1  IDS d 251      50.126  33.000  15.049  0.00  0.00     0.161 C 
ATOM    155  O62 IDS d 251      46.322  30.330  16.269  0.00  0.00    -0.646 OA
ATOM    156  C4  IDS d 251      49.520  30.183  16.083  0.00  0.00     0.103 C 
ATOM    157  C5  IDS d 251      48.500  31.327  15.801  0.00  0.00     0.152 C 
ATOM    158  C6  IDS d 251      47.068  30.808  15.431  0.00  0.00     0.206 C 
ATOM    159  S   IDS d 251      53.204  32.631  14.335  0.00  0.00     0.252 S 
ATOM    160  O3  IDS d 251      51.802  30.130  16.879  0.00  0.00    -0.390 OA
ATOM    161  O61 IDS d 251      46.659  30.863  14.267  0.00  0.00    -0.646 OA
ATOM    162  O3S IDS d 251      54.469  33.268  14.618  0.00  0.00    -0.572 OA
ATOM    163  O2  IDS d 251      52.438  32.590  15.761  0.00  0.00    -0.244 OA
ATOM    164  O2S IDS d 251      52.386  33.379  13.397  0.00  0.00    -0.572 OA
ATOM    165  O5  IDS d 251      49.036  32.133  14.692  0.00  0.00    -0.340 OA
ATOM    166  C3  IDS d 251      50.956  30.740  15.923  0.00  0.00     0.094 C 
ATOM    167  O1S IDS d 251      53.348  31.236  13.942  0.00  0.00    -0.572 OA
ATOM    168  O1  IDS d 251      49.684  34.186  15.734  0.00  0.00    -0.348 OA
ATOM    169  H   IDS d 251      50.784  32.586  17.018  0.00  0.00     0.097 H 
ATOM    170  H   IDS d 251      50.610  33.266  14.132  0.00  0.00     0.133 H 
ATOM    171  H   IDS d 251      49.396  29.750  17.054  0.00  0.00     0.092 H 
ATOM    172  H   IDS d 251      48.383  31.901  16.697  0.00  0.00     0.104 H 
ATOM    173  H   IDS d 251      52.702  30.476  16.781  0.00  0.00     0.210 HD
ATOM    174  H   IDS d 251      51.252  30.501  14.923  0.00  0.00     0.091 H 
ATOM    175  O5S SGN d 248      52.686  23.040   3.007  0.00  0.00    -0.572 OA
ATOM    176  O4S SGN d 248      55.062  23.497   2.930  0.00  0.00    -0.572 OA
ATOM    177  O2S SGN d 248      48.832  29.971   3.768  0.00  0.00    -0.296 OA
ATOM    178  O1  SGN d 248      51.380  27.333   6.724  0.00  0.00    -0.348 OA
ATOM    179  S1  SGN d 248      49.399  28.757   3.194  0.00  0.00     0.156 S 
ATOM    180  O3  SGN d 248      49.244  24.930   4.157  0.00  0.00    -0.391 OA
ATOM    181  O1S SGN d 248      48.517  28.085   2.264  0.00  0.00    -0.296 OA
ATOM    182  N   SGN d 248      49.655  27.749   4.482  0.00  0.00    -0.210 NA
ATOM    183  S2  SGN d 248      53.791  23.803   3.561  0.00  0.00     0.251 S 
ATOM    184  C4  SGN d 248      51.411  24.421   5.079  0.00  0.00     0.095 C 
ATOM    185  C6  SGN d 248      53.749  24.095   6.175  0.00  0.00     0.067 C 
ATOM    186  O6S SGN d 248      53.515  25.224   3.630  0.00  0.00    -0.572 OA
ATOM    187  O3S SGN d 248      50.703  28.991   2.603  0.00  0.00    -0.296 OA
ATOM    188  O5  SGN d 248      52.967  26.296   5.523  0.00  0.00    -0.349 OA
ATOM    189  C2  SGN d 248      50.774  26.765   4.500  0.00  0.00     0.081 C 
ATOM    190  C3  SGN d 248      50.254  25.419   5.026  0.00  0.00     0.083 C 
ATOM    191  C1  SGN d 248      51.911  27.250   5.462  0.00  0.00     0.150 C 
ATOM    192  O6  SGN d 248      53.881  23.312   5.030  0.00  0.00    -0.254 OA
ATOM    193  C5  SGN d 248      52.512  24.997   6.035  0.00  0.00     0.091 C 
ATOM    194  H   SGN d 248      47.962  29.771   4.151  0.00  0.00     0.231 HD
ATOM    195  H   SGN d 248      48.915  24.081   4.490  0.00  0.00     0.210 HD
ATOM    196  H   SGN d 248      47.654  27.941   2.684  0.00  0.00     0.231 HD
ATOM    197  H   SGN d 248      48.797  27.209   4.598  0.00  0.00     0.140 HD
ATOM    198  H   SGN d 248      51.841  24.257   4.113  0.00  0.00     0.091 H 
ATOM    199  H   SGN d 248      53.634  23.462   7.029  0.00  0.00     0.080 H 
ATOM    200  H   SGN d 248      54.622  24.701   6.297  0.00  0.00     0.080 H 
ATOM    201  H   SGN d 248      51.273  29.442   3.246  0.00  0.00     0.231 HD
ATOM    202  H   SGN d 248      51.158  26.666   3.506  0.00  0.00     0.076 H 
ATOM    203  H   SGN d 248      49.844  25.548   6.006  0.00  0.00     0.089 H 
ATOM    204  H   SGN d 248      52.290  28.185   5.107  0.00  0.00     0.131 H 
ATOM    205  H   SGN d 248      52.055  25.074   7.000  0.00  0.00     0.090 H 
ENDROOT
TORSDOF 64
ENDMDL
MODEL 10
REMARK VINA RESULT:      -5.1      3.016     17.707
REMARK  0 active torsions:
REMARK  status: ('A' for Active; 'I' for Inactive)
REMARK       I    between atoms: C5_1  and  C6_97 
REMARK       I    between atoms: O2_2  and  C2_107 
REMARK       I    between atoms: O2_2  and  S_88 
REMARK       I    between atoms: O3_4  and  C3_95 
REMARK       I    between atoms: C1_5  and  O1_40 
REMARK       I    between atoms: C3_6  and  C2_70 
REMARK       I    between atoms: C3_6  and  O3_51 
REMARK       I    between atoms: C2_7  and  O2_9 
REMARK       I    between atoms: C2_8  and  O2_75 
REMARK       I    between atoms: O2_9  and  S_23 
REMARK       I    between atoms: S2_14  and  O6_117 
REMARK       I    between atoms: C1_15  and  O1_130 
REMARK       I    between atoms: C4_16  and  O1_59 
REMARK       I    between atoms: S1_17  and  N_128 
REMARK       I    between atoms: S1_17  and  O1S_46 
REMARK       I    between atoms: S1_17  and  O2S_29 
REMARK       I    between atoms: S1_17  and  O3S_24 
REMARK       I    between atoms: C2_18  and  N_86 
REMARK       I    between atoms: S1_19  and  N_86 
REMARK       I    between atoms: S1_19  and  O1S_71 
REMARK       I    between atoms: S1_19  and  O2S_34 
REMARK       I    between atoms: S1_19  and  O3S_81 
REMARK       I    between atoms: O2S_22  and  S1_111 
REMARK       I    between atoms: C1_25  and  O1_58 
REMARK       I    between atoms: C4_27  and  O1_58 
REMARK       I    between atoms: O2S_28  and  S1_48 
REMARK       I    between atoms: O3_32  and  C3_49 
REMARK       I    between atoms: O2_33  and  C2_70 
REMARK       I    between atoms: O2_33  and  S_133 
REMARK       I    between atoms: C5_37  and  C6_84 
REMARK       I    between atoms: C5_41  and  C6_43 
REMARK       I    between atoms: O6_42  and  C6_84 
REMARK       I    between atoms: O6_42  and  S2_77 
REMARK       I    between atoms: C5_44  and  C6_108 
REMARK       I    between atoms: O1_45  and  C1_120 
REMARK       I    between atoms: O1_45  and  C4_114 
REMARK       I    between atoms: S2_47  and  O6_94 
REMARK       I    between atoms: S1_48  and  N_53 
REMARK       I    between atoms: S1_48  and  O1S_52 
REMARK       I    between atoms: S1_48  and  O3S_83 
REMARK       I    between atoms: O3_50  and  C3_119 
REMARK       I    between atoms: N_53  and  C2_89 
REMARK       I    between atoms: S_55  and  O2_75 
REMARK       I    between atoms: O3_56  and  C3_124 
REMARK       I    between atoms: O1_59  and  C1_110 
REMARK       I    between atoms: S2_60  and  O6_132 
REMARK       I    between atoms: O3_61  and  C3_115 
REMARK       I    between atoms: C6_62  and  C5_106 
REMARK       I    between atoms: C6_62  and  O6_94 
REMARK       I    between atoms: C4_63  and  O1_96 
REMARK       I    between atoms: O3_67  and  C3_93 
REMARK       I    between atoms: O1_69  and  C1_113 
REMARK       I    between atoms: O1_69  and  C4_103 
REMARK       I    between atoms: C2_70  and  C1_76 
REMARK       I    between atoms: C5_74  and  C6_90 
REMARK       I    between atoms: C1_76  and  O1_96 
REMARK       I    between atoms: C4_78  and  O1_112 
REMARK       I    between atoms: C6_80  and  C5_134 
REMARK       I    between atoms: C6_80  and  O6_132 
REMARK       I    between atoms: C6_90  and  O6_117 
REMARK       I    between atoms: C2_98  and  N_128 
REMARK       I    between atoms: C1_100  and  O1_112 
REMARK       I    between atoms: S1_111  and  O1S_116 
REMARK       I    between atoms: C4_127  and  O1_130 
ROOT
ATOM      1  C5  IDS d 249      47.938  26.420  10.594  0.00  0.00     0.152 C 
ATOM      2  O2  IDS d 249      45.051  26.167   7.645  0.00  0.00    -0.244 OA
ATOM      3  O1S IDS d 249      43.190  27.517   8.447  0.00  0.00    -0.572 OA
ATOM      4  O5  IDS d 249      47.946  27.367   9.501  0.00  0.00    -0.340 OA
ATOM      5  O1  IDS d 249      48.148  26.096   7.592  0.00  0.00    -0.348 OA
ATOM      6  O62 IDS d 249      49.275  28.009  11.830  0.00  0.00    -0.646 OA
ATOM      7  O3  IDS d 249      44.709  25.425  10.628  0.00  0.00    -0.390 OA
ATOM      8  S   IDS d 249      44.154  27.483   7.359  0.00  0.00     0.252 S 
ATOM      9  C3  IDS d 249      45.462  26.359   9.978  0.00  0.00     0.094 C 
ATOM     10  C6  IDS d 249      48.993  26.838  11.641  0.00  0.00     0.206 C 
ATOM     11  O3S IDS d 249      43.534  27.271   6.068  0.00  0.00    -0.572 OA
ATOM     12  C2  IDS d 249      46.078  26.003   8.645  0.00  0.00     0.134 C 
ATOM     13  C1  IDS d 249      47.301  26.903   8.322  0.00  0.00     0.161 C 
ATOM     14  C4  IDS d 249      46.473  26.372  11.155  0.00  0.00     0.103 C 
ATOM     15  O2S IDS d 249      45.030  28.628   7.383  0.00  0.00    -0.572 OA
ATOM     16  O61 IDS d 249      49.581  25.988  12.309  0.00  0.00    -0.646 OA
ATOM     17  H   IDS d 249      48.207  25.432  10.285  0.00  0.00     0.104 H 
ATOM     18  H   IDS d 249      43.937  25.198  10.087  0.00  0.00     0.210 HD
ATOM     19  H   IDS d 249      44.969  27.245   9.635  0.00  0.00     0.091 H 
ATOM     20  H   IDS d 249      46.438  24.995   8.667  0.00  0.00     0.097 H 
ATOM     21  H   IDS d 249      47.007  27.783   7.789  0.00  0.00     0.133 H 
ATOM     22  H   IDS d 249      46.202  25.557  11.793  0.00  0.00     0.092 H 
ATOM     23  O3  SGN d 246      46.452  38.710  16.394  0.00  0.00    -0.215 OA
ATOM     24  S2  SGN d 246      40.098  39.792  15.142  0.00  0.00     0.251 S 
ATOM     25  O6S SGN d 246      40.675  39.782  13.826  0.00  0.00    -0.572 OA
ATOM     26  O2S SGN d 246      48.101  40.284  13.201  0.00  0.00    -0.294 OA
ATOM     27  C3  SGN d 246      45.406  38.061  15.707  0.00  0.00     0.121 C 
ATOM     28  C2  SGN d 246      45.300  38.597  14.272  0.00  0.00     0.084 C 
ATOM     29  O4S SGN d 246      38.938  38.948  15.256  0.00  0.00    -0.572 OA
ATOM     30  O5S SGN d 246      39.882  41.125  15.644  0.00  0.00    -0.572 OA
ATOM     31  N   SGN d 246      46.558  38.362  13.561  0.00  0.00    -0.208 NA
ATOM     32  C4  SGN d 246      44.105  38.351  16.406  0.00  0.00     0.095 C 
ATOM     33  O1  SGN d 246      44.321  36.473  13.479  0.00  0.00    -0.348 OA
ATOM     34  C5  SGN d 246      42.930  37.623  15.626  0.00  0.00     0.091 C 
ATOM     35  C6  SGN d 246      41.520  37.854  16.221  0.00  0.00     0.067 C 
ATOM     36  S1  SGN d 246      47.934  39.118  14.044  0.00  0.00     0.188 S 
ATOM     37  C1  SGN d 246      44.100  37.872  13.517  0.00  0.00     0.151 C 
ATOM     38  O1S SGN d 246      49.021  38.166  13.922  0.00  0.00    -0.294 OA
ATOM     39  O6  SGN d 246      41.170  39.205  16.080  0.00  0.00    -0.254 OA
ATOM     40  O5  SGN d 246      42.883  38.093  14.228  0.00  0.00    -0.349 OA
ATOM     41  O3S SGN d 246      47.678  39.474  15.423  0.00  0.00    -0.119 OA
ATOM     42  H   SGN d 246      48.270  40.001  12.288  0.00  0.00     0.231 HD
ATOM     43  H   SGN d 246      45.606  37.010  15.688  0.00  0.00     0.095 H 
ATOM     44  H   SGN d 246      45.110  39.650  14.299  0.00  0.00     0.077 H 
ATOM     45  H   SGN d 246      46.401  38.631  12.589  0.00  0.00     0.140 HD
ATOM     46  H   SGN d 246      43.879  39.396  16.423  0.00  0.00     0.091 H 
ATOM     47  H   SGN d 246      43.158  36.581  15.706  0.00  0.00     0.090 H 
ATOM     48  H   SGN d 246      41.523  37.593  17.260  0.00  0.00     0.080 H 
ATOM     49  H   SGN d 246      40.809  37.245  15.703  0.00  0.00     0.080 H 
ATOM     50  H   SGN d 246      44.041  38.267  12.525  0.00  0.00     0.131 H 
ATOM     51  H   SGN d 246      49.161  37.953  12.986  0.00  0.00     0.231 HD
ATOM     52  O3  SGN d 250      50.907  26.145   8.148  0.00  0.00    -0.391 OA
ATOM     53  O5S SGN d 250      45.856  26.917   1.802  0.00  0.00    -0.572 OA
ATOM     54  C4  SGN d 250      49.059  26.687   6.684  0.00  0.00     0.095 C 
ATOM     55  S1  SGN d 250      53.960  26.334   6.877  0.00  0.00     0.156 S 
ATOM     56  O3S SGN d 250      55.062  26.544   5.945  0.00  0.00    -0.296 OA
ATOM     57  C1  SGN d 250      50.759  26.282   4.386  0.00  0.00     0.150 C 
ATOM     58  O2S SGN d 250      54.232  25.244   7.829  0.00  0.00    -0.296 OA
ATOM     59  C5  SGN d 250      48.524  26.510   5.222  0.00  0.00     0.091 C 
ATOM     60  O6  SGN d 250      46.426  26.509   4.071  0.00  0.00    -0.254 OA
ATOM     61  O1S SGN d 250      53.560  27.579   7.513  0.00  0.00    -0.296 OA
ATOM     62  O1  SGN d 250      50.331  24.933   4.394  0.00  0.00    -0.348 OA
ATOM     63  S2  SGN d 250      45.322  27.086   3.128  0.00  0.00     0.251 S 
ATOM     64  C6  SGN d 250      47.197  27.238   4.978  0.00  0.00     0.067 C 
ATOM     65  C3  SGN d 250      50.412  25.957   6.830  0.00  0.00     0.083 C 
ATOM     66  C2  SGN d 250      51.418  26.541   5.797  0.00  0.00     0.081 C 
ATOM     67  O6S SGN d 250      44.139  26.268   3.352  0.00  0.00    -0.572 OA
ATOM     68  O5  SGN d 250      49.534  27.027   4.273  0.00  0.00    -0.349 OA
ATOM     69  O4S SGN d 250      45.137  28.484   3.484  0.00  0.00    -0.572 OA
ATOM     70  N   SGN d 250      52.712  25.794   5.915  0.00  0.00    -0.210 NA
ATOM     71  H   SGN d 250      50.275  25.779   8.787  0.00  0.00     0.210 HD
ATOM     72  H   SGN d 250      49.173  27.732   6.889  0.00  0.00     0.091 H 
ATOM     73  H   SGN d 250      54.840  27.268   5.340  0.00  0.00     0.231 HD
ATOM     74  H   SGN d 250      51.453  26.537   3.612  0.00  0.00     0.131 H 
ATOM     75  H   SGN d 250      53.475  25.141   8.426  0.00  0.00     0.231 HD
ATOM     76  H   SGN d 250      48.349  25.464   5.075  0.00  0.00     0.090 H 
ATOM     77  H   SGN d 250      52.827  27.408   8.125  0.00  0.00     0.231 HD
ATOM     78  H   SGN d 250      47.393  28.211   4.578  0.00  0.00     0.080 H 
ATOM     79  H   SGN d 250      46.667  27.332   5.902  0.00  0.00     0.080 H 
ATOM     80  H   SGN d 250      50.284  24.910   6.648  0.00  0.00     0.089 H 
ATOM     81  H   SGN d 250      51.618  27.581   5.948  0.00  0.00     0.076 H 
ATOM     82  H   SGN d 250      52.474  24.862   6.252  0.00  0.00     0.140 HD
ATOM     83  C1  SGN d 252      46.818  17.902   2.100  0.00  0.00     0.147 C 
ATOM     84  C2  SGN d 252      46.433  19.291   2.659  0.00  0.00     0.081 C 
ATOM     85  S1  SGN d 252      43.895  19.960   1.962  0.00  0.00     0.156 S 
ATOM     86  O3  SGN d 252      47.367  21.334   3.362  0.00  0.00    -0.391 OA
ATOM     87  O2S SGN d 252      43.655  20.898   3.039  0.00  0.00    -0.296 OA
ATOM     88  O1  SGN d 252      47.464  18.073   0.822  0.00  0.00    -0.369 OA
ATOM     89  S2  SGN d 252      49.261  16.459   6.838  0.00  0.00     0.251 S 
ATOM     90  C3  SGN d 252      47.718  20.088   2.863  0.00  0.00     0.083 C 
ATOM     91  C6  SGN d 252      49.748  17.009   4.249  0.00  0.00     0.067 C 
ATOM     92  O6S SGN d 252      48.645  15.245   6.314  0.00  0.00    -0.572 OA
ATOM     93  O1S SGN d 252      43.528  18.598   2.304  0.00  0.00    -0.296 OA
ATOM     94  O3S SGN d 252      43.281  20.392   0.708  0.00  0.00    -0.296 OA
ATOM     95  N   SGN d 252      45.534  19.982   1.689  0.00  0.00    -0.210 NA
ATOM     96  O5  SGN d 252      47.700  17.216   3.033  0.00  0.00    -0.350 OA
ATOM     97  O6  SGN d 252      49.531  17.397   5.589  0.00  0.00    -0.254 OA
ATOM     98  O5S SGN d 252      48.347  17.236   7.668  0.00  0.00    -0.572 OA
ATOM     99  C5  SGN d 252      48.929  17.918   3.325  0.00  0.00     0.091 C 
ATOM    100  C4  SGN d 252      48.618  19.333   3.909  0.00  0.00     0.095 C 
ATOM    101  O4S SGN d 252      50.545  16.216   7.484  0.00  0.00    -0.572 OA
ATOM    102  H   SGN d 252      45.938  17.306   1.973  0.00  0.00     0.131 H 
ATOM    103  H   SGN d 252      45.915  19.199   3.591  0.00  0.00     0.076 H 
ATOM    104  H   SGN d 252      46.813  21.797   2.714  0.00  0.00     0.210 HD
ATOM    105  H   SGN d 252      44.077  20.574   3.849  0.00  0.00     0.231 HD
ATOM    106  H   SGN d 252      48.263  18.613   0.934  0.00  0.00     0.212 HD
ATOM    107  H   SGN d 252      48.257  20.195   1.945  0.00  0.00     0.089 H 
ATOM    108  H   SGN d 252      50.788  17.102   4.013  0.00  0.00     0.080 H 
ATOM    109  H   SGN d 252      49.447  15.992   4.115  0.00  0.00     0.080 H 
ATOM    110  H   SGN d 252      43.953  18.348   3.139  0.00  0.00     0.231 HD
ATOM    111  H   SGN d 252      43.465  19.739   0.016  0.00  0.00     0.231 HD
ATOM    112  H   SGN d 252      45.691  19.553   0.776  0.00  0.00     0.140 HD
ATOM    113  H   SGN d 252      49.511  18.113   2.449  0.00  0.00     0.090 H 
ATOM    114  H   SGN d 252      48.106  19.279   4.847  0.00  0.00     0.091 H 
ATOM    115  C3  IDS d 245      43.075  39.896  20.537  0.00  0.00     0.044 C 
ATOM    116  O2S IDS d 245      41.318  35.860  19.261  0.00  0.00    -0.572 OA
ATOM    117  O2  IDS d 245      42.063  38.191  19.237  0.00  0.00    -0.247 OA
ATOM    118  O3S IDS d 245      41.022  37.271  21.209  0.00  0.00    -0.572 OA
ATOM    119  O3  IDS d 245      42.157  39.691  21.584  0.00  0.00    -0.398 OA
ATOM    120  C2  IDS d 245      43.302  38.602  19.814  0.00  0.00     0.100 C 
ATOM    121  C1  IDS d 245      44.305  38.890  18.726  0.00  0.00     0.048 C 
ATOM    122  O1  IDS d 245      44.231  37.880  17.753  0.00  0.00    -0.378 OA
ATOM    123  O1S IDS d 245      39.731  37.675  19.206  0.00  0.00    -0.572 OA
ATOM    124  S   IDS d 245      40.980  37.179  19.768  0.00  0.00     0.252 S 
ATOM    125  H   IDS d 245      42.685  40.622  19.856  0.00  0.00     0.078 H 
ATOM    126  H   IDS d 245      44.003  40.247  20.938  0.00  0.00     0.078 H 
ATOM    127  H   IDS d 245      41.317  39.372  21.220  0.00  0.00     0.209 HD
ATOM    128  H   IDS d 245      43.658  37.829  20.462  0.00  0.00     0.092 H 
ATOM    129  H   IDS d 245      45.290  38.913  19.144  0.00  0.00     0.078 H 
ATOM    130  H   IDS d 245      44.090  39.838  18.280  0.00  0.00     0.078 H 
ATOM    131  C2  IDS d 247      46.852  34.415  11.982  0.00  0.00     0.134 C 
ATOM    132  O2  IDS d 247      48.284  34.512  12.136  0.00  0.00    -0.244 OA
ATOM    133  S   IDS d 247      49.401  34.951  11.038  0.00  0.00     0.252 S 
ATOM    134  C5  IDS d 247      44.148  34.341  12.383  0.00  0.00     0.152 C 
ATOM    135  O1S IDS d 247      48.768  34.678   9.763  0.00  0.00    -0.572 OA
ATOM    136  O3  IDS d 247      46.768  36.728  11.353  0.00  0.00    -0.390 OA
ATOM    137  O3S IDS d 247      50.580  34.112  11.267  0.00  0.00    -0.572 OA
ATOM    138  O62 IDS d 247      42.345  33.758  13.869  0.00  0.00    -0.646 OA
ATOM    139  O61 IDS d 247      41.790  34.755  12.125  0.00  0.00    -0.646 OA
ATOM    140  O5  IDS d 247      44.953  33.604  13.338  0.00  0.00    -0.340 OA
ATOM    141  O2S IDS d 247      49.665  36.362  11.221  0.00  0.00    -0.572 OA
ATOM    142  C1  IDS d 247      46.299  33.339  12.937  0.00  0.00     0.161 C 
ATOM    143  C4  IDS d 247      44.715  35.814  12.279  0.00  0.00     0.103 C 
ATOM    144  C6  IDS d 247      42.672  34.276  12.819  0.00  0.00     0.206 C 
ATOM    145  O1  IDS d 247      46.402  32.140  12.256  0.00  0.00    -0.348 OA
ATOM    146  C3  IDS d 247      46.265  35.781  12.289  0.00  0.00     0.094 C 
ATOM    147  H   IDS d 247      46.587  34.126  10.985  0.00  0.00     0.097 H 
ATOM    148  H   IDS d 247      44.198  33.916  11.402  0.00  0.00     0.104 H 
ATOM    149  H   IDS d 247      47.739  36.706  11.361  0.00  0.00     0.210 HD
ATOM    150  H   IDS d 247      46.857  33.321  13.850  0.00  0.00     0.133 H 
ATOM    151  H   IDS d 247      44.360  36.289  11.389  0.00  0.00     0.092 H 
ATOM    152  H   IDS d 247      46.564  36.028  13.287  0.00  0.00     0.091 H 
ATOM    153  C2  IDS d 251      51.525  21.611   4.879  0.00  0.00     0.134 C 
ATOM    154  C1  IDS d 251      50.020  21.225   4.909  0.00  0.00     0.161 C 
ATOM    155  O62 IDS d 251      48.872  24.285   1.387  0.00  0.00    -0.646 OA
ATOM    156  C4  IDS d 251      50.981  23.899   3.771  0.00  0.00     0.103 C 
ATOM    157  C5  IDS d 251      49.814  23.012   3.244  0.00  0.00     0.152 C 
ATOM    158  C6  IDS d 251      48.697  23.826   2.503  0.00  0.00     0.206 C 
ATOM    159  S   IDS d 251      51.737  21.160   7.586  0.00  0.00     0.252 S 
ATOM    160  O3  IDS d 251      53.110  23.423   4.813  0.00  0.00    -0.390 OA
ATOM    161  O61 IDS d 251      47.605  24.033   3.042  0.00  0.00    -0.646 OA
ATOM    162  O3S IDS d 251      52.650  20.275   8.270  0.00  0.00    -0.572 OA
ATOM    163  O2  IDS d 251      52.197  21.104   6.034  0.00  0.00    -0.244 OA
ATOM    164  O2S IDS d 251      50.354  20.728   7.670  0.00  0.00    -0.572 OA
ATOM    165  O5  IDS d 251      49.231  22.315   4.402  0.00  0.00    -0.340 OA
ATOM    166  C3  IDS d 251      51.728  23.134   4.892  0.00  0.00     0.094 C 
ATOM    167  O1S IDS d 251      51.899  22.554   7.978  0.00  0.00    -0.572 OA
ATOM    168  O1  IDS d 251      49.903  20.039   4.102  0.00  0.00    -0.348 OA
ATOM    169  H   IDS d 251      51.920  21.193   3.977  0.00  0.00     0.097 H 
ATOM    170  H   IDS d 251      49.661  21.030   5.898  0.00  0.00     0.133 H 
ATOM    171  H   IDS d 251      51.664  24.184   2.998  0.00  0.00     0.092 H 
ATOM    172  H   IDS d 251      50.210  22.330   2.521  0.00  0.00     0.104 H 
ATOM    173  H   IDS d 251      53.581  22.945   5.513  0.00  0.00     0.210 HD
ATOM    174  H   IDS d 251      51.303  23.475   5.812  0.00  0.00     0.091 H 
ATOM    175  O5S SGN d 248      45.902  32.397  15.347  0.00  0.00    -0.572 OA
ATOM    176  O4S SGN d 248      47.377  31.551  17.071  0.00  0.00    -0.572 OA
ATOM    177  O2S SGN d 248      42.121  26.217  12.036  0.00  0.00    -0.296 OA
ATOM    178  O1  SGN d 248      46.527  27.855  11.752  0.00  0.00    -0.348 OA
ATOM    179  S1  SGN d 248      42.407  27.389  12.854  0.00  0.00     0.156 S 
ATOM    180  O3  SGN d 248      43.870  30.977  12.092  0.00  0.00    -0.391 OA
ATOM    181  O1S SGN d 248      41.322  28.347  12.898  0.00  0.00    -0.296 OA
ATOM    182  N   SGN d 248      43.705  28.116  12.127  0.00  0.00    -0.210 NA
ATOM    183  S2  SGN d 248      46.861  31.374  15.726  0.00  0.00     0.251 S 
ATOM    184  C4  SGN d 248      46.115  30.945  12.967  0.00  0.00     0.095 C 
ATOM    185  C6  SGN d 248      48.553  30.675  13.837  0.00  0.00     0.067 C 
ATOM    186  O6S SGN d 248      46.380  30.031  15.470  0.00  0.00    -0.572 OA
ATOM    187  O3S SGN d 248      42.844  27.029  14.188  0.00  0.00    -0.296 OA
ATOM    188  O5  SGN d 248      47.044  28.780  13.731  0.00  0.00    -0.349 OA
ATOM    189  C2  SGN d 248      44.723  28.873  12.910  0.00  0.00     0.081 C 
ATOM    190  C3  SGN d 248      45.045  30.186  12.181  0.00  0.00     0.083 C 
ATOM    191  C1  SGN d 248      46.049  28.047  13.023  0.00  0.00     0.150 C 
ATOM    192  O6  SGN d 248      48.046  31.598  14.750  0.00  0.00    -0.254 OA
ATOM    193  C5  SGN d 248      47.391  30.038  13.058  0.00  0.00     0.091 C 
ATOM    194  H   SGN d 248      41.832  26.501  11.153  0.00  0.00     0.231 HD
ATOM    195  H   SGN d 248      44.074  31.806  11.631  0.00  0.00     0.210 HD
ATOM    196  H   SGN d 248      41.050  28.570  11.994  0.00  0.00     0.231 HD
ATOM    197  H   SGN d 248      43.323  28.771  11.445  0.00  0.00     0.140 HD
ATOM    198  H   SGN d 248      45.788  31.185  13.957  0.00  0.00     0.091 H 
ATOM    199  H   SGN d 248      49.210  31.172  13.155  0.00  0.00     0.080 H 
ATOM    200  H   SGN d 248      49.093  29.914  14.360  0.00  0.00     0.080 H 
ATOM    201  H   SGN d 248      43.569  26.388  14.129  0.00  0.00     0.231 HD
ATOM    202  H   SGN d 248      44.329  29.063  13.887  0.00  0.00     0.076 H 
ATOM    203  H   SGN d 248      45.403  29.974  11.196  0.00  0.00     0.089 H 
ATOM    204  H   SGN d 248      45.844  27.130  13.534  0.00  0.00     0.131 H 
ATOM    205  H   SGN d 248      47.719  29.887  12.050  0.00  0.00     0.090 H 
ENDROOT
TORSDOF 64
ENDMDL
MODEL 11
REMARK VINA RESULT:      -5.0      1.784      2.092
REMARK  0 active torsions:
REMARK  status: ('A' for Active; 'I' for Inactive)
REMARK       I    between atoms: C5_1  and  C6_97 
REMARK       I    between atoms: O2_2  and  C2_107 
REMARK       I    between atoms: O2_2  and  S_88 
REMARK       I    between atoms: O3_4  and  C3_95 
REMARK       I    between atoms: C1_5  and  O1_40 
REMARK       I    between atoms: C3_6  and  C2_70 
REMARK       I    between atoms: C3_6  and  O3_51 
REMARK       I    between atoms: C2_7  and  O2_9 
REMARK       I    between atoms: C2_8  and  O2_75 
REMARK       I    between atoms: O2_9  and  S_23 
REMARK       I    between atoms: S2_14  and  O6_117 
REMARK       I    between atoms: C1_15  and  O1_130 
REMARK       I    between atoms: C4_16  and  O1_59 
REMARK       I    between atoms: S1_17  and  N_128 
REMARK       I    between atoms: S1_17  and  O1S_46 
REMARK       I    between atoms: S1_17  and  O2S_29 
REMARK       I    between atoms: S1_17  and  O3S_24 
REMARK       I    between atoms: C2_18  and  N_86 
REMARK       I    between atoms: S1_19  and  N_86 
REMARK       I    between atoms: S1_19  and  O1S_71 
REMARK       I    between atoms: S1_19  and  O2S_34 
REMARK       I    between atoms: S1_19  and  O3S_81 
REMARK       I    between atoms: O2S_22  and  S1_111 
REMARK       I    between atoms: C1_25  and  O1_58 
REMARK       I    between atoms: C4_27  and  O1_58 
REMARK       I    between atoms: O2S_28  and  S1_48 
REMARK       I    between atoms: O3_32  and  C3_49 
REMARK       I    between atoms: O2_33  and  C2_70 
REMARK       I    between atoms: O2_33  and  S_133 
REMARK       I    between atoms: C5_37  and  C6_84 
REMARK       I    between atoms: C5_41  and  C6_43 
REMARK       I    between atoms: O6_42  and  C6_84 
REMARK       I    between atoms: O6_42  and  S2_77 
REMARK       I    between atoms: C5_44  and  C6_108 
REMARK       I    between atoms: O1_45  and  C1_120 
REMARK       I    between atoms: O1_45  and  C4_114 
REMARK       I    between atoms: S2_47  and  O6_94 
REMARK       I    between atoms: S1_48  and  N_53 
REMARK       I    between atoms: S1_48  and  O1S_52 
REMARK       I    between atoms: S1_48  and  O3S_83 
REMARK       I    between atoms: O3_50  and  C3_119 
REMARK       I    between atoms: N_53  and  C2_89 
REMARK       I    between atoms: S_55  and  O2_75 
REMARK       I    between atoms: O3_56  and  C3_124 
REMARK       I    between atoms: O1_59  and  C1_110 
REMARK       I    between atoms: S2_60  and  O6_132 
REMARK       I    between atoms: O3_61  and  C3_115 
REMARK       I    between atoms: C6_62  and  C5_106 
REMARK       I    between atoms: C6_62  and  O6_94 
REMARK       I    between atoms: C4_63  and  O1_96 
REMARK       I    between atoms: O3_67  and  C3_93 
REMARK       I    between atoms: O1_69  and  C1_113 
REMARK       I    between atoms: O1_69  and  C4_103 
REMARK       I    between atoms: C2_70  and  C1_76 
REMARK       I    between atoms: C5_74  and  C6_90 
REMARK       I    between atoms: C1_76  and  O1_96 
REMARK       I    between atoms: C4_78  and  O1_112 
REMARK       I    between atoms: C6_80  and  C5_134 
REMARK       I    between atoms: C6_80  and  O6_132 
REMARK       I    between atoms: C6_90  and  O6_117 
REMARK       I    between atoms: C2_98  and  N_128 
REMARK       I    between atoms: C1_100  and  O1_112 
REMARK       I    between atoms: S1_111  and  O1S_116 
REMARK       I    between atoms: C4_127  and  O1_130 
ROOT
ATOM      1  C5  IDS d 249      43.187  29.452   9.917  0.00  0.00     0.152 C 
ATOM      2  O2  IDS d 249      45.604  27.642  12.742  0.00  0.00    -0.244 OA
ATOM      3  O1S IDS d 249      45.580  25.272  12.188  0.00  0.00    -0.572 OA
ATOM      4  O5  IDS d 249      44.608  29.332   9.673  0.00  0.00    -0.340 OA
ATOM      5  O1  IDS d 249      45.625  30.442  11.415  0.00  0.00    -0.348 OA
ATOM      6  O62 IDS d 249      42.918  29.740   7.533  0.00  0.00    -0.646 OA
ATOM      7  O3  IDS d 249      42.649  26.960  12.134  0.00  0.00    -0.390 OA
ATOM      8  S   IDS d 249      46.507  26.389  12.264  0.00  0.00     0.252 S 
ATOM      9  C3  IDS d 249      43.682  27.409  11.364  0.00  0.00     0.094 C 
ATOM     10  C6  IDS d 249      42.495  29.992   8.647  0.00  0.00     0.206 C 
ATOM     11  O3S IDS d 249      47.516  26.210  13.286  0.00  0.00    -0.572 OA
ATOM     12  C2  IDS d 249      44.659  28.398  11.955  0.00  0.00     0.134 C 
ATOM     13  C1  IDS d 249      45.394  29.206  10.851  0.00  0.00     0.161 C 
ATOM     14  C4  IDS d 249      42.673  28.040  10.368  0.00  0.00     0.103 C 
ATOM     15  O2S IDS d 249      47.063  26.712  10.973  0.00  0.00    -0.572 OA
ATOM     16  O61 IDS d 249      41.493  30.702   8.736  0.00  0.00    -0.646 OA
ATOM     17  H   IDS d 249      42.961  30.151  10.695  0.00  0.00     0.104 H 
ATOM     18  H   IDS d 249      43.001  26.483  12.902  0.00  0.00     0.210 HD
ATOM     19  H   IDS d 249      44.421  26.697  11.059  0.00  0.00     0.091 H 
ATOM     20  H   IDS d 249      44.137  29.111  12.559  0.00  0.00     0.097 H 
ATOM     21  H   IDS d 249      46.295  28.717  10.546  0.00  0.00     0.133 H 
ATOM     22  H   IDS d 249      41.712  27.976  10.833  0.00  0.00     0.092 H 
ATOM     23  O3  SGN d 246      44.319  21.979  -1.474  0.00  0.00    -0.215 OA
ATOM     24  S2  SGN d 246      45.923  16.172   1.137  0.00  0.00     0.251 S 
ATOM     25  O6S SGN d 246      47.059  16.985   1.472  0.00  0.00    -0.572 OA
ATOM     26  O2S SGN d 246      47.877  23.545  -2.005  0.00  0.00    -0.294 OA
ATOM     27  C3  SGN d 246      44.585  21.457  -0.191  0.00  0.00     0.121 C 
ATOM     28  C2  SGN d 246      46.095  21.474   0.086  0.00  0.00     0.084 C 
ATOM     29  O4S SGN d 246      45.398  15.445   2.263  0.00  0.00    -0.572 OA
ATOM     30  O5S SGN d 246      46.155  15.341  -0.017  0.00  0.00    -0.572 OA
ATOM     31  N   SGN d 246      46.597  22.847   0.015  0.00  0.00    -0.208 NA
ATOM     32  C4  SGN d 246      44.121  20.027  -0.137  0.00  0.00     0.095 C 
ATOM     33  O1  SGN d 246      45.715  21.617   2.522  0.00  0.00    -0.348 OA
ATOM     34  C5  SGN d 246      44.427  19.442   1.306  0.00  0.00     0.091 C 
ATOM     35  C6  SGN d 246      44.023  17.960   1.501  0.00  0.00     0.067 C 
ATOM     36  S1  SGN d 246      46.562  23.666  -1.409  0.00  0.00     0.188 S 
ATOM     37  C1  SGN d 246      46.381  20.860   1.527  0.00  0.00     0.151 C 
ATOM     38  O1S SGN d 246      46.195  25.038  -1.114  0.00  0.00    -0.294 OA
ATOM     39  O6  SGN d 246      44.821  17.148   0.683  0.00  0.00    -0.254 OA
ATOM     40  O5  SGN d 246      45.873  19.529   1.591  0.00  0.00    -0.349 OA
ATOM     41  O3S SGN d 246      45.546  22.988  -2.185  0.00  0.00    -0.119 OA
ATOM     42  H   SGN d 246      48.526  24.012  -1.456  0.00  0.00     0.231 HD
ATOM     43  H   SGN d 246      44.076  22.054   0.536  0.00  0.00     0.095 H 
ATOM     44  H   SGN d 246      46.599  20.883  -0.651  0.00  0.00     0.077 H 
ATOM     45  H   SGN d 246      47.572  22.819   0.314  0.00  0.00     0.140 HD
ATOM     46  H   SGN d 246      44.629  19.409  -0.847  0.00  0.00     0.091 H 
ATOM     47  H   SGN d 246      43.837  20.038   1.970  0.00  0.00     0.090 H 
ATOM     48  H   SGN d 246      42.994  17.833   1.236  0.00  0.00     0.080 H 
ATOM     49  H   SGN d 246      44.163  17.684   2.525  0.00  0.00     0.080 H 
ATOM     50  H   SGN d 246      47.438  20.874   1.693  0.00  0.00     0.131 H 
ATOM     51  H   SGN d 246      46.899  25.457  -0.594  0.00  0.00     0.231 HD
ATOM     52  O3  SGN d 250      45.177  32.757   9.876  0.00  0.00    -0.391 OA
ATOM     53  O5S SGN d 250      51.039  29.377  14.414  0.00  0.00    -0.572 OA
ATOM     54  C4  SGN d 250      46.710  31.225  10.953  0.00  0.00     0.095 C 
ATOM     55  S1  SGN d 250      46.382  35.688   8.915  0.00  0.00     0.156 S 
ATOM     56  O3S SGN d 250      47.298  36.797   8.669  0.00  0.00    -0.296 OA
ATOM     57  C1  SGN d 250      48.501  33.416  11.523  0.00  0.00     0.150 C 
ATOM     58  O2S SGN d 250      45.013  36.146   9.205  0.00  0.00    -0.296 OA
ATOM     59  C5  SGN d 250      47.884  31.147  11.987  0.00  0.00     0.091 C 
ATOM     60  O6  SGN d 250      48.873  29.536  13.455  0.00  0.00    -0.254 OA
ATOM     61  O1S SGN d 250      46.454  34.697   7.852  0.00  0.00    -0.296 OA
ATOM     62  O1  SGN d 250      47.817  33.565  12.753  0.00  0.00    -0.348 OA
ATOM     63  S2  SGN d 250      49.975  28.537  13.933  0.00  0.00     0.251 S 
ATOM     64  C6  SGN d 250      48.456  29.732  12.137  0.00  0.00     0.067 C 
ATOM     65  C3  SGN d 250      46.222  32.685  10.837  0.00  0.00     0.083 C 
ATOM     66  C2  SGN d 250      47.412  33.583  10.392  0.00  0.00     0.081 C 
ATOM     67  O6S SGN d 250      49.367  27.755  15.000  0.00  0.00    -0.572 OA
ATOM     68  O5  SGN d 250      48.968  32.056  11.555  0.00  0.00    -0.349 OA
ATOM     69  O4S SGN d 250      50.366  27.740  12.781  0.00  0.00    -0.572 OA
ATOM     70  N   SGN d 250      46.941  35.005  10.327  0.00  0.00    -0.210 NA
ATOM     71  H   SGN d 250      44.439  32.194  10.159  0.00  0.00     0.210 HD
ATOM     72  H   SGN d 250      47.056  30.869  10.005  0.00  0.00     0.091 H 
ATOM     73  H   SGN d 250      48.183  36.449   8.484  0.00  0.00     0.231 HD
ATOM     74  H   SGN d 250      49.301  34.107  11.357  0.00  0.00     0.131 H 
ATOM     75  H   SGN d 250      44.442  35.378   9.360  0.00  0.00     0.231 HD
ATOM     76  H   SGN d 250      47.487  31.436  12.938  0.00  0.00     0.090 H 
ATOM     77  H   SGN d 250      45.836  33.975   8.042  0.00  0.00     0.231 HD
ATOM     78  H   SGN d 250      49.290  29.613  11.478  0.00  0.00     0.080 H 
ATOM     79  H   SGN d 250      47.702  29.015  11.892  0.00  0.00     0.080 H 
ATOM     80  H   SGN d 250      45.854  33.025  11.782  0.00  0.00     0.089 H 
ATOM     81  H   SGN d 250      47.802  33.318   9.432  0.00  0.00     0.076 H 
ATOM     82  H   SGN d 250      46.180  35.085  11.003  0.00  0.00     0.140 HD
ATOM     83  C1  SGN d 252      46.269  33.722  20.791  0.00  0.00     0.147 C 
ATOM     84  C2  SGN d 252      46.479  32.706  19.645  0.00  0.00     0.081 C 
ATOM     85  S1  SGN d 252      47.409  30.337  20.594  0.00  0.00     0.156 S 
ATOM     86  O3  SGN d 252      46.898  32.575  17.332  0.00  0.00    -0.391 OA
ATOM     87  O2S SGN d 252      46.947  29.511  19.498  0.00  0.00    -0.296 OA
ATOM     88  O1  SGN d 252      47.462  34.518  20.938  0.00  0.00    -0.369 OA
ATOM     89  S2  SGN d 252      41.454  35.404  18.672  0.00  0.00     0.251 S 
ATOM     90  C3  SGN d 252      46.707  33.491  18.357  0.00  0.00     0.083 C 
ATOM     91  C6  SGN d 252      43.972  36.203  19.187  0.00  0.00     0.067 C 
ATOM     92  O6S SGN d 252      41.297  35.451  20.123  0.00  0.00    -0.572 OA
ATOM     93  O1S SGN d 252      46.430  30.470  21.656  0.00  0.00    -0.296 OA
ATOM     94  O3S SGN d 252      48.709  29.902  21.100  0.00  0.00    -0.296 OA
ATOM     95  N   SGN d 252      47.662  31.850  19.955  0.00  0.00    -0.210 NA
ATOM     96  O5  SGN d 252      45.121  34.569  20.501  0.00  0.00    -0.350 OA
ATOM     97  O6  SGN d 252      43.005  35.555  18.387  0.00  0.00    -0.254 OA
ATOM     98  O5S SGN d 252      41.122  34.096  18.117  0.00  0.00    -0.572 OA
ATOM     99  C5  SGN d 252      45.224  35.321  19.272  0.00  0.00     0.091 C 
ATOM    100  C4  SGN d 252      45.426  34.356  18.062  0.00  0.00     0.095 C 
ATOM    101  O4S SGN d 252      40.777  36.498  17.988  0.00  0.00    -0.572 OA
ATOM    102  H   SGN d 252      46.078  33.202  21.706  0.00  0.00     0.131 H 
ATOM    103  H   SGN d 252      45.625  32.071  19.534  0.00  0.00     0.076 H 
ATOM    104  H   SGN d 252      47.689  32.044  17.517  0.00  0.00     0.210 HD
ATOM    105  H   SGN d 252      46.084  29.833  19.193  0.00  0.00     0.231 HD
ATOM    106  H   SGN d 252      47.639  34.991  20.110  0.00  0.00     0.212 HD
ATOM    107  H   SGN d 252      47.557  34.135  18.440  0.00  0.00     0.089 H 
ATOM    108  H   SGN d 252      44.226  37.145  18.748  0.00  0.00     0.080 H 
ATOM    109  H   SGN d 252      43.577  36.366  20.167  0.00  0.00     0.080 H 
ATOM    110  H   SGN d 252      45.583  30.760  21.282  0.00  0.00     0.231 HD
ATOM    111  H   SGN d 252      48.982  30.479  21.831  0.00  0.00     0.231 HD
ATOM    112  H   SGN d 252      48.238  32.365  20.623  0.00  0.00     0.140 HD
ATOM    113  H   SGN d 252      46.082  35.960  19.250  0.00  0.00     0.090 H 
ATOM    114  H   SGN d 252      44.585  33.710  17.916  0.00  0.00     0.091 H 
ATOM    115  C3  IDS d 245      41.316  17.572  -2.710  0.00  0.00     0.044 C 
ATOM    116  O2S IDS d 245      40.393  17.884   1.768  0.00  0.00    -0.572 OA
ATOM    117  O2  IDS d 245      41.583  17.633  -0.355  0.00  0.00    -0.247 OA
ATOM    118  O3S IDS d 245      39.413  16.625  -0.056  0.00  0.00    -0.572 OA
ATOM    119  O3  IDS d 245      40.304  16.598  -2.604  0.00  0.00    -0.398 OA
ATOM    120  C2  IDS d 245      41.295  18.446  -1.491  0.00  0.00     0.100 C 
ATOM    121  C1  IDS d 245      42.383  19.471  -1.682  0.00  0.00     0.048 C 
ATOM    122  O1  IDS d 245      42.719  20.021  -0.434  0.00  0.00    -0.378 OA
ATOM    123  O1S IDS d 245      41.344  15.766   1.115  0.00  0.00    -0.572 OA
ATOM    124  S   IDS d 245      40.613  16.948   0.679  0.00  0.00     0.252 S 
ATOM    125  H   IDS d 245      42.268  17.090  -2.787  0.00  0.00     0.078 H 
ATOM    126  H   IDS d 245      41.148  18.169  -3.581  0.00  0.00     0.078 H 
ATOM    127  H   IDS d 245      40.457  16.057  -1.814  0.00  0.00     0.209 HD
ATOM    128  H   IDS d 245      40.348  18.922  -1.348  0.00  0.00     0.092 H 
ATOM    129  H   IDS d 245      42.036  20.245  -2.334  0.00  0.00     0.078 H 
ATOM    130  H   IDS d 245      43.244  19.005  -2.115  0.00  0.00     0.078 H 
ATOM    131  C2  IDS d 247      45.988  25.021   3.629  0.00  0.00     0.134 C 
ATOM    132  O2  IDS d 247      45.907  26.224   2.835  0.00  0.00    -0.244 OA
ATOM    133  S   IDS d 247      47.082  27.292   2.482  0.00  0.00     0.252 S 
ATOM    134  C5  IDS d 247      45.595  22.550   4.734  0.00  0.00     0.152 C 
ATOM    135  O1S IDS d 247      48.047  27.122   3.550  0.00  0.00    -0.572 OA
ATOM    136  O3  IDS d 247      47.690  24.175   2.166  0.00  0.00    -0.390 OA
ATOM    137  O3S IDS d 247      46.467  28.623   2.491  0.00  0.00    -0.572 OA
ATOM    138  O62 IDS d 247      44.010  20.840   5.336  0.00  0.00    -0.646 OA
ATOM    139  O61 IDS d 247      46.017  20.343   5.600  0.00  0.00    -0.646 OA
ATOM    140  O5  IDS d 247      44.401  23.343   4.509  0.00  0.00    -0.340 OA
ATOM    141  O2S IDS d 247      47.631  26.930   1.192  0.00  0.00    -0.572 OA
ATOM    142  C1  IDS d 247      44.620  24.738   4.282  0.00  0.00     0.161 C 
ATOM    143  C4  IDS d 247      46.424  22.498   3.388  0.00  0.00     0.103 C 
ATOM    144  C6  IDS d 247      45.179  21.162   5.259  0.00  0.00     0.206 C 
ATOM    145  O1  IDS d 247      44.610  25.455   5.463  0.00  0.00    -0.348 OA
ATOM    146  C3  IDS d 247      46.404  23.890   2.705  0.00  0.00     0.094 C 
ATOM    147  H   IDS d 247      46.705  25.122   4.417  0.00  0.00     0.097 H 
ATOM    148  H   IDS d 247      46.231  22.982   5.478  0.00  0.00     0.104 H 
ATOM    149  H   IDS d 247      47.676  25.046   1.739  0.00  0.00     0.210 HD
ATOM    150  H   IDS d 247      43.823  25.036   3.634  0.00  0.00     0.133 H 
ATOM    151  H   IDS d 247      47.431  22.194   3.581  0.00  0.00     0.092 H 
ATOM    152  H   IDS d 247      45.665  23.835   1.933  0.00  0.00     0.091 H 
ATOM    153  C2  IDS d 251      45.738  35.829  14.553  0.00  0.00     0.134 C 
ATOM    154  C1  IDS d 251      45.513  34.634  15.520  0.00  0.00     0.161 C 
ATOM    155  O62 IDS d 251      50.090  33.196  15.259  0.00  0.00    -0.646 OA
ATOM    156  C4  IDS d 251      47.841  34.692  13.533  0.00  0.00     0.103 C 
ATOM    157  C5  IDS d 251      47.849  34.120  14.982  0.00  0.00     0.152 C 
ATOM    158  C6  IDS d 251      48.894  32.970  15.193  0.00  0.00     0.206 C 
ATOM    159  S   IDS d 251      43.170  35.588  13.592  0.00  0.00     0.252 S 
ATOM    160  O3  IDS d 251      46.708  36.543  12.467  0.00  0.00    -0.390 OA
ATOM    161  O61 IDS d 251      48.527  31.795  15.288  0.00  0.00    -0.646 OA
ATOM    162  O3S IDS d 251      42.138  36.597  13.554  0.00  0.00    -0.572 OA
ATOM    163  O2  IDS d 251      44.486  36.369  14.121  0.00  0.00    -0.244 OA
ATOM    164  O2S IDS d 251      42.876  34.507  14.515  0.00  0.00    -0.572 OA
ATOM    165  O5  IDS d 251      46.495  33.615  15.265  0.00  0.00    -0.340 OA
ATOM    166  C3  IDS d 251      46.490  35.407  13.282  0.00  0.00     0.094 C 
ATOM    167  O1S IDS d 251      43.529  35.095  12.269  0.00  0.00    -0.572 OA
ATOM    168  O1  IDS d 251      45.617  35.179  16.849  0.00  0.00    -0.348 OA
ATOM    169  H   IDS d 251      46.310  36.549  15.099  0.00  0.00     0.097 H 
ATOM    170  H   IDS d 251      44.558  34.169  15.390  0.00  0.00     0.133 H 
ATOM    171  H   IDS d 251      48.655  35.362  13.349  0.00  0.00     0.092 H 
ATOM    172  H   IDS d 251      48.134  34.904  15.651  0.00  0.00     0.104 H 
ATOM    173  H   IDS d 251      45.864  36.993  12.308  0.00  0.00     0.210 HD
ATOM    174  H   IDS d 251      45.863  34.687  12.799  0.00  0.00     0.091 H 
ATOM    175  O5S SGN d 248      42.061  24.213   4.108  0.00  0.00    -0.572 OA
ATOM    176  O4S SGN d 248      40.150  25.474   3.319  0.00  0.00    -0.572 OA
ATOM    177  O2S SGN d 248      41.819  24.025  12.068  0.00  0.00    -0.296 OA
ATOM    178  O1  SGN d 248      42.900  27.369   8.933  0.00  0.00    -0.348 OA
ATOM    179  S1  SGN d 248      41.699  23.634  10.669  0.00  0.00     0.156 S 
ATOM    180  O3  SGN d 248      44.161  23.694   7.582  0.00  0.00    -0.391 OA
ATOM    181  O1S SGN d 248      42.137  22.280  10.404  0.00  0.00    -0.296 OA
ATOM    182  N   SGN d 248      42.696  24.668   9.846  0.00  0.00    -0.210 NA
ATOM    183  S2  SGN d 248      41.224  25.386   4.292  0.00  0.00     0.251 S 
ATOM    184  C4  SGN d 248      43.394  25.511   6.196  0.00  0.00     0.095 C 
ATOM    185  C6  SGN d 248      42.515  27.594   4.908  0.00  0.00     0.067 C 
ATOM    186  O6S SGN d 248      40.771  25.545   5.660  0.00  0.00    -0.572 OA
ATOM    187  O3S SGN d 248      40.365  23.866  10.150  0.00  0.00    -0.296 OA
ATOM    188  O5  SGN d 248      41.652  27.020   7.100  0.00  0.00    -0.349 OA
ATOM    189  C2  SGN d 248      42.401  25.100   8.450  0.00  0.00     0.081 C 
ATOM    190  C3  SGN d 248      43.691  25.033   7.618  0.00  0.00     0.083 C 
ATOM    191  C1  SGN d 248      41.894  26.581   8.433  0.00  0.00     0.150 C 
ATOM    192  O6  SGN d 248      42.185  26.573   4.018  0.00  0.00    -0.254 OA
ATOM    193  C5  SGN d 248      42.866  26.985   6.274  0.00  0.00     0.091 C 
ATOM    194  H   SGN d 248      42.724  23.854  12.376  0.00  0.00     0.231 HD
ATOM    195  H   SGN d 248      44.975  23.652   7.057  0.00  0.00     0.210 HD
ATOM    196  H   SGN d 248      43.029  22.153  10.760  0.00  0.00     0.231 HD
ATOM    197  H   SGN d 248      43.613  24.222   9.819  0.00  0.00     0.140 HD
ATOM    198  H   SGN d 248      42.657  24.902   5.716  0.00  0.00     0.091 H 
ATOM    199  H   SGN d 248      43.356  28.137   4.532  0.00  0.00     0.080 H 
ATOM    200  H   SGN d 248      41.683  28.258   5.015  0.00  0.00     0.080 H 
ATOM    201  H   SGN d 248      40.098  24.778  10.342  0.00  0.00     0.231 HD
ATOM    202  H   SGN d 248      41.649  24.454   8.045  0.00  0.00     0.076 H 
ATOM    203  H   SGN d 248      44.438  25.657   8.060  0.00  0.00     0.089 H 
ATOM    204  H   SGN d 248      40.992  26.646   9.004  0.00  0.00     0.131 H 
ATOM    205  H   SGN d 248      43.663  27.563   6.694  0.00  0.00     0.090 H 
ENDROOT
TORSDOF 64
ENDMDL
MODEL 12
REMARK VINA RESULT:      -4.5      3.734      7.729
REMARK  0 active torsions:
REMARK  status: ('A' for Active; 'I' for Inactive)
REMARK       I    between atoms: C5_1  and  C6_97 
REMARK       I    between atoms: O2_2  and  C2_107 
REMARK       I    between atoms: O2_2  and  S_88 
REMARK       I    between atoms: O3_4  and  C3_95 
REMARK       I    between atoms: C1_5  and  O1_40 
REMARK       I    between atoms: C3_6  and  C2_70 
REMARK       I    between atoms: C3_6  and  O3_51 
REMARK       I    between atoms: C2_7  and  O2_9 
REMARK       I    between atoms: C2_8  and  O2_75 
REMARK       I    between atoms: O2_9  and  S_23 
REMARK       I    between atoms: S2_14  and  O6_117 
REMARK       I    between atoms: C1_15  and  O1_130 
REMARK       I    between atoms: C4_16  and  O1_59 
REMARK       I    between atoms: S1_17  and  N_128 
REMARK       I    between atoms: S1_17  and  O1S_46 
REMARK       I    between atoms: S1_17  and  O2S_29 
REMARK       I    between atoms: S1_17  and  O3S_24 
REMARK       I    between atoms: C2_18  and  N_86 
REMARK       I    between atoms: S1_19  and  N_86 
REMARK       I    between atoms: S1_19  and  O1S_71 
REMARK       I    between atoms: S1_19  and  O2S_34 
REMARK       I    between atoms: S1_19  and  O3S_81 
REMARK       I    between atoms: O2S_22  and  S1_111 
REMARK       I    between atoms: C1_25  and  O1_58 
REMARK       I    between atoms: C4_27  and  O1_58 
REMARK       I    between atoms: O2S_28  and  S1_48 
REMARK       I    between atoms: O3_32  and  C3_49 
REMARK       I    between atoms: O2_33  and  C2_70 
REMARK       I    between atoms: O2_33  and  S_133 
REMARK       I    between atoms: C5_37  and  C6_84 
REMARK       I    between atoms: C5_41  and  C6_43 
REMARK       I    between atoms: O6_42  and  C6_84 
REMARK       I    between atoms: O6_42  and  S2_77 
REMARK       I    between atoms: C5_44  and  C6_108 
REMARK       I    between atoms: O1_45  and  C1_120 
REMARK       I    between atoms: O1_45  and  C4_114 
REMARK       I    between atoms: S2_47  and  O6_94 
REMARK       I    between atoms: S1_48  and  N_53 
REMARK       I    between atoms: S1_48  and  O1S_52 
REMARK       I    between atoms: S1_48  and  O3S_83 
REMARK       I    between atoms: O3_50  and  C3_119 
REMARK       I    between atoms: N_53  and  C2_89 
REMARK       I    between atoms: S_55  and  O2_75 
REMARK       I    between atoms: O3_56  and  C3_124 
REMARK       I    between atoms: O1_59  and  C1_110 
REMARK       I    between atoms: S2_60  and  O6_132 
REMARK       I    between atoms: O3_61  and  C3_115 
REMARK       I    between atoms: C6_62  and  C5_106 
REMARK       I    between atoms: C6_62  and  O6_94 
REMARK       I    between atoms: C4_63  and  O1_96 
REMARK       I    between atoms: O3_67  and  C3_93 
REMARK       I    between atoms: O1_69  and  C1_113 
REMARK       I    between atoms: O1_69  and  C4_103 
REMARK       I    between atoms: C2_70  and  C1_76 
REMARK       I    between atoms: C5_74  and  C6_90 
REMARK       I    between atoms: C1_76  and  O1_96 
REMARK       I    between atoms: C4_78  and  O1_112 
REMARK       I    between atoms: C6_80  and  C5_134 
REMARK       I    between atoms: C6_80  and  O6_132 
REMARK       I    between atoms: C6_90  and  O6_117 
REMARK       I    between atoms: C2_98  and  N_128 
REMARK       I    between atoms: C1_100  and  O1_112 
REMARK       I    between atoms: S1_111  and  O1S_116 
REMARK       I    between atoms: C4_127  and  O1_130 
ROOT
ATOM      1  C5  IDS d 249      50.350  28.480   7.612  0.00  0.00     0.152 C 
ATOM      2  O2  IDS d 249      46.233  28.747   7.340  0.00  0.00    -0.244 OA
ATOM      3  O1S IDS d 249      45.649  27.613   5.266  0.00  0.00    -0.572 OA
ATOM      4  O5  IDS d 249      49.525  27.459   8.217  0.00  0.00    -0.340 OA
ATOM      5  O1  IDS d 249      48.192  28.566   9.733  0.00  0.00    -0.348 OA
ATOM      6  O62 IDS d 249      52.164  26.884   7.662  0.00  0.00    -0.646 OA
ATOM      7  O3  IDS d 249      48.287  29.731   5.246  0.00  0.00    -0.390 OA
ATOM      8  S   IDS d 249      45.441  27.491   6.700  0.00  0.00     0.252 S 
ATOM      9  C3  IDS d 249      48.281  28.694   6.134  0.00  0.00     0.094 C 
ATOM     10  C6  IDS d 249      51.833  28.056   7.696  0.00  0.00     0.206 C 
ATOM     11  O3S IDS d 249      44.054  27.656   7.080  0.00  0.00    -0.572 OA
ATOM     12  C2  IDS d 249      47.660  28.902   7.495  0.00  0.00     0.134 C 
ATOM     13  C1  IDS d 249      48.206  27.885   8.535  0.00  0.00     0.161 C 
ATOM     14  C4  IDS d 249      49.833  28.686   6.145  0.00  0.00     0.103 C 
ATOM     15  O2S IDS d 249      46.030  26.284   7.225  0.00  0.00    -0.572 OA
ATOM     16  O61 IDS d 249      52.719  28.903   7.806  0.00  0.00    -0.646 OA
ATOM     17  H   IDS d 249      50.284  29.419   8.121  0.00  0.00     0.104 H 
ATOM     18  H   IDS d 249      47.374  29.978   5.031  0.00  0.00     0.210 HD
ATOM     19  H   IDS d 249      47.704  27.828   5.884  0.00  0.00     0.091 H 
ATOM     20  H   IDS d 249      47.904  29.876   7.864  0.00  0.00     0.097 H 
ATOM     21  H   IDS d 249      47.613  26.995   8.558  0.00  0.00     0.133 H 
ATOM     22  H   IDS d 249      50.141  29.564   5.618  0.00  0.00     0.092 H 
ATOM     23  O3  SGN d 246      53.870  16.805   1.432  0.00  0.00    -0.215 OA
ATOM     24  S2  SGN d 246      48.815  16.147  -2.706  0.00  0.00     0.251 S 
ATOM     25  O6S SGN d 246      48.182  16.014  -1.423  0.00  0.00    -0.572 OA
ATOM     26  O2S SGN d 246      52.502  14.875   4.563  0.00  0.00    -0.294 OA
ATOM     27  C3  SGN d 246      52.666  17.484   1.149  0.00  0.00     0.121 C 
ATOM     28  C2  SGN d 246      51.505  16.854   1.932  0.00  0.00     0.084 C 
ATOM     29  O4S SGN d 246      48.149  17.087  -3.569  0.00  0.00    -0.572 OA
ATOM     30  O5S SGN d 246      49.065  14.875  -3.337  0.00  0.00    -0.572 OA
ATOM     31  N   SGN d 246      51.773  16.936   3.368  0.00  0.00    -0.208 NA
ATOM     32  C4  SGN d 246      52.361  17.351  -0.318  0.00  0.00     0.095 C 
ATOM     33  O1  SGN d 246      50.258  18.986   1.927  0.00  0.00    -0.348 OA
ATOM     34  C5  SGN d 246      51.004  18.111  -0.631  0.00  0.00     0.091 C 
ATOM     35  C6  SGN d 246      50.549  18.038  -2.109  0.00  0.00     0.067 C 
ATOM     36  S1  SGN d 246      53.034  16.109   4.021  0.00  0.00     0.188 S 
ATOM     37  C1  SGN d 246      50.151  17.616   1.583  0.00  0.00     0.151 C 
ATOM     38  O1S SGN d 246      53.638  16.960   5.028  0.00  0.00    -0.294 OA
ATOM     39  O6  SGN d 246      50.221  16.713  -2.430  0.00  0.00    -0.254 OA
ATOM     40  O5  SGN d 246      49.908  17.545   0.179  0.00  0.00    -0.349 OA
ATOM     41  O3S SGN d 246      53.923  15.876   2.904  0.00  0.00    -0.119 OA
ATOM     42  H   SGN d 246      51.913  15.076   5.307  0.00  0.00     0.231 HD
ATOM     43  H   SGN d 246      52.777  18.511   1.427  0.00  0.00     0.095 H 
ATOM     44  H   SGN d 246      51.407  15.825   1.656  0.00  0.00     0.077 H 
ATOM     45  H   SGN d 246      50.931  16.610   3.843  0.00  0.00     0.140 HD
ATOM     46  H   SGN d 246      52.233  16.331  -0.614  0.00  0.00     0.091 H 
ATOM     47  H   SGN d 246      51.208  19.135  -0.397  0.00  0.00     0.090 H 
ATOM     48  H   SGN d 246      51.343  18.373  -2.745  0.00  0.00     0.080 H 
ATOM     49  H   SGN d 246      49.692  18.663  -2.251  0.00  0.00     0.080 H 
ATOM     50  H   SGN d 246      49.357  17.155   2.132  0.00  0.00     0.131 H 
ATOM     51  H   SGN d 246      53.013  17.091   5.758  0.00  0.00     0.231 HD
ATOM     52  O3  SGN d 250      50.400  28.338  11.466  0.00  0.00    -0.391 OA
ATOM     53  O5S SGN d 250      42.295  27.511  11.619  0.00  0.00    -0.572 OA
ATOM     54  C4  SGN d 250      48.090  27.840  10.944  0.00  0.00     0.095 C 
ATOM     55  S1  SGN d 250      51.401  27.813  14.580  0.00  0.00     0.156 S 
ATOM     56  O3S SGN d 250      51.402  27.448  15.992  0.00  0.00    -0.296 OA
ATOM     57  C1  SGN d 250      47.431  27.939  13.752  0.00  0.00     0.150 C 
ATOM     58  O2S SGN d 250      52.299  28.944  14.293  0.00  0.00    -0.296 OA
ATOM     59  C5  SGN d 250      46.628  27.952  11.495  0.00  0.00     0.091 C 
ATOM     60  O6  SGN d 250      44.394  28.037  10.640  0.00  0.00    -0.254 OA
ATOM     61  O1S SGN d 250      51.633  26.653  13.732  0.00  0.00    -0.296 OA
ATOM     62  O1  SGN d 250      47.156  29.315  13.569  0.00  0.00    -0.348 OA
ATOM     63  S2  SGN d 250      42.963  27.482  10.344  0.00  0.00     0.251 S 
ATOM     64  C6  SGN d 250      45.587  27.316  10.565  0.00  0.00     0.067 C 
ATOM     65  C3  SGN d 250      49.072  28.468  11.956  0.00  0.00     0.083 C 
ATOM     66  C2  SGN d 250      48.935  27.731  13.319  0.00  0.00     0.081 C 
ATOM     67  O6S SGN d 250      42.367  28.406   9.391  0.00  0.00    -0.572 OA
ATOM     68  O5  SGN d 250      46.557  27.288  12.814  0.00  0.00    -0.349 OA
ATOM     69  O4S SGN d 250      43.121  26.133   9.824  0.00  0.00    -0.572 OA
ATOM     70  N   SGN d 250      49.858  28.378  14.308  0.00  0.00    -0.210 NA
ATOM     71  H   SGN d 250      50.477  28.799  10.616  0.00  0.00     0.210 HD
ATOM     72  H   SGN d 250      48.324  26.807  10.786  0.00  0.00     0.091 H 
ATOM     73  H   SGN d 250      50.799  26.702  16.133  0.00  0.00     0.231 HD
ATOM     74  H   SGN d 250      47.289  27.573  14.748  0.00  0.00     0.131 H 
ATOM     75  H   SGN d 250      52.265  29.151  13.346  0.00  0.00     0.231 HD
ATOM     76  H   SGN d 250      46.398  28.995  11.569  0.00  0.00     0.090 H 
ATOM     77  H   SGN d 250      51.627  26.927  12.802  0.00  0.00     0.231 HD
ATOM     78  H   SGN d 250      45.412  26.304  10.865  0.00  0.00     0.080 H 
ATOM     79  H   SGN d 250      45.950  27.332   9.559  0.00  0.00     0.080 H 
ATOM     80  H   SGN d 250      48.847  29.506  12.089  0.00  0.00     0.089 H 
ATOM     81  H   SGN d 250      49.185  26.693  13.262  0.00  0.00     0.076 H 
ATOM     82  H   SGN d 250      49.958  29.349  14.011  0.00  0.00     0.140 HD
ATOM     83  C1  SGN d 252      43.107  36.418  13.134  0.00  0.00     0.147 C 
ATOM     84  C2  SGN d 252      43.291  35.109  12.332  0.00  0.00     0.081 C 
ATOM     85  S1  SGN d 252      41.122  34.596  10.780  0.00  0.00     0.156 S 
ATOM     86  O3  SGN d 252      44.439  33.054  12.370  0.00  0.00    -0.391 OA
ATOM     87  O2S SGN d 252      41.793  33.761   9.805  0.00  0.00    -0.296 OA
ATOM     88  O1  SGN d 252      42.550  36.103  14.426  0.00  0.00    -0.369 OA
ATOM     89  S2  SGN d 252      48.297  38.002  12.105  0.00  0.00     0.251 S 
ATOM     90  C3  SGN d 252      44.280  34.228  13.091  0.00  0.00     0.083 C 
ATOM     91  C6  SGN d 252      46.636  37.228  14.077  0.00  0.00     0.067 C 
ATOM     92  O6S SGN d 252      47.493  39.221  12.105  0.00  0.00    -0.572 OA
ATOM     93  O1S SGN d 252      41.141  36.004  10.430  0.00  0.00    -0.296 OA
ATOM     94  O3S SGN d 252      39.770  34.123  11.072  0.00  0.00    -0.296 OA
ATOM     95  N   SGN d 252      41.972  34.423  12.197  0.00  0.00    -0.210 NA
ATOM     96  O5  SGN d 252      44.386  37.097  13.279  0.00  0.00    -0.350 OA
ATOM     97  O6  SGN d 252      47.521  36.957  13.010  0.00  0.00    -0.254 OA
ATOM     98  O5S SGN d 252      48.343  37.364  10.795  0.00  0.00    -0.572 OA
ATOM     99  C5  SGN d 252      45.405  36.322  13.949  0.00  0.00     0.091 C 
ATOM    100  C4  SGN d 252      45.656  34.983  13.185  0.00  0.00     0.095 C 
ATOM    101  O4S SGN d 252      49.617  38.189  12.692  0.00  0.00    -0.572 OA
ATOM    102  H   SGN d 252      42.439  37.071  12.612  0.00  0.00     0.131 H 
ATOM    103  H   SGN d 252      43.667  35.309  11.351  0.00  0.00     0.076 H 
ATOM    104  H   SGN d 252      43.588  32.591  12.314  0.00  0.00     0.210 HD
ATOM    105  H   SGN d 252      42.683  34.108   9.641  0.00  0.00     0.231 HD
ATOM    106  H   SGN d 252      43.152  35.510  14.902  0.00  0.00     0.212 HD
ATOM    107  H   SGN d 252      43.928  34.011  14.078  0.00  0.00     0.089 H 
ATOM    108  H   SGN d 252      47.128  37.035  15.007  0.00  0.00     0.080 H 
ATOM    109  H   SGN d 252      46.335  38.254  14.045  0.00  0.00     0.080 H 
ATOM    110  H   SGN d 252      42.052  36.279  10.243  0.00  0.00     0.231 HD
ATOM    111  H   SGN d 252      39.358  34.708  11.726  0.00  0.00     0.231 HD
ATOM    112  H   SGN d 252      41.376  34.770  12.949  0.00  0.00     0.140 HD
ATOM    113  H   SGN d 252      45.113  36.018  14.932  0.00  0.00     0.090 H 
ATOM    114  H   SGN d 252      46.042  35.146  12.201  0.00  0.00     0.091 H 
ATOM    115  C3  IDS d 245      54.857  16.199  -3.918  0.00  0.00     0.044 C 
ATOM    116  O2S IDS d 245      52.732  20.258  -3.997  0.00  0.00    -0.572 OA
ATOM    117  O2  IDS d 245      53.204  17.880  -3.669  0.00  0.00    -0.247 OA
ATOM    118  O3S IDS d 245      54.033  19.021  -5.625  0.00  0.00    -0.572 OA
ATOM    119  O3  IDS d 245      55.062  16.552  -5.265  0.00  0.00    -0.398 OA
ATOM    120  C2  IDS d 245      54.445  17.414  -3.142  0.00  0.00     0.100 C 
ATOM    121  C1  IDS d 245      54.264  16.968  -1.714  0.00  0.00     0.048 C 
ATOM    122  O1  IDS d 245      53.469  17.907  -1.037  0.00  0.00    -0.378 OA
ATOM    123  O1S IDS d 245      51.672  18.577  -5.364  0.00  0.00    -0.572 OA
ATOM    124  S   IDS d 245      52.905  19.012  -4.722  0.00  0.00     0.252 S 
ATOM    125  H   IDS d 245      54.087  15.458  -3.857  0.00  0.00     0.078 H 
ATOM    126  H   IDS d 245      55.764  15.804  -3.510  0.00  0.00     0.078 H 
ATOM    127  H   IDS d 245      54.241  16.909  -5.635  0.00  0.00     0.209 HD
ATOM    128  H   IDS d 245      55.168  18.201  -3.204  0.00  0.00     0.092 H 
ATOM    129  H   IDS d 245      55.220  16.897  -1.237  0.00  0.00     0.078 H 
ATOM    130  H   IDS d 245      53.788  16.010  -1.693  0.00  0.00     0.078 H 
ATOM    131  C2  IDS d 247      50.741  20.721   5.032  0.00  0.00     0.134 C 
ATOM    132  O2  IDS d 247      51.785  20.521   6.010  0.00  0.00    -0.244 OA
ATOM    133  S   IDS d 247      51.669  19.915   7.515  0.00  0.00     0.252 S 
ATOM    134  C5  IDS d 247      49.301  21.040   2.729  0.00  0.00     0.152 C 
ATOM    135  O1S IDS d 247      50.285  20.143   7.882  0.00  0.00    -0.572 OA
ATOM    136  O3  IDS d 247      50.217  18.382   5.121  0.00  0.00    -0.390 OA
ATOM    137  O3S IDS d 247      52.602  20.671   8.354  0.00  0.00    -0.572 OA
ATOM    138  O62 IDS d 247      49.269  21.872   0.470  0.00  0.00    -0.646 OA
ATOM    139  O61 IDS d 247      47.583  20.798   1.059  0.00  0.00    -0.646 OA
ATOM    140  O5  IDS d 247      50.547  21.778   2.807  0.00  0.00    -0.340 OA
ATOM    141  O2S IDS d 247      51.985  18.504   7.445  0.00  0.00    -0.572 OA
ATOM    142  C1  IDS d 247      51.109  21.905   4.116  0.00  0.00     0.161 C 
ATOM    143  C4  IDS d 247      49.594  19.523   3.067  0.00  0.00     0.103 C 
ATOM    144  C6  IDS d 247      48.681  21.255   1.335  0.00  0.00     0.206 C 
ATOM    145  O1  IDS d 247      50.651  23.038   4.761  0.00  0.00    -0.348 OA
ATOM    146  C3  IDS d 247      50.603  19.432   4.241  0.00  0.00     0.094 C 
ATOM    147  H   IDS d 247      49.809  20.956   5.501  0.00  0.00     0.097 H 
ATOM    148  H   IDS d 247      48.582  21.387   3.442  0.00  0.00     0.104 H 
ATOM    149  H   IDS d 247      50.849  18.326   5.855  0.00  0.00     0.210 HD
ATOM    150  H   IDS d 247      52.166  21.944   3.955  0.00  0.00     0.133 H 
ATOM    151  H   IDS d 247      48.687  19.013   3.317  0.00  0.00     0.092 H 
ATOM    152  H   IDS d 247      51.558  19.235   3.801  0.00  0.00     0.091 H 
ATOM    153  C2  IDS d 251      48.283  32.556  14.523  0.00  0.00     0.134 C 
ATOM    154  C1  IDS d 251      47.333  33.063  13.403  0.00  0.00     0.161 C 
ATOM    155  O62 IDS d 251      43.915  29.856  14.460  0.00  0.00    -0.646 OA
ATOM    156  C4  IDS d 251      47.096  30.245  14.574  0.00  0.00     0.103 C 
ATOM    157  C5  IDS d 251      45.935  31.182  14.122  0.00  0.00     0.152 C 
ATOM    158  C6  IDS d 251      44.652  30.407  13.661  0.00  0.00     0.206 C 
ATOM    159  S   IDS d 251      50.485  33.185  12.996  0.00  0.00     0.252 S 
ATOM    160  O3  IDS d 251      49.264  30.624  15.574  0.00  0.00    -0.390 OA
ATOM    161  O61 IDS d 251      44.359  30.329  12.464  0.00  0.00    -0.646 OA
ATOM    162  O3S IDS d 251      51.593  34.042  13.347  0.00  0.00    -0.572 OA
ATOM    163  O2  IDS d 251      49.597  33.092  14.347  0.00  0.00    -0.244 OA
ATOM    164  O2S IDS d 251      49.654  33.732  11.939  0.00  0.00    -0.572 OA
ATOM    165  O5  IDS d 251      46.441  32.006  13.012  0.00  0.00    -0.340 OA
ATOM    166  C3  IDS d 251      48.430  31.028  14.504  0.00  0.00     0.094 C 
ATOM    167  O1S IDS d 251      50.895  31.816  12.717  0.00  0.00    -0.572 OA
ATOM    168  O1  IDS d 251      46.636  34.193  13.961  0.00  0.00    -0.348 OA
ATOM    169  H   IDS d 251      47.848  32.874  15.447  0.00  0.00     0.097 H 
ATOM    170  H   IDS d 251      47.856  33.357  12.517  0.00  0.00     0.133 H 
ATOM    171  H   IDS d 251      46.948  29.850  15.558  0.00  0.00     0.092 H 
ATOM    172  H   IDS d 251      45.637  31.775  14.960  0.00  0.00     0.104 H 
ATOM    173  H   IDS d 251      50.101  31.112  15.533  0.00  0.00     0.210 HD
ATOM    174  H   IDS d 251      48.860  30.789  13.554  0.00  0.00     0.091 H 
ATOM    175  O5S SGN d 248      52.690  23.048   2.370  0.00  0.00    -0.572 OA
ATOM    176  O4S SGN d 248      54.954  23.897   2.475  0.00  0.00    -0.572 OA
ATOM    177  O2S SGN d 248      47.693  29.253   2.292  0.00  0.00    -0.296 OA
ATOM    178  O1  SGN d 248      50.329  27.251   5.643  0.00  0.00    -0.348 OA
ATOM    179  S1  SGN d 248      48.508  28.124   1.857  0.00  0.00     0.156 S 
ATOM    180  O3  SGN d 248      48.886  24.384   3.069  0.00  0.00    -0.391 OA
ATOM    181  O1S SGN d 248      47.845  27.262   0.902  0.00  0.00    -0.296 OA
ATOM    182  N   SGN d 248      48.795  27.245   3.231  0.00  0.00    -0.210 NA
ATOM    183  S2  SGN d 248      53.593  24.016   2.966  0.00  0.00     0.251 S 
ATOM    184  C4  SGN d 248      51.004  24.301   4.216  0.00  0.00     0.095 C 
ATOM    185  C6  SGN d 248      53.241  24.438   5.538  0.00  0.00     0.067 C 
ATOM    186  O6S SGN d 248      53.082  25.371   2.910  0.00  0.00    -0.572 OA
ATOM    187  O3S SGN d 248      49.808  28.544   1.372  0.00  0.00    -0.296 OA
ATOM    188  O5  SGN d 248      52.178  26.435   4.665  0.00  0.00    -0.349 OA
ATOM    189  C2  SGN d 248      50.052  26.468   3.419  0.00  0.00     0.081 C 
ATOM    190  C3  SGN d 248      49.709  25.084   3.989  0.00  0.00     0.083 C 
ATOM    191  C1  SGN d 248      50.992  27.191   4.443  0.00  0.00     0.150 C 
ATOM    192  O6  SGN d 248      53.614  23.627   4.468  0.00  0.00    -0.254 OA
ATOM    193  C5  SGN d 248      51.894  25.107   5.225  0.00  0.00     0.091 C 
ATOM    194  H   SGN d 248      46.835  28.929   2.608  0.00  0.00     0.231 HD
ATOM    195  H   SGN d 248      48.669  23.511   3.429  0.00  0.00     0.210 HD
ATOM    196  H   SGN d 248      46.980  26.997   1.251  0.00  0.00     0.231 HD
ATOM    197  H   SGN d 248      48.030  26.574   3.307  0.00  0.00     0.140 HD
ATOM    198  H   SGN d 248      51.549  24.161   3.306  0.00  0.00     0.091 H 
ATOM    199  H   SGN d 248      53.146  23.841   6.421  0.00  0.00     0.080 H 
ATOM    200  H   SGN d 248      53.986  25.189   5.695  0.00  0.00     0.080 H 
ATOM    201  H   SGN d 248      50.228  29.119   2.030  0.00  0.00     0.231 HD
ATOM    202  H   SGN d 248      50.545  26.382   2.473  0.00  0.00     0.076 H 
ATOM    203  H   SGN d 248      49.188  25.194   4.917  0.00  0.00     0.089 H 
ATOM    204  H   SGN d 248      51.246  28.157   4.059  0.00  0.00     0.131 H 
ATOM    205  H   SGN d 248      51.335  25.157   6.136  0.00  0.00     0.090 H 
ENDROOT
TORSDOF 64
ENDMDL
MODEL 13
REMARK VINA RESULT:      -3.8      3.441      7.039
REMARK  0 active torsions:
REMARK  status: ('A' for Active; 'I' for Inactive)
REMARK       I    between atoms: C5_1  and  C6_97 
REMARK       I    between atoms: O2_2  and  C2_107 
REMARK       I    between atoms: O2_2  and  S_88 
REMARK       I    between atoms: O3_4  and  C3_95 
REMARK       I    between atoms: C1_5  and  O1_40 
REMARK       I    between atoms: C3_6  and  C2_70 
REMARK       I    between atoms: C3_6  and  O3_51 
REMARK       I    between atoms: C2_7  and  O2_9 
REMARK       I    between atoms: C2_8  and  O2_75 
REMARK       I    between atoms: O2_9  and  S_23 
REMARK       I    between atoms: S2_14  and  O6_117 
REMARK       I    between atoms: C1_15  and  O1_130 
REMARK       I    between atoms: C4_16  and  O1_59 
REMARK       I    between atoms: S1_17  and  N_128 
REMARK       I    between atoms: S1_17  and  O1S_46 
REMARK       I    between atoms: S1_17  and  O2S_29 
REMARK       I    between atoms: S1_17  and  O3S_24 
REMARK       I    between atoms: C2_18  and  N_86 
REMARK       I    between atoms: S1_19  and  N_86 
REMARK       I    between atoms: S1_19  and  O1S_71 
REMARK       I    between atoms: S1_19  and  O2S_34 
REMARK       I    between atoms: S1_19  and  O3S_81 
REMARK       I    between atoms: O2S_22  and  S1_111 
REMARK       I    between atoms: C1_25  and  O1_58 
REMARK       I    between atoms: C4_27  and  O1_58 
REMARK       I    between atoms: O2S_28  and  S1_48 
REMARK       I    between atoms: O3_32  and  C3_49 
REMARK       I    between atoms: O2_33  and  C2_70 
REMARK       I    between atoms: O2_33  and  S_133 
REMARK       I    between atoms: C5_37  and  C6_84 
REMARK       I    between atoms: C5_41  and  C6_43 
REMARK       I    between atoms: O6_42  and  C6_84 
REMARK       I    between atoms: O6_42  and  S2_77 
REMARK       I    between atoms: C5_44  and  C6_108 
REMARK       I    between atoms: O1_45  and  C1_120 
REMARK       I    between atoms: O1_45  and  C4_114 
REMARK       I    between atoms: S2_47  and  O6_94 
REMARK       I    between atoms: S1_48  and  N_53 
REMARK       I    between atoms: S1_48  and  O1S_52 
REMARK       I    between atoms: S1_48  and  O3S_83 
REMARK       I    between atoms: O3_50  and  C3_119 
REMARK       I    between atoms: N_53  and  C2_89 
REMARK       I    between atoms: S_55  and  O2_75 
REMARK       I    between atoms: O3_56  and  C3_124 
REMARK       I    between atoms: O1_59  and  C1_110 
REMARK       I    between atoms: S2_60  and  O6_132 
REMARK       I    between atoms: O3_61  and  C3_115 
REMARK       I    between atoms: C6_62  and  C5_106 
REMARK       I    between atoms: C6_62  and  O6_94 
REMARK       I    between atoms: C4_63  and  O1_96 
REMARK       I    between atoms: O3_67  and  C3_93 
REMARK       I    between atoms: O1_69  and  C1_113 
REMARK       I    between atoms: O1_69  and  C4_103 
REMARK       I    between atoms: C2_70  and  C1_76 
REMARK       I    between atoms: C5_74  and  C6_90 
REMARK       I    between atoms: C1_76  and  O1_96 
REMARK       I    between atoms: C4_78  and  O1_112 
REMARK       I    between atoms: C6_80  and  C5_134 
REMARK       I    between atoms: C6_80  and  O6_132 
REMARK       I    between atoms: C6_90  and  O6_117 
REMARK       I    between atoms: C2_98  and  N_128 
REMARK       I    between atoms: C1_100  and  O1_112 
REMARK       I    between atoms: S1_111  and  O1S_116 
REMARK       I    between atoms: C4_127  and  O1_130 
ROOT
ATOM      1  C5  IDS d 249      47.637  28.074  11.833  0.00  0.00     0.152 C 
ATOM      2  O2  IDS d 249      49.519  31.681  11.100  0.00  0.00    -0.244 OA
ATOM      3  O1S IDS d 249      51.059  31.244   9.265  0.00  0.00    -0.572 OA
ATOM      4  O5  IDS d 249      47.047  29.013  10.905  0.00  0.00    -0.340 OA
ATOM      5  O1  IDS d 249      46.691  30.935  12.122  0.00  0.00    -0.348 OA
ATOM      6  O62 IDS d 249      46.303  26.362  10.770  0.00  0.00    -0.646 OA
ATOM      7  O3  IDS d 249      50.888  28.993  11.785  0.00  0.00    -0.390 OA
ATOM      8  S   IDS d 249      49.880  32.040   9.565  0.00  0.00     0.252 S 
ATOM      9  C3  IDS d 249      49.746  29.315  11.111  0.00  0.00     0.094 C 
ATOM     10  C6  IDS d 249      46.845  26.748  11.791  0.00  0.00     0.206 C 
ATOM     11  O3S IDS d 249      50.144  33.463   9.538  0.00  0.00    -0.572 OA
ATOM     12  C2  IDS d 249      48.909  30.473  11.602  0.00  0.00     0.134 C 
ATOM     13  C1  IDS d 249      47.439  30.364  11.114  0.00  0.00     0.161 C 
ATOM     14  C4  IDS d 249      49.149  27.922  11.443  0.00  0.00     0.103 C 
ATOM     15  O2S IDS d 249      48.755  31.660   8.747  0.00  0.00    -0.572 OA
ATOM     16  O61 IDS d 249      46.741  26.051  12.800  0.00  0.00    -0.646 OA
ATOM     17  H   IDS d 249      47.589  28.411  12.848  0.00  0.00     0.104 H 
ATOM     18  H   IDS d 249      51.507  29.738  11.747  0.00  0.00     0.210 HD
ATOM     19  H   IDS d 249      49.845  29.672  10.107  0.00  0.00     0.091 H 
ATOM     20  H   IDS d 249      48.877  30.473  12.671  0.00  0.00     0.097 H 
ATOM     21  H   IDS d 249      47.304  30.853  10.172  0.00  0.00     0.133 H 
ATOM     22  H   IDS d 249      49.812  27.473  12.152  0.00  0.00     0.092 H 
ATOM     23  O3  SGN d 246      47.085  21.512  -0.147  0.00  0.00    -0.215 OA
ATOM     24  S2  SGN d 246      52.234  24.243  -3.171  0.00  0.00     0.251 S 
ATOM     25  O6S SGN d 246      51.338  25.356  -3.021  0.00  0.00    -0.572 OA
ATOM     26  O2S SGN d 246      44.222  23.969  -1.225  0.00  0.00    -0.294 OA
ATOM     27  C3  SGN d 246      48.036  22.517   0.128  0.00  0.00     0.121 C 
ATOM     28  C2  SGN d 246      47.573  23.860  -0.455  0.00  0.00     0.084 C 
ATOM     29  O4S SGN d 246      53.572  24.530  -2.723  0.00  0.00    -0.572 OA
ATOM     30  O5S SGN d 246      52.188  23.667  -4.491  0.00  0.00    -0.572 OA
ATOM     31  N   SGN d 246      46.290  24.241   0.137  0.00  0.00    -0.208 NA
ATOM     32  C4  SGN d 246      49.340  22.152  -0.529  0.00  0.00     0.095 C 
ATOM     33  O1  SGN d 246      48.858  25.114   1.240  0.00  0.00    -0.348 OA
ATOM     34  C5  SGN d 246      50.405  23.287  -0.221  0.00  0.00     0.091 C 
ATOM     35  C6  SGN d 246      51.796  23.056  -0.859  0.00  0.00     0.067 C 
ATOM     36  S1  SGN d 246      44.949  23.334  -0.144  0.00  0.00     0.188 S 
ATOM     37  C1  SGN d 246      48.668  24.977  -0.156  0.00  0.00     0.151 C 
ATOM     38  O1S SGN d 246      44.195  23.277   1.093  0.00  0.00    -0.294 OA
ATOM     39  O6  SGN d 246      51.687  23.131  -2.255  0.00  0.00    -0.254 OA
ATOM     40  O5  SGN d 246      49.918  24.587  -0.723  0.00  0.00    -0.349 OA
ATOM     41  O3S SGN d 246      45.469  22.038  -0.523  0.00  0.00    -0.119 OA
ATOM     42  H   SGN d 246      43.892  24.832  -0.930  0.00  0.00     0.231 HD
ATOM     43  H   SGN d 246      48.151  22.601   1.189  0.00  0.00     0.095 H 
ATOM     44  H   SGN d 246      47.451  23.764  -1.514  0.00  0.00     0.077 H 
ATOM     45  H   SGN d 246      46.082  25.184  -0.194  0.00  0.00     0.140 HD
ATOM     46  H   SGN d 246      49.250  22.076  -1.592  0.00  0.00     0.091 H 
ATOM     47  H   SGN d 246      50.519  23.269   0.842  0.00  0.00     0.090 H 
ATOM     48  H   SGN d 246      52.161  22.089  -0.581  0.00  0.00     0.080 H 
ATOM     49  H   SGN d 246      52.477  23.807  -0.514  0.00  0.00     0.080 H 
ATOM     50  H   SGN d 246      48.328  25.899  -0.579  0.00  0.00     0.131 H 
ATOM     51  H   SGN d 246      43.864  24.162   1.312  0.00  0.00     0.231 HD
ATOM     52  O3  SGN d 250      44.309  29.678  12.943  0.00  0.00    -0.391 OA
ATOM     53  O5S SGN d 250      46.919  36.990  10.471  0.00  0.00    -0.572 OA
ATOM     54  C4  SGN d 250      45.431  31.502  11.816  0.00  0.00     0.095 C 
ATOM     55  S1  SGN d 250      41.103  30.083  13.669  0.00  0.00     0.156 S 
ATOM     56  O3S SGN d 250      39.771  30.666  13.783  0.00  0.00    -0.296 OA
ATOM     57  C1  SGN d 250      43.345  33.310  12.661  0.00  0.00     0.150 C 
ATOM     58  O2S SGN d 250      41.437  29.222  14.816  0.00  0.00    -0.296 OA
ATOM     59  C5  SGN d 250      45.559  33.063  11.778  0.00  0.00     0.091 C 
ATOM     60  O6  SGN d 250      47.155  34.713  11.099  0.00  0.00    -0.254 OA
ATOM     61  O1S SGN d 250      41.289  29.437  12.379  0.00  0.00    -0.296 OA
ATOM     62  O1  SGN d 250      44.128  33.565  13.812  0.00  0.00    -0.348 OA
ATOM     63  S2  SGN d 250      47.732  35.839  10.183  0.00  0.00     0.251 S 
ATOM     64  C6  SGN d 250      46.494  33.560  10.669  0.00  0.00     0.067 C 
ATOM     65  C3  SGN d 250      44.445  31.093  12.931  0.00  0.00     0.083 C 
ATOM     66  C2  SGN d 250      43.065  31.756  12.657  0.00  0.00     0.081 C 
ATOM     67  O6S SGN d 250      49.114  36.024  10.602  0.00  0.00    -0.572 OA
ATOM     68  O5  SGN d 250      44.219  33.653  11.571  0.00  0.00    -0.349 OA
ATOM     69  O4S SGN d 250      47.599  35.388   8.807  0.00  0.00    -0.572 OA
ATOM     70  N   SGN d 250      42.129  31.391  13.770  0.00  0.00    -0.210 NA
ATOM     71  H   SGN d 250      45.173  29.272  13.113  0.00  0.00     0.210 HD
ATOM     72  H   SGN d 250      45.083  31.158  10.863  0.00  0.00     0.091 H 
ATOM     73  H   SGN d 250      39.595  31.223  13.009  0.00  0.00     0.231 HD
ATOM     74  H   SGN d 250      42.418  33.843  12.610  0.00  0.00     0.131 H 
ATOM     75  H   SGN d 250      42.328  28.858  14.697  0.00  0.00     0.231 HD
ATOM     76  H   SGN d 250      45.980  33.368  12.714  0.00  0.00     0.090 H 
ATOM     77  H   SGN d 250      42.182  29.059  12.333  0.00  0.00     0.231 HD
ATOM     78  H   SGN d 250      45.922  33.783   9.793  0.00  0.00     0.080 H 
ATOM     79  H   SGN d 250      47.213  32.802  10.442  0.00  0.00     0.080 H 
ATOM     80  H   SGN d 250      44.813  31.418  13.882  0.00  0.00     0.089 H 
ATOM     81  H   SGN d 250      42.624  31.441  11.735  0.00  0.00     0.076 H 
ATOM     82  H   SGN d 250      42.711  31.234  14.592  0.00  0.00     0.140 HD
ATOM     83  C1  SGN d 252      48.724  37.471  19.348  0.00  0.00     0.147 C 
ATOM     84  C2  SGN d 252      48.833  36.878  17.925  0.00  0.00     0.081 C 
ATOM     85  S1  SGN d 252      50.766  38.132  16.486  0.00  0.00     0.156 S 
ATOM     86  O3  SGN d 252      47.587  35.731  16.290  0.00  0.00    -0.391 OA
ATOM     87  O2S SGN d 252      51.019  37.056  15.550  0.00  0.00    -0.296 OA
ATOM     88  O1  SGN d 252      47.723  38.509  19.349  0.00  0.00    -0.369 OA
ATOM     89  S2  SGN d 252      48.240  32.455  21.607  0.00  0.00     0.251 S 
ATOM     90  C3  SGN d 252      47.485  36.259  17.569  0.00  0.00     0.083 C 
ATOM     91  C6  SGN d 252      46.906  34.749  21.161  0.00  0.00     0.067 C 
ATOM     92  O6S SGN d 252      49.007  33.255  22.557  0.00  0.00    -0.572 OA
ATOM     93  O1S SGN d 252      51.591  38.053  17.677  0.00  0.00    -0.296 OA
ATOM     94  O3S SGN d 252      50.849  39.445  15.850  0.00  0.00    -0.296 OA
ATOM     95  N   SGN d 252      49.183  37.965  16.963  0.00  0.00    -0.210 NA
ATOM     96  O5  SGN d 252      48.378  36.424  20.299  0.00  0.00    -0.350 OA
ATOM     97  O6  SGN d 252      47.371  33.477  20.763  0.00  0.00    -0.254 OA
ATOM     98  O5S SGN d 252      49.087  31.809  20.610  0.00  0.00    -0.572 OA
ATOM     99  C5  SGN d 252      47.133  35.746  20.018  0.00  0.00     0.091 C 
ATOM    100  C4  SGN d 252      47.174  35.107  18.594  0.00  0.00     0.095 C 
ATOM    101  O4S SGN d 252      47.319  31.529  22.253  0.00  0.00    -0.572 OA
ATOM    102  H   SGN d 252      49.665  37.889  19.640  0.00  0.00     0.131 H 
ATOM    103  H   SGN d 252      49.597  36.130  17.878  0.00  0.00     0.076 H 
ATOM    104  H   SGN d 252      47.778  36.444  15.660  0.00  0.00     0.210 HD
ATOM    105  H   SGN d 252      50.954  36.205  16.011  0.00  0.00     0.231 HD
ATOM    106  H   SGN d 252      46.868  38.134  19.085  0.00  0.00     0.212 HD
ATOM    107  H   SGN d 252      46.702  36.987  17.607  0.00  0.00     0.089 H 
ATOM    108  H   SGN d 252      45.861  34.694  21.387  0.00  0.00     0.080 H 
ATOM    109  H   SGN d 252      47.437  35.071  22.032  0.00  0.00     0.080 H 
ATOM    110  H   SGN d 252      51.510  37.169  18.069  0.00  0.00     0.231 HD
ATOM    111  H   SGN d 252      50.674  40.135  16.509  0.00  0.00     0.231 HD
ATOM    112  H   SGN d 252      48.905  38.847  17.393  0.00  0.00     0.140 HD
ATOM    113  H   SGN d 252      46.297  36.413  19.988  0.00  0.00     0.090 H 
ATOM    114  H   SGN d 252      47.922  34.347  18.514  0.00  0.00     0.091 H 
ATOM    115  C3  IDS d 245      51.001  18.283  -2.199  0.00  0.00     0.044 C 
ATOM    116  O2S IDS d 245      53.413  20.418   1.060  0.00  0.00    -0.572 OA
ATOM    117  O2  IDS d 245      52.053  19.985  -0.927  0.00  0.00    -0.247 OA
ATOM    118  O3S IDS d 245      53.827  18.469  -0.319  0.00  0.00    -0.572 OA
ATOM    119  O3  IDS d 245      52.195  17.541  -2.259  0.00  0.00    -0.398 OA
ATOM    120  C2  IDS d 245      50.963  19.064  -0.920  0.00  0.00     0.100 C 
ATOM    121  C1  IDS d 245      49.656  19.813  -0.914  0.00  0.00     0.048 C 
ATOM    122  O1  IDS d 245      49.740  20.880  -0.005  0.00  0.00    -0.378 OA
ATOM    123  O1S IDS d 245      54.327  20.679  -1.158  0.00  0.00    -0.572 OA
ATOM    124  S   IDS d 245      53.486  19.872  -0.284  0.00  0.00     0.252 S 
ATOM    125  H   IDS d 245      50.957  18.956  -3.030  0.00  0.00     0.078 H 
ATOM    126  H   IDS d 245      50.164  17.618  -2.236  0.00  0.00     0.078 H 
ATOM    127  H   IDS d 245      52.954  18.144  -2.225  0.00  0.00     0.209 HD
ATOM    128  H   IDS d 245      51.043  18.437  -0.057  0.00  0.00     0.092 H 
ATOM    129  H   IDS d 245      48.866  19.154  -0.621  0.00  0.00     0.078 H 
ATOM    130  H   IDS d 245      49.453  20.191  -1.895  0.00  0.00     0.078 H 
ATOM    131  C2  IDS d 247      46.714  26.124   3.936  0.00  0.00     0.134 C 
ATOM    132  O2  IDS d 247      45.420  25.593   4.290  0.00  0.00    -0.244 OA
ATOM    133  S   IDS d 247      43.962  26.306   4.186  0.00  0.00     0.252 S 
ATOM    134  C5  IDS d 247      49.323  26.451   3.183  0.00  0.00     0.152 C 
ATOM    135  O1S IDS d 247      44.260  27.724   4.214  0.00  0.00    -0.572 OA
ATOM    136  O3  IDS d 247      45.946  26.487   1.693  0.00  0.00    -0.390 OA
ATOM    137  O3S IDS d 247      43.189  25.875   5.354  0.00  0.00    -0.572 OA
ATOM    138  O62 IDS d 247      51.560  25.559   3.224  0.00  0.00    -0.646 OA
ATOM    139  O61 IDS d 247      51.289  27.265   2.055  0.00  0.00    -0.646 OA
ATOM    140  O5  IDS d 247      49.069  25.408   4.159  0.00  0.00    -0.340 OA
ATOM    141  O2S IDS d 247      43.364  25.902   2.931  0.00  0.00    -0.572 OA
ATOM    142  C1  IDS d 247      47.800  25.473   4.816  0.00  0.00     0.161 C 
ATOM    143  C4  IDS d 247      48.350  26.237   1.955  0.00  0.00     0.103 C 
ATOM    144  C6  IDS d 247      50.816  26.423   2.802  0.00  0.00     0.206 C 
ATOM    145  O1  IDS d 247      47.859  26.235   5.968  0.00  0.00    -0.348 OA
ATOM    146  C3  IDS d 247      46.944  25.828   2.465  0.00  0.00     0.094 C 
ATOM    147  H   IDS d 247      46.759  27.181   4.101  0.00  0.00     0.097 H 
ATOM    148  H   IDS d 247      49.124  27.426   3.576  0.00  0.00     0.104 H 
ATOM    149  H   IDS d 247      45.067  26.230   2.013  0.00  0.00     0.210 HD
ATOM    150  H   IDS d 247      47.552  24.455   5.030  0.00  0.00     0.133 H 
ATOM    151  H   IDS d 247      48.287  27.129   1.368  0.00  0.00     0.092 H 
ATOM    152  H   IDS d 247      46.881  24.766   2.350  0.00  0.00     0.091 H 
ATOM    153  C2  IDS d 251      44.130  33.165  17.351  0.00  0.00     0.134 C 
ATOM    154  C1  IDS d 251      45.628  33.570  17.256  0.00  0.00     0.161 C 
ATOM    155  O62 IDS d 251      44.801  36.901  13.892  0.00  0.00    -0.646 OA
ATOM    156  C4  IDS d 251      43.655  34.110  14.977  0.00  0.00     0.103 C 
ATOM    157  C5  IDS d 251      44.831  35.020  15.446  0.00  0.00     0.152 C 
ATOM    158  C6  IDS d 251      45.409  35.928  14.306  0.00  0.00     0.206 C 
ATOM    159  S   IDS d 251      44.829  30.564  17.922  0.00  0.00     0.252 S 
ATOM    160  O3  IDS d 251      42.138  32.612  16.116  0.00  0.00    -0.390 OA
ATOM    161  O61 IDS d 251      46.500  35.672  13.788  0.00  0.00    -0.646 OA
ATOM    162  O3S IDS d 251      44.442  29.771  19.065  0.00  0.00    -0.572 OA
ATOM    163  O2  IDS d 251      43.988  31.939  18.074  0.00  0.00    -0.244 OA
ATOM    164  O2S IDS d 251      46.243  30.892  17.909  0.00  0.00    -0.572 OA
ATOM    165  O5  IDS d 251      45.892  34.139  15.961  0.00  0.00    -0.340 OA
ATOM    166  C3  IDS d 251      43.509  32.928  15.967  0.00  0.00     0.094 C 
ATOM    167  O1S IDS d 251      44.390  29.989  16.658  0.00  0.00    -0.572 OA
ATOM    168  O1  IDS d 251      45.849  34.509  18.324  0.00  0.00    -0.348 OA
ATOM    169  H   IDS d 251      43.635  33.974  17.845  0.00  0.00     0.097 H 
ATOM    170  H   IDS d 251      46.290  32.737  17.358  0.00  0.00     0.133 H 
ATOM    171  H   IDS d 251      42.730  34.642  14.895  0.00  0.00     0.092 H 
ATOM    172  H   IDS d 251      44.461  35.687  16.196  0.00  0.00     0.104 H 
ATOM    173  H   IDS d 251      42.043  31.871  16.735  0.00  0.00     0.210 HD
ATOM    174  H   IDS d 251      44.059  32.117  15.537  0.00  0.00     0.091 H 
ATOM    175  O5S SGN d 248      49.114  23.371   5.656  0.00  0.00    -0.572 OA
ATOM    176  O4S SGN d 248      48.496  21.430   6.964  0.00  0.00    -0.572 OA
ATOM    177  O2S SGN d 248      53.424  28.227  10.272  0.00  0.00    -0.296 OA
ATOM    178  O1  SGN d 248      48.839  27.168  10.066  0.00  0.00    -0.348 OA
ATOM    179  S1  SGN d 248      53.055  27.236   9.269  0.00  0.00     0.156 S 
ATOM    180  O3  SGN d 248      50.466  27.181   6.288  0.00  0.00    -0.391 OA
ATOM    181  O1S SGN d 248      53.783  27.367   8.025  0.00  0.00    -0.296 OA
ATOM    182  N   SGN d 248      51.452  27.513   8.959  0.00  0.00    -0.210 NA
ATOM    183  S2  SGN d 248      48.639  22.874   6.936  0.00  0.00     0.251 S 
ATOM    184  C4  SGN d 248      48.668  25.762   7.036  0.00  0.00     0.095 C 
ATOM    185  C6  SGN d 248      46.760  24.324   8.069  0.00  0.00     0.067 C 
ATOM    186  O6S SGN d 248      49.395  23.396   8.057  0.00  0.00    -0.572 OA
ATOM    187  O3S SGN d 248      53.135  25.882   9.784  0.00  0.00    -0.296 OA
ATOM    188  O5  SGN d 248      48.658  25.032   9.402  0.00  0.00    -0.349 OA
ATOM    189  C2  SGN d 248      50.524  26.412   8.575  0.00  0.00     0.081 C 
ATOM    190  C3  SGN d 248      49.645  26.879   7.405  0.00  0.00     0.083 C 
ATOM    191  C1  SGN d 248      49.580  26.052   9.772  0.00  0.00     0.150 C 
ATOM    192  O6  SGN d 248      47.215  23.477   7.061  0.00  0.00    -0.254 OA
ATOM    193  C5  SGN d 248      47.787  25.445   8.294  0.00  0.00     0.091 C 
ATOM    194  H   SGN d 248      53.358  29.116   9.889  0.00  0.00     0.231 HD
ATOM    195  H   SGN d 248      49.910  27.476   5.549  0.00  0.00     0.210 HD
ATOM    196  H   SGN d 248      53.713  28.279   7.704  0.00  0.00     0.231 HD
ATOM    197  H   SGN d 248      51.421  28.192   8.198  0.00  0.00     0.140 HD
ATOM    198  H   SGN d 248      49.177  24.871   6.735  0.00  0.00     0.091 H 
ATOM    199  H   SGN d 248      45.823  24.752   7.780  0.00  0.00     0.080 H 
ATOM    200  H   SGN d 248      46.633  23.768   8.974  0.00  0.00     0.080 H 
ATOM    201  H   SGN d 248      52.640  25.823  10.616  0.00  0.00     0.231 HD
ATOM    202  H   SGN d 248      51.105  25.556   8.300  0.00  0.00     0.076 H 
ATOM    203  H   SGN d 248      49.100  27.755   7.689  0.00  0.00     0.089 H 
ATOM    204  H   SGN d 248      50.176  25.719  10.595  0.00  0.00     0.131 H 
ATOM    205  H   SGN d 248      47.247  26.343   8.511  0.00  0.00     0.090 H 
ENDROOT
TORSDOF 64
ENDMDL
MODEL 14
REMARK VINA RESULT:      -3.7      2.768     17.919
REMARK  0 active torsions:
REMARK  status: ('A' for Active; 'I' for Inactive)
REMARK       I    between atoms: C5_1  and  C6_97 
REMARK       I    between atoms: O2_2  and  C2_107 
REMARK       I    between atoms: O2_2  and  S_88 
REMARK       I    between atoms: O3_4  and  C3_95 
REMARK       I    between atoms: C1_5  and  O1_40 
REMARK       I    between atoms: C3_6  and  C2_70 
REMARK       I    between atoms: C3_6  and  O3_51 
REMARK       I    between atoms: C2_7  and  O2_9 
REMARK       I    between atoms: C2_8  and  O2_75 
REMARK       I    between atoms: O2_9  and  S_23 
REMARK       I    between atoms: S2_14  and  O6_117 
REMARK       I    between atoms: C1_15  and  O1_130 
REMARK       I    between atoms: C4_16  and  O1_59 
REMARK       I    between atoms: S1_17  and  N_128 
REMARK       I    between atoms: S1_17  and  O1S_46 
REMARK       I    between atoms: S1_17  and  O2S_29 
REMARK       I    between atoms: S1_17  and  O3S_24 
REMARK       I    between atoms: C2_18  and  N_86 
REMARK       I    between atoms: S1_19  and  N_86 
REMARK       I    between atoms: S1_19  and  O1S_71 
REMARK       I    between atoms: S1_19  and  O2S_34 
REMARK       I    between atoms: S1_19  and  O3S_81 
REMARK       I    between atoms: O2S_22  and  S1_111 
REMARK       I    between atoms: C1_25  and  O1_58 
REMARK       I    between atoms: C4_27  and  O1_58 
REMARK       I    between atoms: O2S_28  and  S1_48 
REMARK       I    between atoms: O3_32  and  C3_49 
REMARK       I    between atoms: O2_33  and  C2_70 
REMARK       I    between atoms: O2_33  and  S_133 
REMARK       I    between atoms: C5_37  and  C6_84 
REMARK       I    between atoms: C5_41  and  C6_43 
REMARK       I    between atoms: O6_42  and  C6_84 
REMARK       I    between atoms: O6_42  and  S2_77 
REMARK       I    between atoms: C5_44  and  C6_108 
REMARK       I    between atoms: O1_45  and  C1_120 
REMARK       I    between atoms: O1_45  and  C4_114 
REMARK       I    between atoms: S2_47  and  O6_94 
REMARK       I    between atoms: S1_48  and  N_53 
REMARK       I    between atoms: S1_48  and  O1S_52 
REMARK       I    between atoms: S1_48  and  O3S_83 
REMARK       I    between atoms: O3_50  and  C3_119 
REMARK       I    between atoms: N_53  and  C2_89 
REMARK       I    between atoms: S_55  and  O2_75 
REMARK       I    between atoms: O3_56  and  C3_124 
REMARK       I    between atoms: O1_59  and  C1_110 
REMARK       I    between atoms: S2_60  and  O6_132 
REMARK       I    between atoms: O3_61  and  C3_115 
REMARK       I    between atoms: C6_62  and  C5_106 
REMARK       I    between atoms: C6_62  and  O6_94 
REMARK       I    between atoms: C4_63  and  O1_96 
REMARK       I    between atoms: O3_67  and  C3_93 
REMARK       I    between atoms: O1_69  and  C1_113 
REMARK       I    between atoms: O1_69  and  C4_103 
REMARK       I    between atoms: C2_70  and  C1_76 
REMARK       I    between atoms: C5_74  and  C6_90 
REMARK       I    between atoms: C1_76  and  O1_96 
REMARK       I    between atoms: C4_78  and  O1_112 
REMARK       I    between atoms: C6_80  and  C5_134 
REMARK       I    between atoms: C6_80  and  O6_132 
REMARK       I    between atoms: C6_90  and  O6_117 
REMARK       I    between atoms: C2_98  and  N_128 
REMARK       I    between atoms: C1_100  and  O1_112 
REMARK       I    between atoms: S1_111  and  O1S_116 
REMARK       I    between atoms: C4_127  and  O1_130 
ROOT
ATOM      1  C5  IDS d 249      46.942  24.819   6.849  0.00  0.00     0.152 C 
ATOM      2  O2  IDS d 249      46.348  26.772   3.253  0.00  0.00    -0.244 OA
ATOM      3  O1S IDS d 249      44.886  28.648   3.773  0.00  0.00    -0.572 OA
ATOM      4  O5  IDS d 249      47.863  25.856   6.437  0.00  0.00    -0.340 OA
ATOM      5  O1  IDS d 249      48.716  25.150   4.419  0.00  0.00    -0.348 OA
ATOM      6  O62 IDS d 249      47.743  25.164   9.103  0.00  0.00    -0.646 OA
ATOM      7  O3  IDS d 249      44.158  25.629   5.115  0.00  0.00    -0.390 OA
ATOM      8  S   IDS d 249      46.230  28.385   3.286  0.00  0.00     0.252 S 
ATOM      9  C3  IDS d 249      45.389  26.173   5.344  0.00  0.00     0.094 C 
ATOM     10  C6  IDS d 249      47.277  24.382   8.292  0.00  0.00     0.206 C 
ATOM     11  O3S IDS d 249      46.430  28.829   1.924  0.00  0.00    -0.572 OA
ATOM     12  C2  IDS d 249      46.510  25.878   4.375  0.00  0.00     0.134 C 
ATOM     13  C1  IDS d 249      47.902  26.077   5.032  0.00  0.00     0.161 C 
ATOM     14  C4  IDS d 249      45.491  25.393   6.681  0.00  0.00     0.103 C 
ATOM     15  O2S IDS d 249      47.235  28.882   4.194  0.00  0.00    -0.572 OA
ATOM     16  O61 IDS d 249      47.084  23.222   8.654  0.00  0.00    -0.646 OA
ATOM     17  H   IDS d 249      47.021  23.936   6.250  0.00  0.00     0.104 H 
ATOM     18  H   IDS d 249      43.809  25.962   4.274  0.00  0.00     0.210 HD
ATOM     19  H   IDS d 249      45.480  27.238   5.292  0.00  0.00     0.091 H 
ATOM     20  H   IDS d 249      46.463  24.855   4.062  0.00  0.00     0.097 H 
ATOM     21  H   IDS d 249      48.252  27.080   4.908  0.00  0.00     0.133 H 
ATOM     22  H   IDS d 249      44.672  24.706   6.692  0.00  0.00     0.092 H 
ATOM     23  O3  SGN d 246      46.264  34.389  16.588  0.00  0.00    -0.215 OA
ATOM     24  S2  SGN d 246      42.467  38.812  13.565  0.00  0.00     0.251 S 
ATOM     25  O6S SGN d 246      43.654  38.820  12.756  0.00  0.00    -0.572 OA
ATOM     26  O2S SGN d 246      49.824  35.605  15.474  0.00  0.00    -0.294 OA
ATOM     27  C3  SGN d 246      45.660  34.546  15.323  0.00  0.00     0.121 C 
ATOM     28  C2  SGN d 246      46.562  35.381  14.403  0.00  0.00     0.084 C 
ATOM     29  O4S SGN d 246      41.259  38.677  12.794  0.00  0.00    -0.572 OA
ATOM     30  O5S SGN d 246      42.424  39.908  14.500  0.00  0.00    -0.572 OA
ATOM     31  N   SGN d 246      47.854  34.713  14.237  0.00  0.00    -0.208 NA
ATOM     32  C4  SGN d 246      44.358  35.283  15.488  0.00  0.00     0.095 C 
ATOM     33  O1  SGN d 246      45.618  34.307  12.390  0.00  0.00    -0.348 OA
ATOM     34  C5  SGN d 246      43.685  35.461  14.062  0.00  0.00     0.091 C 
ATOM     35  C6  SGN d 246      42.342  36.230  14.074  0.00  0.00     0.067 C 
ATOM     36  S1  SGN d 246      48.858  34.526  15.524  0.00  0.00     0.188 S 
ATOM     37  C1  SGN d 246      45.856  35.568  12.988  0.00  0.00     0.151 C 
ATOM     38  O1S SGN d 246      49.465  33.213  15.415  0.00  0.00    -0.294 OA
ATOM     39  O6  SGN d 246      42.569  37.560  14.456  0.00  0.00    -0.254 OA
ATOM     40  O5  SGN d 246      44.591  36.204  13.164  0.00  0.00    -0.349 OA
ATOM     41  O3S SGN d 246      47.986  34.627  16.674  0.00  0.00    -0.119 OA
ATOM     42  H   SGN d 246      50.387  35.499  14.691  0.00  0.00     0.231 HD
ATOM     43  H   SGN d 246      45.501  33.578  14.894  0.00  0.00     0.095 H 
ATOM     44  H   SGN d 246      46.724  36.343  14.843  0.00  0.00     0.077 H 
ATOM     45  H   SGN d 246      48.371  35.244  13.536  0.00  0.00     0.140 HD
ATOM     46  H   SGN d 246      44.497  36.260  15.901  0.00  0.00     0.091 H 
ATOM     47  H   SGN d 246      43.494  34.463  13.727  0.00  0.00     0.090 H 
ATOM     48  H   SGN d 246      41.672  35.768  14.770  0.00  0.00     0.080 H 
ATOM     49  H   SGN d 246      41.909  36.209  13.096  0.00  0.00     0.080 H 
ATOM     50  H   SGN d 246      46.498  36.159  12.370  0.00  0.00     0.131 H 
ATOM     51  H   SGN d 246      50.041  33.186  14.635  0.00  0.00     0.231 HD
ATOM     52  O3  SGN d 250      50.517  23.655   5.985  0.00  0.00    -0.391 OA
ATOM     53  O5S SGN d 250      50.525  28.357  -0.669  0.00  0.00    -0.572 OA
ATOM     54  C4  SGN d 250      50.110  25.389   4.347  0.00  0.00     0.095 C 
ATOM     55  S1  SGN d 250      53.627  22.557   6.296  0.00  0.00     0.156 S 
ATOM     56  O3S SGN d 250      55.062  22.390   6.103  0.00  0.00    -0.296 OA
ATOM     57  C1  SGN d 250      52.592  24.729   3.029  0.00  0.00     0.150 C 
ATOM     58  O2S SGN d 250      52.957  21.293   6.642  0.00  0.00    -0.296 OA
ATOM     59  C5  SGN d 250      50.482  25.858   2.899  0.00  0.00     0.091 C 
ATOM     60  O6  SGN d 250      49.540  27.195   1.152  0.00  0.00    -0.254 OA
ATOM     61  O1S SGN d 250      53.340  23.643   7.220  0.00  0.00    -0.296 OA
ATOM     62  O1  SGN d 250      51.849  23.827   2.231  0.00  0.00    -0.348 OA
ATOM     63  S2  SGN d 250      49.414  28.457   0.239  0.00  0.00     0.251 S 
ATOM     64  C6  SGN d 250      49.833  27.194   2.517  0.00  0.00     0.067 C 
ATOM     65  C3  SGN d 250      50.834  24.062   4.660  0.00  0.00     0.083 C 
ATOM     66  C2  SGN d 250      52.369  24.277   4.525  0.00  0.00     0.081 C 
ATOM     67  O6S SGN d 250      48.133  28.329  -0.442  0.00  0.00    -0.572 OA
ATOM     68  O5  SGN d 250      51.951  25.996   2.799  0.00  0.00    -0.349 OA
ATOM     69  O4S SGN d 250      49.497  29.625   1.101  0.00  0.00    -0.572 OA
ATOM     70  N   SGN d 250      53.060  22.972   4.786  0.00  0.00    -0.210 NA
ATOM     71  H   SGN d 250      49.559  23.524   6.062  0.00  0.00     0.210 HD
ATOM     72  H   SGN d 250      50.400  26.148   5.044  0.00  0.00     0.091 H 
ATOM     73  H   SGN d 250      55.460  23.245   5.877  0.00  0.00     0.231 HD
ATOM     74  H   SGN d 250      53.641  24.770   2.818  0.00  0.00     0.131 H 
ATOM     75  H   SGN d 250      52.008  21.452   6.760  0.00  0.00     0.231 HD
ATOM     76  H   SGN d 250      50.112  25.116   2.222  0.00  0.00     0.090 H 
ATOM     77  H   SGN d 250      52.380  23.730   7.328  0.00  0.00     0.231 HD
ATOM     78  H   SGN d 250      50.509  27.994   2.738  0.00  0.00     0.080 H 
ATOM     79  H   SGN d 250      48.931  27.325   3.076  0.00  0.00     0.080 H 
ATOM     80  H   SGN d 250      50.520  23.302   3.975  0.00  0.00     0.089 H 
ATOM     81  H   SGN d 250      52.753  25.000   5.213  0.00  0.00     0.076 H 
ATOM     82  H   SGN d 250      52.400  22.242   4.518  0.00  0.00     0.140 HD
ATOM     83  C1  SGN d 252      48.328  20.331  -4.282  0.00  0.00     0.147 C 
ATOM     84  C2  SGN d 252      48.141  21.546  -3.344  0.00  0.00     0.081 C 
ATOM     85  S1  SGN d 252      46.809  23.555  -4.596  0.00  0.00     0.156 S 
ATOM     86  O3  SGN d 252      49.078  22.598  -1.458  0.00  0.00    -0.391 OA
ATOM     87  O2S SGN d 252      46.299  24.201  -3.404  0.00  0.00    -0.296 OA
ATOM     88  O1  SGN d 252      49.602  20.444  -4.949  0.00  0.00    -0.369 OA
ATOM     89  S2  SGN d 252      47.045  16.779  -0.253  0.00  0.00     0.251 S 
ATOM     90  C3  SGN d 252      49.248  21.504  -2.295  0.00  0.00     0.083 C 
ATOM     91  C6  SGN d 252      49.062  17.596  -1.837  0.00  0.00     0.067 C 
ATOM     92  O6S SGN d 252      46.502  16.210  -1.482  0.00  0.00    -0.572 OA
ATOM     93  O1S SGN d 252      45.918  22.534  -5.113  0.00  0.00    -0.296 OA
ATOM     94  O3S SGN d 252      47.190  24.521  -5.625  0.00  0.00    -0.296 OA
ATOM     95  N   SGN d 252      48.221  22.804  -4.144  0.00  0.00    -0.210 NA
ATOM     96  O5  SGN d 252      48.258  19.095  -3.517  0.00  0.00    -0.350 OA
ATOM     97  O6  SGN d 252      48.250  17.713  -0.687  0.00  0.00    -0.254 OA
ATOM     98  O5S SGN d 252      46.113  17.693   0.399  0.00  0.00    -0.572 OA
ATOM     99  C5  SGN d 252      49.243  18.983  -2.466  0.00  0.00     0.091 C 
ATOM    100  C4  SGN d 252      49.106  20.175  -1.467  0.00  0.00     0.095 C 
ATOM    101  O4S SGN d 252      47.580  15.773   0.655  0.00  0.00    -0.572 OA
ATOM    102  H   SGN d 252      47.548  20.315  -5.015  0.00  0.00     0.131 H 
ATOM    103  H   SGN d 252      47.186  21.515  -2.862  0.00  0.00     0.076 H 
ATOM    104  H   SGN d 252      49.166  23.416  -1.972  0.00  0.00     0.210 HD
ATOM    105  H   SGN d 252      46.059  23.528  -2.749  0.00  0.00     0.231 HD
ATOM    106  H   SGN d 252      50.312  20.459  -4.287  0.00  0.00     0.212 HD
ATOM    107  H   SGN d 252      50.215  21.535  -2.751  0.00  0.00     0.089 H 
ATOM    108  H   SGN d 252      50.017  17.200  -1.562  0.00  0.00     0.080 H 
ATOM    109  H   SGN d 252      48.598  16.938  -2.541  0.00  0.00     0.080 H 
ATOM    110  H   SGN d 252      45.689  21.914  -4.402  0.00  0.00     0.231 HD
ATOM    111  H   SGN d 252      47.524  24.049  -6.403  0.00  0.00     0.231 HD
ATOM    112  H   SGN d 252      48.730  22.583  -5.000  0.00  0.00     0.140 HD
ATOM    113  H   SGN d 252      50.246  19.054  -2.830  0.00  0.00     0.090 H 
ATOM    114  H   SGN d 252      48.164  20.170  -0.958  0.00  0.00     0.091 H 
ATOM    115  C3  IDS d 245      41.690  36.115  19.051  0.00  0.00     0.044 C 
ATOM    116  O2S IDS d 245      39.843  33.967  15.449  0.00  0.00    -0.572 OA
ATOM    117  O2  IDS d 245      41.137  35.524  16.823  0.00  0.00    -0.247 OA
ATOM    118  O3S IDS d 245      38.938  34.828  17.525  0.00  0.00    -0.572 OA
ATOM    119  O3  IDS d 245      40.330  36.167  19.411  0.00  0.00    -0.398 OA
ATOM    120  C2  IDS d 245      41.878  35.098  17.965  0.00  0.00     0.100 C 
ATOM    121  C1  IDS d 245      43.351  35.082  17.647  0.00  0.00     0.048 C 
ATOM    122  O1  IDS d 245      43.541  34.512  16.377  0.00  0.00    -0.378 OA
ATOM    123  O1S IDS d 245      39.220  36.291  15.622  0.00  0.00    -0.572 OA
ATOM    124  S   IDS d 245      39.699  35.112  16.331  0.00  0.00     0.252 S 
ATOM    125  H   IDS d 245      42.003  37.076  18.700  0.00  0.00     0.078 H 
ATOM    126  H   IDS d 245      42.275  35.840  19.904  0.00  0.00     0.078 H 
ATOM    127  H   IDS d 245      39.799  36.416  18.639  0.00  0.00     0.209 HD
ATOM    128  H   IDS d 245      41.544  34.125  18.256  0.00  0.00     0.092 H 
ATOM    129  H   IDS d 245      43.871  34.502  18.381  0.00  0.00     0.078 H 
ATOM    130  H   IDS d 245      43.733  36.082  17.654  0.00  0.00     0.078 H 
ATOM    131  C2  IDS d 247      47.771  31.666  11.259  0.00  0.00     0.134 C 
ATOM    132  O2  IDS d 247      48.804  30.981  12.000  0.00  0.00    -0.244 OA
ATOM    133  S   IDS d 247      50.416  31.035  11.789  0.00  0.00     0.252 S 
ATOM    134  C5  IDS d 247      45.459  32.887  10.457  0.00  0.00     0.152 C 
ATOM    135  O1S IDS d 247      50.578  31.432  10.404  0.00  0.00    -0.572 OA
ATOM    136  O3  IDS d 247      48.774  33.772  11.817  0.00  0.00    -0.390 OA
ATOM    137  O3S IDS d 247      50.927  29.686  12.048  0.00  0.00    -0.572 OA
ATOM    138  O62 IDS d 247      43.059  32.971  10.631  0.00  0.00    -0.646 OA
ATOM    139  O61 IDS d 247      43.936  34.490   9.504  0.00  0.00    -0.646 OA
ATOM    140  O5  IDS d 247      45.301  31.642  11.185  0.00  0.00    -0.340 OA
ATOM    141  O2S IDS d 247      50.945  32.027  12.702  0.00  0.00    -0.572 OA
ATOM    142  C1  IDS d 247      46.475  30.831  11.284  0.00  0.00     0.161 C 
ATOM    143  C4  IDS d 247      46.401  33.842  11.294  0.00  0.00     0.103 C 
ATOM    144  C6  IDS d 247      44.065  33.481  10.179  0.00  0.00     0.206 C 
ATOM    145  O1  IDS d 247      46.576  29.947  10.227  0.00  0.00    -0.348 OA
ATOM    146  C3  IDS d 247      47.567  33.024  11.907  0.00  0.00     0.094 C 
ATOM    147  H   IDS d 247      48.049  31.796  10.234  0.00  0.00     0.097 H 
ATOM    148  H   IDS d 247      45.926  32.739   9.505  0.00  0.00     0.104 H 
ATOM    149  H   IDS d 247      49.502  33.259  12.202  0.00  0.00     0.210 HD
ATOM    150  H   IDS d 247      46.374  30.318  12.217  0.00  0.00     0.133 H 
ATOM    151  H   IDS d 247      46.784  34.626  10.674  0.00  0.00     0.092 H 
ATOM    152  H   IDS d 247      47.301  32.842  12.928  0.00  0.00     0.091 H 
ATOM    153  C2  IDS d 251      51.465  20.355   1.531  0.00  0.00     0.134 C 
ATOM    154  C1  IDS d 251      50.182  20.794   0.771  0.00  0.00     0.161 C 
ATOM    155  O62 IDS d 251      52.255  24.740  -1.024  0.00  0.00    -0.646 OA
ATOM    156  C4  IDS d 251      52.383  22.787   1.516  0.00  0.00     0.103 C 
ATOM    157  C5  IDS d 251      51.523  22.770   0.216  0.00  0.00     0.152 C 
ATOM    158  C6  IDS d 251      51.344  24.187  -0.431  0.00  0.00     0.206 C 
ATOM    159  S   IDS d 251      49.944  19.237   3.535  0.00  0.00     0.252 S 
ATOM    160  O3  IDS d 251      53.266  21.064   2.964  0.00  0.00    -0.390 OA
ATOM    161  O61 IDS d 251      50.268  24.787  -0.348  0.00  0.00    -0.646 OA
ATOM    162  O3S IDS d 251      49.979  17.879   4.022  0.00  0.00    -0.572 OA
ATOM    163  O2  IDS d 251      51.162  19.321   2.471  0.00  0.00    -0.244 OA
ATOM    164  O2S IDS d 251      48.710  19.563   2.843  0.00  0.00    -0.572 OA
ATOM    165  O5  IDS d 251      50.204  22.217   0.567  0.00  0.00    -0.340 OA
ATOM    166  C3  IDS d 251      52.078  21.510   2.337  0.00  0.00     0.094 C 
ATOM    167  O1S IDS d 251      50.271  20.217   4.562  0.00  0.00    -0.572 OA
ATOM    168  O1  IDS d 251      50.191  20.061  -0.469  0.00  0.00    -0.348 OA
ATOM    169  H   IDS d 251      52.153  20.020   0.784  0.00  0.00     0.097 H 
ATOM    170  H   IDS d 251      49.286  20.583   1.314  0.00  0.00     0.133 H 
ATOM    171  H   IDS d 251      53.432  22.857   1.315  0.00  0.00     0.092 H 
ATOM    172  H   IDS d 251      52.029  22.174  -0.514  0.00  0.00     0.104 H 
ATOM    173  H   IDS d 251      53.078  20.265   3.480  0.00  0.00     0.210 HD
ATOM    174  H   IDS d 251      51.334  21.793   3.052  0.00  0.00     0.091 H 
ATOM    175  O5S SGN d 248      44.509  29.687  12.580  0.00  0.00    -0.572 OA
ATOM    176  O4S SGN d 248      44.390  27.831  14.129  0.00  0.00    -0.572 OA
ATOM    177  O2S SGN d 248      41.625  27.272   5.558  0.00  0.00    -0.296 OA
ATOM    178  O1  SGN d 248      45.647  26.453   7.869  0.00  0.00    -0.348 OA
ATOM    179  S1  SGN d 248      41.735  27.904   6.866  0.00  0.00     0.156 S 
ATOM    180  O3  SGN d 248      44.384  30.310   8.538  0.00  0.00    -0.391 OA
ATOM    181  O1S SGN d 248      41.177  29.239   6.917  0.00  0.00    -0.296 OA
ATOM    182  N   SGN d 248      43.362  28.016   7.156  0.00  0.00    -0.210 NA
ATOM    183  S2  SGN d 248      44.711  28.263  12.781  0.00  0.00     0.251 S 
ATOM    184  C4  SGN d 248      45.585  28.935  10.110  0.00  0.00     0.095 C 
ATOM    185  C6  SGN d 248      46.864  27.267  11.645  0.00  0.00     0.067 C 
ATOM    186  O6S SGN d 248      44.079  27.455  11.757  0.00  0.00    -0.572 OA
ATOM    187  O3S SGN d 248      41.197  27.070   7.923  0.00  0.00    -0.296 OA
ATOM    188  O5  SGN d 248      45.194  26.491  10.067  0.00  0.00    -0.349 OA
ATOM    189  C2  SGN d 248      43.922  27.941   8.535  0.00  0.00     0.081 C 
ATOM    190  C3  SGN d 248      44.985  29.037   8.707  0.00  0.00     0.083 C 
ATOM    191  C1  SGN d 248      44.615  26.557   8.767  0.00  0.00     0.150 C 
ATOM    192  O6  SGN d 248      46.239  28.075  12.593  0.00  0.00    -0.254 OA
ATOM    193  C5  SGN d 248      46.228  27.514  10.267  0.00  0.00     0.091 C 
ATOM    194  H   SGN d 248      41.995  27.861   4.881  0.00  0.00     0.231 HD
ATOM    195  H   SGN d 248      45.055  31.002   8.646  0.00  0.00     0.210 HD
ATOM    196  H   SGN d 248      41.553  29.774   6.201  0.00  0.00     0.231 HD
ATOM    197  H   SGN d 248      43.660  28.914   6.774  0.00  0.00     0.140 HD
ATOM    198  H   SGN d 248      44.845  29.068  10.871  0.00  0.00     0.091 H 
ATOM    199  H   SGN d 248      47.906  27.505  11.604  0.00  0.00     0.080 H 
ATOM    200  H   SGN d 248      46.744  26.239  11.915  0.00  0.00     0.080 H 
ATOM    201  H   SGN d 248      41.587  26.184   7.866  0.00  0.00     0.231 HD
ATOM    202  H   SGN d 248      43.123  28.069   9.235  0.00  0.00     0.076 H 
ATOM    203  H   SGN d 248      45.756  28.910   7.976  0.00  0.00     0.089 H 
ATOM    204  H   SGN d 248      43.887  25.781   8.657  0.00  0.00     0.131 H 
ATOM    205  H   SGN d 248      47.006  27.459   9.535  0.00  0.00     0.090 H 
ENDROOT
TORSDOF 64
ENDMDL
MODEL 15
REMARK VINA RESULT:      -3.2      3.608     18.233
REMARK  0 active torsions:
REMARK  status: ('A' for Active; 'I' for Inactive)
REMARK       I    between atoms: C5_1  and  C6_97 
REMARK       I    between atoms: O2_2  and  C2_107 
REMARK       I    between atoms: O2_2  and  S_88 
REMARK       I    between atoms: O3_4  and  C3_95 
REMARK       I    between atoms: C1_5  and  O1_40 
REMARK       I    between atoms: C3_6  and  C2_70 
REMARK       I    between atoms: C3_6  and  O3_51 
REMARK       I    between atoms: C2_7  and  O2_9 
REMARK       I    between atoms: C2_8  and  O2_75 
REMARK       I    between atoms: O2_9  and  S_23 
REMARK       I    between atoms: S2_14  and  O6_117 
REMARK       I    between atoms: C1_15  and  O1_130 
REMARK       I    between atoms: C4_16  and  O1_59 
REMARK       I    between atoms: S1_17  and  N_128 
REMARK       I    between atoms: S1_17  and  O1S_46 
REMARK       I    between atoms: S1_17  and  O2S_29 
REMARK       I    between atoms: S1_17  and  O3S_24 
REMARK       I    between atoms: C2_18  and  N_86 
REMARK       I    between atoms: S1_19  and  N_86 
REMARK       I    between atoms: S1_19  and  O1S_71 
REMARK       I    between atoms: S1_19  and  O2S_34 
REMARK       I    between atoms: S1_19  and  O3S_81 
REMARK       I    between atoms: O2S_22  and  S1_111 
REMARK       I    between atoms: C1_25  and  O1_58 
REMARK       I    between atoms: C4_27  and  O1_58 
REMARK       I    between atoms: O2S_28  and  S1_48 
REMARK       I    between atoms: O3_32  and  C3_49 
REMARK       I    between atoms: O2_33  and  C2_70 
REMARK       I    between atoms: O2_33  and  S_133 
REMARK       I    between atoms: C5_37  and  C6_84 
REMARK       I    between atoms: C5_41  and  C6_43 
REMARK       I    between atoms: O6_42  and  C6_84 
REMARK       I    between atoms: O6_42  and  S2_77 
REMARK       I    between atoms: C5_44  and  C6_108 
REMARK       I    between atoms: O1_45  and  C1_120 
REMARK       I    between atoms: O1_45  and  C4_114 
REMARK       I    between atoms: S2_47  and  O6_94 
REMARK       I    between atoms: S1_48  and  N_53 
REMARK       I    between atoms: S1_48  and  O1S_52 
REMARK       I    between atoms: S1_48  and  O3S_83 
REMARK       I    between atoms: O3_50  and  C3_119 
REMARK       I    between atoms: N_53  and  C2_89 
REMARK       I    between atoms: S_55  and  O2_75 
REMARK       I    between atoms: O3_56  and  C3_124 
REMARK       I    between atoms: O1_59  and  C1_110 
REMARK       I    between atoms: S2_60  and  O6_132 
REMARK       I    between atoms: O3_61  and  C3_115 
REMARK       I    between atoms: C6_62  and  C5_106 
REMARK       I    between atoms: C6_62  and  O6_94 
REMARK       I    between atoms: C4_63  and  O1_96 
REMARK       I    between atoms: O3_67  and  C3_93 
REMARK       I    between atoms: O1_69  and  C1_113 
REMARK       I    between atoms: O1_69  and  C4_103 
REMARK       I    between atoms: C2_70  and  C1_76 
REMARK       I    between atoms: C5_74  and  C6_90 
REMARK       I    between atoms: C1_76  and  O1_96 
REMARK       I    between atoms: C4_78  and  O1_112 
REMARK       I    between atoms: C6_80  and  C5_134 
REMARK       I    between atoms: C6_80  and  O6_132 
REMARK       I    between atoms: C6_90  and  O6_117 
REMARK       I    between atoms: C2_98  and  N_128 
REMARK       I    between atoms: C1_100  and  O1_112 
REMARK       I    between atoms: S1_111  and  O1S_116 
REMARK       I    between atoms: C4_127  and  O1_130 
ROOT
ATOM      1  C5  IDS d 249      49.599  26.388   5.133  0.00  0.00     0.152 C 
ATOM      2  O2  IDS d 249      51.226  22.866   6.564  0.00  0.00    -0.244 OA
ATOM      3  O1S IDS d 249      52.206  23.437   8.718  0.00  0.00    -0.572 OA
ATOM      4  O5  IDS d 249      48.783  25.490   5.921  0.00  0.00    -0.340 OA
ATOM      5  O1  IDS d 249      48.780  23.496   4.770  0.00  0.00    -0.348 OA
ATOM      6  O62 IDS d 249      48.020  28.129   5.690  0.00  0.00    -0.646 OA
ATOM      7  O3  IDS d 249      52.718  25.538   6.117  0.00  0.00    -0.390 OA
ATOM      8  S   IDS d 249      51.156  22.601   8.158  0.00  0.00     0.252 S 
ATOM      9  C3  IDS d 249      51.437  25.232   6.474  0.00  0.00     0.094 C 
ATOM     10  C6  IDS d 249      48.821  27.697   4.880  0.00  0.00     0.206 C 
ATOM     11  O3S IDS d 249      51.409  21.188   8.340  0.00  0.00    -0.572 OA
ATOM     12  C2  IDS d 249      50.770  24.031   5.844  0.00  0.00     0.134 C 
ATOM     13  C1  IDS d 249      49.222  24.138   5.907  0.00  0.00     0.161 C 
ATOM     14  C4  IDS d 249      50.948  26.592   5.909  0.00  0.00     0.103 C 
ATOM     15  O2S IDS d 249      49.850  23.004   8.616  0.00  0.00    -0.572 OA
ATOM     16  O61 IDS d 249      48.992  28.334   3.841  0.00  0.00    -0.646 OA
ATOM     17  H   IDS d 249      49.830  25.992   4.166  0.00  0.00     0.104 H 
ATOM     18  H   IDS d 249      53.307  24.809   6.366  0.00  0.00     0.210 HD
ATOM     19  H   IDS d 249      51.260  24.934   7.486  0.00  0.00     0.091 H 
ATOM     20  H   IDS d 249      51.030  23.970   4.808  0.00  0.00     0.097 H 
ATOM     21  H   IDS d 249      48.838  23.701   6.804  0.00  0.00     0.133 H 
ATOM     22  H   IDS d 249      51.777  27.013   5.381  0.00  0.00     0.092 H 
ATOM     23  O3  SGN d 246      45.782  33.602  16.100  0.00  0.00    -0.215 OA
ATOM     24  S2  SGN d 246      49.924  31.149  20.565  0.00  0.00     0.251 S 
ATOM     25  O6S SGN d 246      49.108  30.012  20.244  0.00  0.00    -0.572 OA
ATOM     26  O2S SGN d 246      42.743  31.153  16.504  0.00  0.00    -0.294 OA
ATOM     27  C3  SGN d 246      46.776  32.603  16.154  0.00  0.00     0.121 C 
ATOM     28  C2  SGN d 246      46.178  31.285  16.668  0.00  0.00     0.084 C 
ATOM     29  O4S SGN d 246      51.335  30.865  20.515  0.00  0.00    -0.572 OA
ATOM     30  O5S SGN d 246      49.519  31.798  21.786  0.00  0.00    -0.572 OA
ATOM     31  N   SGN d 246      45.105  30.846  15.774  0.00  0.00    -0.208 NA
ATOM     32  C4  SGN d 246      47.850  33.030  17.117  0.00  0.00     0.095 C 
ATOM     33  O1  SGN d 246      47.880  29.964  15.464  0.00  0.00    -0.348 OA
ATOM     34  C5  SGN d 246      48.963  31.901  17.178  0.00  0.00     0.091 C 
ATOM     35  C6  SGN d 246      50.128  32.195  18.155  0.00  0.00     0.067 C 
ATOM     36  S1  SGN d 246      43.735  31.740  15.626  0.00  0.00     0.188 S 
ATOM     37  C1  SGN d 246      47.317  30.175  16.745  0.00  0.00     0.151 C 
ATOM     38  O1S SGN d 246      43.345  31.712  14.229  0.00  0.00    -0.294 OA
ATOM     39  O6  SGN d 246      49.643  32.197  19.471  0.00  0.00    -0.254 OA
ATOM     40  O5  SGN d 246      48.364  30.622  17.605  0.00  0.00    -0.349 OA
ATOM     41  O3S SGN d 246      44.126  33.065  16.053  0.00  0.00    -0.119 OA
ATOM     42  H   SGN d 246      42.510  30.268  16.183  0.00  0.00     0.231 HD
ATOM     43  H   SGN d 246      47.175  32.461  15.171  0.00  0.00     0.095 H 
ATOM     44  H   SGN d 246      45.771  31.438  17.646  0.00  0.00     0.077 H 
ATOM     45  H   SGN d 246      44.819  29.919  16.092  0.00  0.00     0.140 HD
ATOM     46  H   SGN d 246      47.474  33.163  18.109  0.00  0.00     0.091 H 
ATOM     47  H   SGN d 246      49.363  31.862  16.186  0.00  0.00     0.090 H 
ATOM     48  H   SGN d 246      50.551  33.152  17.929  0.00  0.00     0.080 H 
ATOM     49  H   SGN d 246      50.879  31.440  18.052  0.00  0.00     0.080 H 
ATOM     50  H   SGN d 246      46.878  29.272  17.114  0.00  0.00     0.131 H 
ATOM     51  H   SGN d 246      43.090  30.809  13.982  0.00  0.00     0.231 HD
ATOM     52  O3  SGN d 250      46.706  24.656   3.260  0.00  0.00    -0.391 OA
ATOM     53  O5S SGN d 250      48.573  17.549   6.779  0.00  0.00    -0.572 OA
ATOM     54  C4  SGN d 250      47.485  22.922   4.756  0.00  0.00     0.095 C 
ATOM     55  S1  SGN d 250      43.819  24.147   1.716  0.00  0.00     0.156 S 
ATOM     56  O3S SGN d 250      42.571  23.532   1.280  0.00  0.00    -0.296 OA
ATOM     57  C1  SGN d 250      45.716  21.028   3.486  0.00  0.00     0.150 C 
ATOM     58  O2S SGN d 250      44.450  24.949   0.654  0.00  0.00    -0.296 OA
ATOM     59  C5  SGN d 250      47.605  21.368   4.920  0.00  0.00     0.091 C 
ATOM     60  O6  SGN d 250      48.962  19.792   6.104  0.00  0.00    -0.254 OA
ATOM     61  O1S SGN d 250      43.646  24.869   2.967  0.00  0.00    -0.296 OA
ATOM     62  O1  SGN d 250      46.783  20.724   2.608  0.00  0.00    -0.348 OA
ATOM     63  S2  SGN d 250      49.273  18.731   7.208  0.00  0.00     0.251 S 
ATOM     64  C6  SGN d 250      48.205  20.953   6.269  0.00  0.00     0.067 C 
ATOM     65  C3  SGN d 250      46.839  23.248   3.392  0.00  0.00     0.083 C 
ATOM     66  C2  SGN d 250      45.439  22.574   3.321  0.00  0.00     0.081 C 
ATOM     67  O6S SGN d 250      50.718  18.551   7.191  0.00  0.00    -0.572 OA
ATOM     68  O5  SGN d 250      46.261  20.765   4.790  0.00  0.00    -0.349 OA
ATOM     69  O4S SGN d 250      48.769  19.256   8.467  0.00  0.00    -0.572 OA
ATOM     70  N   SGN d 250      44.839  22.857   1.976  0.00  0.00    -0.210 NA
ATOM     71  H   SGN d 250      47.582  25.070   3.306  0.00  0.00     0.210 HD
ATOM     72  H   SGN d 250      46.890  23.312   5.556  0.00  0.00     0.091 H 
ATOM     73  H   SGN d 250      42.194  23.016   2.009  0.00  0.00     0.231 HD
ATOM     74  H   SGN d 250      44.812  20.480   3.315  0.00  0.00     0.131 H 
ATOM     75  H   SGN d 250      45.273  25.337   0.988  0.00  0.00     0.231 HD
ATOM     76  H   SGN d 250      48.266  21.020   4.154  0.00  0.00     0.090 H 
ATOM     77  H   SGN d 250      44.490  25.266   3.231  0.00  0.00     0.231 HD
ATOM     78  H   SGN d 250      47.417  20.769   6.968  0.00  0.00     0.080 H 
ATOM     79  H   SGN d 250      48.832  21.738   6.637  0.00  0.00     0.080 H 
ATOM     80  H   SGN d 250      47.453  22.877   2.598  0.00  0.00     0.089 H 
ATOM     81  H   SGN d 250      44.763  22.931   4.068  0.00  0.00     0.076 H 
ATOM     82  H   SGN d 250      45.623  22.979   1.334  0.00  0.00     0.140 HD
ATOM     83  C1  SGN d 252      52.728  16.605  -1.230  0.00  0.00     0.147 C 
ATOM     84  C2  SGN d 252      52.443  17.279   0.132  0.00  0.00     0.081 C 
ATOM     85  S1  SGN d 252      53.917  16.148   2.113  0.00  0.00     0.156 S 
ATOM     86  O3  SGN d 252      50.795  18.492   1.296  0.00  0.00    -0.391 OA
ATOM     87  O2S SGN d 252      53.901  17.280   3.017  0.00  0.00    -0.296 OA
ATOM     88  O1  SGN d 252      51.769  15.549  -1.440  0.00  0.00    -0.369 OA
ATOM     89  S2  SGN d 252      52.857  21.476  -3.830  0.00  0.00     0.251 S 
ATOM     90  C3  SGN d 252      51.047  17.890   0.071  0.00  0.00     0.083 C 
ATOM     91  C6  SGN d 252      51.462  19.184  -3.627  0.00  0.00     0.067 C 
ATOM     92  O6S SGN d 252      53.857  20.639  -4.487  0.00  0.00    -0.572 OA
ATOM     93  O1S SGN d 252      55.034  16.176   1.189  0.00  0.00    -0.296 OA
ATOM     94  O3S SGN d 252      53.829  14.875   2.825  0.00  0.00    -0.296 OA
ATOM     95  N   SGN d 252      52.523  16.256   1.216  0.00  0.00    -0.210 NA
ATOM     96  O5  SGN d 252      52.649  17.590  -2.299  0.00  0.00    -0.350 OA
ATOM     97  O6  SGN d 252      51.796  20.485  -3.195  0.00  0.00    -0.254 OA
ATOM     98  O5S SGN d 252      53.398  22.193  -2.681  0.00  0.00    -0.572 OA
ATOM     99  C5  SGN d 252      51.373  18.257  -2.408  0.00  0.00     0.091 C 
ATOM    100  C4  SGN d 252      51.022  18.976  -1.067  0.00  0.00     0.095 C 
ATOM    101  O4S SGN d 252      52.142  22.344  -4.756  0.00  0.00    -0.572 OA
ATOM    102  H   SGN d 252      53.715  16.190  -1.230  0.00  0.00     0.131 H 
ATOM    103  H   SGN d 252      53.162  18.044   0.339  0.00  0.00     0.076 H 
ATOM    104  H   SGN d 252      50.810  17.819   1.995  0.00  0.00     0.210 HD
ATOM    105  H   SGN d 252      53.961  18.102   2.506  0.00  0.00     0.231 HD
ATOM    106  H   SGN d 252      50.874  15.921  -1.441  0.00  0.00     0.212 HD
ATOM    107  H   SGN d 252      50.306  17.146  -0.135  0.00  0.00     0.089 H 
ATOM    108  H   SGN d 252      50.517  19.205  -4.131  0.00  0.00     0.080 H 
ATOM    109  H   SGN d 252      52.211  18.824  -4.301  0.00  0.00     0.080 H 
ATOM    110  H   SGN d 252      55.059  17.035   0.737  0.00  0.00     0.231 HD
ATOM    111  H   SGN d 252      53.843  14.146   2.187  0.00  0.00     0.231 HD
ATOM    112  H   SGN d 252      52.376  15.345   0.779  0.00  0.00     0.140 HD
ATOM    113  H   SGN d 252      50.563  17.577  -2.566  0.00  0.00     0.090 H 
ATOM    114  H   SGN d 252      51.717  19.755  -0.832  0.00  0.00     0.091 H 
ATOM    115  C3  IDS d 245      48.978  37.019  18.941  0.00  0.00     0.044 C 
ATOM    116  O2S IDS d 245      52.195  34.753  16.593  0.00  0.00    -0.572 OA
ATOM    117  O2  IDS d 245      50.344  35.270  18.107  0.00  0.00    -0.247 OA
ATOM    118  O3S IDS d 245      52.210  36.785  17.913  0.00  0.00    -0.572 OA
ATOM    119  O3  IDS d 245      50.109  37.787  19.278  0.00  0.00    -0.398 OA
ATOM    120  C2  IDS d 245      49.294  36.167  17.748  0.00  0.00     0.100 C 
ATOM    121  C1  IDS d 245      48.040  35.392  17.433  0.00  0.00     0.048 C 
ATOM    122  O1  IDS d 245      48.373  34.278  16.646  0.00  0.00    -0.378 OA
ATOM    123  O1S IDS d 245      52.472  34.636  18.986  0.00  0.00    -0.572 OA
ATOM    124  S   IDS d 245      51.897  35.375  17.871  0.00  0.00     0.252 S 
ATOM    125  H   IDS d 245      48.713  36.393  19.767  0.00  0.00     0.078 H 
ATOM    126  H   IDS d 245      48.160  37.669  18.710  0.00  0.00     0.078 H 
ATOM    127  H   IDS d 245      50.850  37.198  19.488  0.00  0.00     0.209 HD
ATOM    128  H   IDS d 245      49.602  36.746  16.904  0.00  0.00     0.092 H 
ATOM    129  H   IDS d 245      47.357  36.018  16.897  0.00  0.00     0.078 H 
ATOM    130  H   IDS d 245      47.580  35.067  18.342  0.00  0.00     0.078 H 
ATOM    131  C2  IDS d 247      46.555  28.760  12.352  0.00  0.00     0.134 C 
ATOM    132  O2  IDS d 247      45.403  29.245  11.629  0.00  0.00    -0.244 OA
ATOM    133  S   IDS d 247      43.975  28.509  11.376  0.00  0.00     0.252 S 
ATOM    134  C5  IDS d 247      48.862  28.529  13.803  0.00  0.00     0.152 C 
ATOM    135  O1S IDS d 247      44.275  27.098  11.515  0.00  0.00    -0.572 OA
ATOM    136  O3  IDS d 247      45.207  28.509  14.320  0.00  0.00    -0.390 OA
ATOM    137  O3S IDS d 247      43.547  28.859  10.018  0.00  0.00    -0.572 OA
ATOM    138  O62 IDS d 247      51.021  29.461  14.318  0.00  0.00    -0.646 OA
ATOM    139  O61 IDS d 247      50.449  27.820  15.469  0.00  0.00    -0.646 OA
ATOM    140  O5  IDS d 247      48.878  29.509  12.734  0.00  0.00    -0.340 OA
ATOM    141  O2S IDS d 247      43.057  28.971  12.395  0.00  0.00    -0.572 OA
ATOM    142  C1  IDS d 247      47.836  29.383  11.763  0.00  0.00     0.161 C 
ATOM    143  C4  IDS d 247      47.590  28.792  14.706  0.00  0.00     0.103 C 
ATOM    144  C6  IDS d 247      50.194  28.608  14.572  0.00  0.00     0.206 C 
ATOM    145  O1  IDS d 247      48.210  28.559  10.718  0.00  0.00    -0.348 OA
ATOM    146  C3  IDS d 247      46.374  29.144  13.810  0.00  0.00     0.094 C 
ATOM    147  H   IDS d 247      46.647  27.697  12.269  0.00  0.00     0.097 H 
ATOM    148  H   IDS d 247      48.780  27.529  13.430  0.00  0.00     0.104 H 
ATOM    149  H   IDS d 247      44.447  28.729  13.758  0.00  0.00     0.210 HD
ATOM    150  H   IDS d 247      47.652  30.382  11.429  0.00  0.00     0.133 H 
ATOM    151  H   IDS d 247      47.373  27.933  15.306  0.00  0.00     0.092 H 
ATOM    152  H   IDS d 247      46.278  30.209  13.839  0.00  0.00     0.091 H 
ATOM    153  C2  IDS d 251      47.747  20.924  -0.816  0.00  0.00     0.134 C 
ATOM    154  C1  IDS d 251      49.164  20.555  -0.293  0.00  0.00     0.161 C 
ATOM    155  O62 IDS d 251      47.467  17.403   2.912  0.00  0.00    -0.646 OA
ATOM    156  C4  IDS d 251      46.648  20.105   1.393  0.00  0.00     0.103 C 
ATOM    157  C5  IDS d 251      47.911  19.194   1.316  0.00  0.00     0.152 C 
ATOM    158  C6  IDS d 251      48.160  18.363   2.622  0.00  0.00     0.206 C 
ATOM    159  S   IDS d 251      48.565  23.502  -1.329  0.00  0.00     0.252 S 
ATOM    160  O3  IDS d 251      45.492  21.506  -0.203  0.00  0.00    -0.390 OA
ATOM    161  O61 IDS d 251      49.068  18.670   3.400  0.00  0.00    -0.646 OA
ATOM    162  O3S IDS d 251      48.500  24.222  -2.579  0.00  0.00    -0.572 OA
ATOM    163  O2  IDS d 251      47.802  22.104  -1.622  0.00  0.00    -0.244 OA
ATOM    164  O2S IDS d 251      49.923  23.204  -0.913  0.00  0.00    -0.572 OA
ATOM    165  O5  IDS d 251      49.068  20.066   1.056  0.00  0.00    -0.340 OA
ATOM    166  C3  IDS d 251      46.772  21.226   0.332  0.00  0.00     0.094 C 
ATOM    167  O1S IDS d 251      47.795  24.139  -0.269  0.00  0.00    -0.572 OA
ATOM    168  O1  IDS d 251      49.672  19.562  -1.203  0.00  0.00    -0.348 OA
ATOM    169  H   IDS d 251      47.408  20.079  -1.376  0.00  0.00     0.097 H 
ATOM    170  H   IDS d 251      49.826  21.394  -0.261  0.00  0.00     0.133 H 
ATOM    171  H   IDS d 251      45.737  19.560   1.252  0.00  0.00     0.092 H 
ATOM    172  H   IDS d 251      47.761  18.479   0.535  0.00  0.00     0.104 H 
ATOM    173  H   IDS d 251      45.566  22.208  -0.867  0.00  0.00     0.210 HD
ATOM    174  H   IDS d 251      47.181  22.071   0.846  0.00  0.00     0.091 H 
ATOM    175  O5S SGN d 248      49.321  31.460  11.187  0.00  0.00    -0.572 OA
ATOM    176  O4S SGN d 248      49.074  33.311   9.646  0.00  0.00    -0.572 OA
ATOM    177  O2S SGN d 248      54.744  26.439   8.212  0.00  0.00    -0.296 OA
ATOM    178  O1  SGN d 248      50.272  27.415   7.103  0.00  0.00    -0.348 OA
ATOM    179  S1  SGN d 248      54.112  27.478   9.016  0.00  0.00     0.156 S 
ATOM    180  O3  SGN d 248      50.809  27.648  11.175  0.00  0.00    -0.391 OA
ATOM    181  O1S SGN d 248      54.475  27.431  10.417  0.00  0.00    -0.296 OA
ATOM    182  N   SGN d 248      52.486  27.186   8.896  0.00  0.00    -0.210 NA
ATOM    183  S2  SGN d 248      49.210  31.874   9.799  0.00  0.00     0.251 S 
ATOM    184  C4  SGN d 248      49.277  28.987   9.883  0.00  0.00     0.095 C 
ATOM    185  C6  SGN d 248      47.716  30.325   8.287  0.00  0.00     0.067 C 
ATOM    186  O6S SGN d 248      50.245  31.305   8.958  0.00  0.00    -0.572 OA
ATOM    187  O3S SGN d 248      54.323  28.801   8.463  0.00  0.00    -0.296 OA
ATOM    188  O5  SGN d 248      49.908  29.582   7.564  0.00  0.00    -0.349 OA
ATOM    189  C2  SGN d 248      51.484  28.288   8.947  0.00  0.00     0.081 C 
ATOM    190  C3  SGN d 248      50.322  27.870   9.861  0.00  0.00     0.083 C 
ATOM    191  C1  SGN d 248      50.901  28.561   7.520  0.00  0.00     0.150 C 
ATOM    192  O6  SGN d 248      47.876  31.237   9.329  0.00  0.00    -0.254 OA
ATOM    193  C5  SGN d 248      48.770  29.214   8.416  0.00  0.00     0.091 C 
ATOM    194  H   SGN d 248      54.579  25.572   8.616  0.00  0.00     0.231 HD
ATOM    195  H   SGN d 248      50.075  27.384  11.751  0.00  0.00     0.210 HD
ATOM    196  H   SGN d 248      54.324  26.537  10.761  0.00  0.00     0.231 HD
ATOM    197  H   SGN d 248      52.252  26.550   9.659  0.00  0.00     0.140 HD
ATOM    198  H   SGN d 248      49.681  29.903  10.258  0.00  0.00     0.091 H 
ATOM    199  H   SGN d 248      46.738  29.896   8.336  0.00  0.00     0.080 H 
ATOM    200  H   SGN d 248      47.838  30.826   7.350  0.00  0.00     0.080 H 
ATOM    201  H   SGN d 248      54.073  28.803   7.526  0.00  0.00     0.231 HD
ATOM    202  H   SGN d 248      51.965  29.170   9.318  0.00  0.00     0.076 H 
ATOM    203  H   SGN d 248      49.878  26.969   9.492  0.00  0.00     0.089 H 
ATOM    204  H   SGN d 248      51.697  28.859   6.871  0.00  0.00     0.131 H 
ATOM    205  H   SGN d 248      48.313  28.294   8.115  0.00  0.00     0.090 H 
ENDROOT
TORSDOF 64
ENDMDL
MODEL 16
REMARK VINA RESULT:      -3.0      2.809     17.938
REMARK  0 active torsions:
REMARK  status: ('A' for Active; 'I' for Inactive)
REMARK       I    between atoms: C5_1  and  C6_97 
REMARK       I    between atoms: O2_2  and  C2_107 
REMARK       I    between atoms: O2_2  and  S_88 
REMARK       I    between atoms: O3_4  and  C3_95 
REMARK       I    between atoms: C1_5  and  O1_40 
REMARK       I    between atoms: C3_6  and  C2_70 
REMARK       I    between atoms: C3_6  and  O3_51 
REMARK       I    between atoms: C2_7  and  O2_9 
REMARK       I    between atoms: C2_8  and  O2_75 
REMARK       I    between atoms: O2_9  and  S_23 
REMARK       I    between atoms: S2_14  and  O6_117 
REMARK       I    between atoms: C1_15  and  O1_130 
REMARK       I    between atoms: C4_16  and  O1_59 
REMARK       I    between atoms: S1_17  and  N_128 
REMARK       I    between atoms: S1_17  and  O1S_46 
REMARK       I    between atoms: S1_17  and  O2S_29 
REMARK       I    between atoms: S1_17  and  O3S_24 
REMARK       I    between atoms: C2_18  and  N_86 
REMARK       I    between atoms: S1_19  and  N_86 
REMARK       I    between atoms: S1_19  and  O1S_71 
REMARK       I    between atoms: S1_19  and  O2S_34 
REMARK       I    between atoms: S1_19  and  O3S_81 
REMARK       I    between atoms: O2S_22  and  S1_111 
REMARK       I    between atoms: C1_25  and  O1_58 
REMARK       I    between atoms: C4_27  and  O1_58 
REMARK       I    between atoms: O2S_28  and  S1_48 
REMARK       I    between atoms: O3_32  and  C3_49 
REMARK       I    between atoms: O2_33  and  C2_70 
REMARK       I    between atoms: O2_33  and  S_133 
REMARK       I    between atoms: C5_37  and  C6_84 
REMARK       I    between atoms: C5_41  and  C6_43 
REMARK       I    between atoms: O6_42  and  C6_84 
REMARK       I    between atoms: O6_42  and  S2_77 
REMARK       I    between atoms: C5_44  and  C6_108 
REMARK       I    between atoms: O1_45  and  C1_120 
REMARK       I    between atoms: O1_45  and  C4_114 
REMARK       I    between atoms: S2_47  and  O6_94 
REMARK       I    between atoms: S1_48  and  N_53 
REMARK       I    between atoms: S1_48  and  O1S_52 
REMARK       I    between atoms: S1_48  and  O3S_83 
REMARK       I    between atoms: O3_50  and  C3_119 
REMARK       I    between atoms: N_53  and  C2_89 
REMARK       I    between atoms: S_55  and  O2_75 
REMARK       I    between atoms: O3_56  and  C3_124 
REMARK       I    between atoms: O1_59  and  C1_110 
REMARK       I    between atoms: S2_60  and  O6_132 
REMARK       I    between atoms: O3_61  and  C3_115 
REMARK       I    between atoms: C6_62  and  C5_106 
REMARK       I    between atoms: C6_62  and  O6_94 
REMARK       I    between atoms: C4_63  and  O1_96 
REMARK       I    between atoms: O3_67  and  C3_93 
REMARK       I    between atoms: O1_69  and  C1_113 
REMARK       I    between atoms: O1_69  and  C4_103 
REMARK       I    between atoms: C2_70  and  C1_76 
REMARK       I    between atoms: C5_74  and  C6_90 
REMARK       I    between atoms: C1_76  and  O1_96 
REMARK       I    between atoms: C4_78  and  O1_112 
REMARK       I    between atoms: C6_80  and  C5_134 
REMARK       I    between atoms: C6_80  and  O6_132 
REMARK       I    between atoms: C6_90  and  O6_117 
REMARK       I    between atoms: C2_98  and  N_128 
REMARK       I    between atoms: C1_100  and  O1_112 
REMARK       I    between atoms: S1_111  and  O1S_116 
REMARK       I    between atoms: C4_127  and  O1_130 
ROOT
ATOM      1  C5  IDS d 249      46.905  24.489   6.646  0.00  0.00     0.152 C 
ATOM      2  O2  IDS d 249      45.331  25.833   3.066  0.00  0.00    -0.244 OA
ATOM      3  O1S IDS d 249      43.670  27.505   3.679  0.00  0.00    -0.572 OA
ATOM      4  O5  IDS d 249      47.533  25.596   5.958  0.00  0.00    -0.340 OA
ATOM      5  O1  IDS d 249      48.124  24.775   3.889  0.00  0.00    -0.348 OA
ATOM      6  O62 IDS d 249      48.022  25.250   8.649  0.00  0.00    -0.646 OA
ATOM      7  O3  IDS d 249      43.754  24.612   5.432  0.00  0.00    -0.390 OA
ATOM      8  S   IDS d 249      44.931  27.397   2.963  0.00  0.00     0.252 S 
ATOM      9  C3  IDS d 249      44.887  25.369   5.355  0.00  0.00     0.094 C 
ATOM     10  C6  IDS d 249      47.568  24.305   8.028  0.00  0.00     0.206 C 
ATOM     11  O3S IDS d 249      44.798  27.683   1.551  0.00  0.00    -0.572 OA
ATOM     12  C2  IDS d 249      45.850  25.131   4.215  0.00  0.00     0.134 C 
ATOM     13  C1  IDS d 249      47.279  25.634   4.559  0.00  0.00     0.161 C 
ATOM     14  C4  IDS d 249      45.368  24.798   6.715  0.00  0.00     0.103 C 
ATOM     15  O2S IDS d 249      45.975  28.162   3.598  0.00  0.00    -0.572 OA
ATOM     16  O61 IDS d 249      47.656  23.187   8.534  0.00  0.00    -0.646 OA
ATOM     17  H   IDS d 249      47.034  23.559   6.133  0.00  0.00     0.104 H 
ATOM     18  H   IDS d 249      43.206  24.771   4.648  0.00  0.00     0.210 HD
ATOM     19  H   IDS d 249      44.773  26.419   5.182  0.00  0.00     0.091 H 
ATOM     20  H   IDS d 249      45.935  24.082   4.021  0.00  0.00     0.097 H 
ATOM     21  H   IDS d 249      47.413  26.655   4.269  0.00  0.00     0.133 H 
ATOM     22  H   IDS d 249      44.702  23.997   6.957  0.00  0.00     0.092 H 
ATOM     23  O3  SGN d 246      46.266  35.028  15.331  0.00  0.00    -0.215 OA
ATOM     24  S2  SGN d 246      41.251  38.354  12.705  0.00  0.00     0.251 S 
ATOM     25  O6S SGN d 246      42.252  38.445  11.679  0.00  0.00    -0.572 OA
ATOM     26  O2S SGN d 246      49.288  36.636  13.414  0.00  0.00    -0.294 OA
ATOM     27  C3  SGN d 246      45.426  34.918  14.203  0.00  0.00     0.121 C 
ATOM     28  C2  SGN d 246      45.982  35.758  13.043  0.00  0.00     0.084 C 
ATOM     29  O4S SGN d 246      39.969  37.929  12.209  0.00  0.00    -0.572 OA
ATOM     30  O5S SGN d 246      41.179  39.543  13.518  0.00  0.00    -0.572 OA
ATOM     31  N   SGN d 246      47.322  35.288  12.689  0.00  0.00    -0.208 NA
ATOM     32  C4  SGN d 246      44.064  35.455  14.551  0.00  0.00     0.095 C 
ATOM     33  O1  SGN d 246      44.902  34.292  11.375  0.00  0.00    -0.348 OA
ATOM     34  C5  SGN d 246      43.125  35.334  13.278  0.00  0.00     0.091 C 
ATOM     35  C6  SGN d 246      41.688  35.875  13.482  0.00  0.00     0.067 C 
ATOM     36  S1  SGN d 246      48.559  35.434  13.762  0.00  0.00     0.188 S 
ATOM     37  C1  SGN d 246      45.011  35.642  11.787  0.00  0.00     0.151 C 
ATOM     38  O1S SGN d 246      49.364  34.231  13.665  0.00  0.00    -0.294 OA
ATOM     39  O6  SGN d 246      41.737  37.263  13.678  0.00  0.00    -0.254 OA
ATOM     40  O5  SGN d 246      43.704  36.087  12.148  0.00  0.00    -0.349 OA
ATOM     41  O3S SGN d 246      47.904  35.545  15.047  0.00  0.00    -0.119 OA
ATOM     42  H   SGN d 246      49.710  36.519  12.548  0.00  0.00     0.231 HD
ATOM     43  H   SGN d 246      45.371  33.889  13.912  0.00  0.00     0.095 H 
ATOM     44  H   SGN d 246      46.044  36.783  13.345  0.00  0.00     0.077 H 
ATOM     45  H   SGN d 246      47.600  35.797  11.850  0.00  0.00     0.140 HD
ATOM     46  H   SGN d 246      44.095  36.487  14.830  0.00  0.00     0.091 H 
ATOM     47  H   SGN d 246      43.061  34.284  13.088  0.00  0.00     0.090 H 
ATOM     48  H   SGN d 246      41.250  35.408  14.340  0.00  0.00     0.080 H 
ATOM     49  H   SGN d 246      41.098  35.657  12.617  0.00  0.00     0.080 H 
ATOM     50  H   SGN d 246      45.414  36.242  10.997  0.00  0.00     0.131 H 
ATOM     51  H   SGN d 246      49.785  34.194  12.792  0.00  0.00     0.231 HD
ATOM     52  O3  SGN d 250      50.417  23.805   5.204  0.00  0.00    -0.391 OA
ATOM     53  O5S SGN d 250      48.377  27.531  -1.748  0.00  0.00    -0.572 OA
ATOM     54  C4  SGN d 250      49.415  25.221   3.517  0.00  0.00     0.095 C 
ATOM     55  S1  SGN d 250      53.679  23.266   4.994  0.00  0.00     0.156 S 
ATOM     56  O3S SGN d 250      55.062  23.304   4.536  0.00  0.00    -0.296 OA
ATOM     57  C1  SGN d 250      51.698  24.796   1.802  0.00  0.00     0.150 C 
ATOM     58  O2S SGN d 250      53.322  21.967   5.591  0.00  0.00    -0.296 OA
ATOM     59  C5  SGN d 250      49.430  25.549   1.985  0.00  0.00     0.091 C 
ATOM     60  O6  SGN d 250      47.962  26.478   0.339  0.00  0.00    -0.254 OA
ATOM     61  O1S SGN d 250      53.370  24.404   5.846  0.00  0.00    -0.296 OA
ATOM     62  O1  SGN d 250      50.999  23.691   1.261  0.00  0.00    -0.348 OA
ATOM     63  S2  SGN d 250      47.447  27.572  -0.651  0.00  0.00     0.251 S 
ATOM     64  C6  SGN d 250      48.492  26.702   1.611  0.00  0.00     0.067 C 
ATOM     65  C3  SGN d 250      50.412  24.079   3.809  0.00  0.00     0.083 C 
ATOM     66  C2  SGN d 250      51.832  24.515   3.350  0.00  0.00     0.081 C 
ATOM     67  O6S SGN d 250      46.111  27.154  -1.047  0.00  0.00    -0.572 OA
ATOM     68  O5  SGN d 250      50.807  25.904   1.581  0.00  0.00    -0.349 OA
ATOM     69  O4S SGN d 250      47.472  28.842   0.058  0.00  0.00    -0.572 OA
ATOM     70  N   SGN d 250      52.784  23.383   3.594  0.00  0.00    -0.210 NA
ATOM     71  H   SGN d 250      49.528  23.534   5.484  0.00  0.00     0.210 HD
ATOM     72  H   SGN d 250      49.683  26.101   4.064  0.00  0.00     0.091 H 
ATOM     73  H   SGN d 250      55.251  24.175   4.152  0.00  0.00     0.231 HD
ATOM     74  H   SGN d 250      52.666  24.975   1.383  0.00  0.00     0.131 H 
ATOM     75  H   SGN d 250      52.397  21.988   5.880  0.00  0.00     0.231 HD
ATOM     76  H   SGN d 250      49.085  24.675   1.472  0.00  0.00     0.090 H 
ATOM     77  H   SGN d 250      52.446  24.351   6.134  0.00  0.00     0.231 HD
ATOM     78  H   SGN d 250      49.039  27.622   1.612  0.00  0.00     0.080 H 
ATOM     79  H   SGN d 250      47.696  26.761   2.323  0.00  0.00     0.080 H 
ATOM     80  H   SGN d 250      50.122  23.196   3.279  0.00  0.00     0.089 H 
ATOM     81  H   SGN d 250      52.197  25.375   3.872  0.00  0.00     0.076 H 
ATOM     82  H   SGN d 250      52.230  22.528   3.538  0.00  0.00     0.140 HD
ATOM     83  C1  SGN d 252      47.057  18.854  -4.040  0.00  0.00     0.147 C 
ATOM     84  C2  SGN d 252      46.825  20.136  -3.208  0.00  0.00     0.081 C 
ATOM     85  S1  SGN d 252      44.948  21.726  -4.361  0.00  0.00     0.156 S 
ATOM     86  O3  SGN d 252      47.879  21.562  -1.660  0.00  0.00    -0.391 OA
ATOM     87  O2S SGN d 252      44.552  22.434  -3.161  0.00  0.00    -0.296 OA
ATOM     88  O1  SGN d 252      48.149  19.079  -4.955  0.00  0.00    -0.369 OA
ATOM     89  S2  SGN d 252      47.185  15.705   0.495  0.00  0.00     0.251 S 
ATOM     90  C3  SGN d 252      48.091  20.409  -2.402  0.00  0.00     0.083 C 
ATOM     91  C6  SGN d 252      48.702  16.616  -1.532  0.00  0.00     0.067 C 
ATOM     92  O6S SGN d 252      46.542  14.900  -0.539  0.00  0.00    -0.572 OA
ATOM     93  O1S SGN d 252      44.178  20.517  -4.586  0.00  0.00    -0.296 OA
ATOM     94  O3S SGN d 252      44.956  22.595  -5.535  0.00  0.00    -0.296 OA
ATOM     95  N   SGN d 252      46.530  21.274  -4.128  0.00  0.00    -0.210 NA
ATOM     96  O5  SGN d 252      47.351  17.734  -3.158  0.00  0.00    -0.350 OA
ATOM     97  O6  SGN d 252      48.102  16.752  -0.261  0.00  0.00    -0.254 OA
ATOM     98  O5S SGN d 252      46.235  16.536   1.226  0.00  0.00    -0.572 OA
ATOM     99  C5  SGN d 252      48.512  17.919  -2.318  0.00  0.00     0.091 C 
ATOM    100  C4  SGN d 252      48.344  19.195  -1.435  0.00  0.00     0.095 C 
ATOM    101  O4S SGN d 252      48.047  14.924   1.373  0.00  0.00    -0.572 OA
ATOM    102  H   SGN d 252      46.174  18.618  -4.597  0.00  0.00     0.131 H 
ATOM    103  H   SGN d 252      45.994  20.017  -2.544  0.00  0.00     0.076 H 
ATOM    104  H   SGN d 252      47.724  22.309  -2.260  0.00  0.00     0.210 HD
ATOM    105  H   SGN d 252      44.560  21.823  -2.408  0.00  0.00     0.231 HD
ATOM    106  H   SGN d 252      48.951  19.293  -4.454  0.00  0.00     0.212 HD
ATOM    107  H   SGN d 252      48.939  20.533  -3.043  0.00  0.00     0.089 H 
ATOM    108  H   SGN d 252      49.747  16.416  -1.416  0.00  0.00     0.080 H 
ATOM    109  H   SGN d 252      48.246  15.805  -2.061  0.00  0.00     0.080 H 
ATOM    110  H   SGN d 252      44.197  19.967  -3.786  0.00  0.00     0.231 HD
ATOM    111  H   SGN d 252      45.226  22.084  -6.314  0.00  0.00     0.231 HD
ATOM    112  H   SGN d 252      46.909  21.027  -5.042  0.00  0.00     0.140 HD
ATOM    113  H   SGN d 252      49.404  18.100  -2.881  0.00  0.00     0.090 H 
ATOM    114  H   SGN d 252      47.525  19.108  -0.751  0.00  0.00     0.091 H 
ATOM    115  C3  IDS d 245      41.974  36.314  18.476  0.00  0.00     0.044 C 
ATOM    116  O2S IDS d 245      39.930  33.444  15.545  0.00  0.00    -0.572 OA
ATOM    117  O2  IDS d 245      41.146  35.354  16.472  0.00  0.00    -0.247 OA
ATOM    118  O3S IDS d 245      39.271  34.417  17.665  0.00  0.00    -0.572 OA
ATOM    119  O3  IDS d 245      40.714  36.196  19.093  0.00  0.00    -0.398 OA
ATOM    120  C2  IDS d 245      42.145  35.206  17.480  0.00  0.00     0.100 C 
ATOM    121  C1  IDS d 245      43.515  35.382  16.877  0.00  0.00     0.048 C 
ATOM    122  O1  IDS d 245      43.573  34.688  15.657  0.00  0.00    -0.378 OA
ATOM    123  O1S IDS d 245      38.938  35.642  15.609  0.00  0.00    -0.572 OA
ATOM    124  S   IDS d 245      39.742  34.658  16.321  0.00  0.00     0.252 S 
ATOM    125  H   IDS d 245      42.039  37.257  17.976  0.00  0.00     0.078 H 
ATOM    126  H   IDS d 245      42.743  36.250  19.217  0.00  0.00     0.078 H 
ATOM    127  H   IDS d 245      40.017  36.253  18.421  0.00  0.00     0.209 HD
ATOM    128  H   IDS d 245      42.050  34.238  17.926  0.00  0.00     0.092 H 
ATOM    129  H   IDS d 245      44.254  34.993  17.546  0.00  0.00     0.078 H 
ATOM    130  H   IDS d 245      43.704  36.422  16.709  0.00  0.00     0.078 H 
ATOM    131  C2  IDS d 247      47.259  31.901  10.104  0.00  0.00     0.134 C 
ATOM    132  O2  IDS d 247      48.515  31.493  10.687  0.00  0.00    -0.244 OA
ATOM    133  S   IDS d 247      50.026  31.774  10.154  0.00  0.00     0.252 S 
ATOM    134  C5  IDS d 247      44.658  32.623   9.663  0.00  0.00     0.152 C 
ATOM    135  O1S IDS d 247      49.861  32.005   8.733  0.00  0.00    -0.572 OA
ATOM    136  O3  IDS d 247      47.947  34.195  10.240  0.00  0.00    -0.390 OA
ATOM    137  O3S IDS d 247      50.811  30.569  10.437  0.00  0.00    -0.572 OA
ATOM    138  O62 IDS d 247      42.353  32.347  10.304  0.00  0.00    -0.646 OA
ATOM    139  O61 IDS d 247      42.724  33.824   8.880  0.00  0.00    -0.646 OA
ATOM    140  O5  IDS d 247      44.862  31.476  10.527  0.00  0.00    -0.340 OA
ATOM    141  O2S IDS d 247      50.521  32.948  10.841  0.00  0.00    -0.572 OA
ATOM    142  C1  IDS d 247      46.162  30.882  10.469  0.00  0.00     0.161 C 
ATOM    143  C4  IDS d 247      45.546  33.817  10.196  0.00  0.00     0.103 C 
ATOM    144  C6  IDS d 247      43.152  32.946   9.612  0.00  0.00     0.206 C 
ATOM    145  O1  IDS d 247      46.229  29.893   9.506  0.00  0.00    -0.348 OA
ATOM    146  C3  IDS d 247      46.932  33.283  10.643  0.00  0.00     0.094 C 
ATOM    147  H   IDS d 247      47.320  31.938   9.036  0.00  0.00     0.097 H 
ATOM    148  H   IDS d 247      44.965  32.428   8.656  0.00  0.00     0.104 H 
ATOM    149  H   IDS d 247      48.814  33.859  10.520  0.00  0.00     0.210 HD
ATOM    150  H   IDS d 247      46.324  30.487  11.450  0.00  0.00     0.133 H 
ATOM    151  H   IDS d 247      45.663  34.564   9.439  0.00  0.00     0.092 H 
ATOM    152  H   IDS d 247      46.891  33.196  11.708  0.00  0.00     0.091 H 
ATOM    153  C2  IDS d 251      51.131  20.141   0.998  0.00  0.00     0.134 C 
ATOM    154  C1  IDS d 251      49.675  20.266   0.470  0.00  0.00     0.161 C 
ATOM    155  O62 IDS d 251      50.641  24.221  -2.082  0.00  0.00    -0.646 OA
ATOM    156  C4  IDS d 251      51.575  22.664   0.560  0.00  0.00     0.103 C 
ATOM    157  C5  IDS d 251      50.513  22.340  -0.533  0.00  0.00     0.152 C 
ATOM    158  C6  IDS d 251      49.967  23.612  -1.268  0.00  0.00     0.206 C 
ATOM    159  S   IDS d 251      50.223  19.069   3.366  0.00  0.00     0.252 S 
ATOM    160  O3  IDS d 251      53.001  21.309   1.966  0.00  0.00    -0.390 OA
ATOM    161  O61 IDS d 251      48.833  24.039  -1.031  0.00  0.00    -0.646 OA
ATOM    162  O3S IDS d 251      50.590  17.809   3.968  0.00  0.00    -0.572 OA
ATOM    163  O2  IDS d 251      51.195  19.204   2.077  0.00  0.00    -0.244 OA
ATOM    164  O2S IDS d 251      48.846  19.101   2.906  0.00  0.00    -0.572 OA
ATOM    165  O5  IDS d 251      49.402  21.635   0.127  0.00  0.00    -0.340 OA
ATOM    166  C3  IDS d 251      51.660  21.474   1.548  0.00  0.00     0.094 C 
ATOM    167  O1S IDS d 251      50.546  20.214   4.206  0.00  0.00    -0.572 OA
ATOM    168  O1  IDS d 251      49.593  19.387  -0.668  0.00  0.00    -0.348 OA
ATOM    169  H   IDS d 251      51.722  19.823   0.165  0.00  0.00     0.097 H 
ATOM    170  H   IDS d 251      48.943  19.988   1.199  0.00  0.00     0.133 H 
ATOM    171  H   IDS d 251      52.541  22.873   0.148  0.00  0.00     0.092 H 
ATOM    172  H   IDS d 251      50.979  21.741  -1.287  0.00  0.00     0.104 H 
ATOM    173  H   IDS d 251      53.057  20.565   2.585  0.00  0.00     0.210 HD
ATOM    174  H   IDS d 251      51.017  21.726   2.365  0.00  0.00     0.091 H 
ATOM    175  O5S SGN d 248      44.701  29.620  12.238  0.00  0.00    -0.572 OA
ATOM    176  O4S SGN d 248      45.201  27.989  13.955  0.00  0.00    -0.572 OA
ATOM    177  O2S SGN d 248      41.088  25.875   6.207  0.00  0.00    -0.296 OA
ATOM    178  O1  SGN d 248      45.540  26.017   7.737  0.00  0.00    -0.348 OA
ATOM    179  S1  SGN d 248      41.315  26.683   7.398  0.00  0.00     0.156 S 
ATOM    180  O3  SGN d 248      43.740  29.679   8.261  0.00  0.00    -0.391 OA
ATOM    181  O1S SGN d 248      40.542  27.907   7.427  0.00  0.00    -0.296 OA
ATOM    182  N   SGN d 248      42.919  27.089   7.344  0.00  0.00    -0.210 NA
ATOM    183  S2  SGN d 248      45.190  28.285  12.534  0.00  0.00     0.251 S 
ATOM    184  C4  SGN d 248      45.433  28.731   9.690  0.00  0.00     0.095 C 
ATOM    185  C6  SGN d 248      47.248  27.504  11.095  0.00  0.00     0.067 C 
ATOM    186  O6S SGN d 248      44.541  27.260  11.742  0.00  0.00    -0.572 OA
ATOM    187  O3S SGN d 248      41.135  25.921   8.618  0.00  0.00    -0.296 OA
ATOM    188  O5  SGN d 248      45.491  26.271   9.967  0.00  0.00    -0.349 OA
ATOM    189  C2  SGN d 248      43.722  27.287   8.584  0.00  0.00     0.081 C 
ATOM    190  C3  SGN d 248      44.583  28.550   8.432  0.00  0.00     0.083 C 
ATOM    191  C1  SGN d 248      44.685  26.072   8.809  0.00  0.00     0.150 C 
ATOM    192  O6  SGN d 248      46.668  28.320  12.064  0.00  0.00    -0.254 OA
ATOM    193  C5  SGN d 248      46.341  27.463   9.855  0.00  0.00     0.091 C 
ATOM    194  H   SGN d 248      41.217  26.421   5.415  0.00  0.00     0.231 HD
ATOM    195  H   SGN d 248      44.284  30.476   8.164  0.00  0.00     0.210 HD
ATOM    196  H   SGN d 248      40.680  28.396   6.601  0.00  0.00     0.231 HD
ATOM    197  H   SGN d 248      42.976  27.965   6.824  0.00  0.00     0.140 HD
ATOM    198  H   SGN d 248      44.830  28.843  10.566  0.00  0.00     0.091 H 
ATOM    199  H   SGN d 248      48.206  27.897  10.824  0.00  0.00     0.080 H 
ATOM    200  H   SGN d 248      47.367  26.515  11.484  0.00  0.00     0.080 H 
ATOM    201  H   SGN d 248      41.663  25.108   8.572  0.00  0.00     0.231 HD
ATOM    202  H   SGN d 248      43.052  27.377   9.414  0.00  0.00     0.076 H 
ATOM    203  H   SGN d 248      45.220  28.453   7.578  0.00  0.00     0.089 H 
ATOM    204  H   SGN d 248      44.102  25.183   8.923  0.00  0.00     0.131 H 
ATOM    205  H   SGN d 248      46.972  27.436   8.990  0.00  0.00     0.090 H 
ENDROOT
TORSDOF 64
ENDMDL
MODEL 17
REMARK VINA RESULT:      -2.8      3.311      6.839
REMARK  0 active torsions:
REMARK  status: ('A' for Active; 'I' for Inactive)
REMARK       I    between atoms: C5_1  and  C6_97 
REMARK       I    between atoms: O2_2  and  C2_107 
REMARK       I    between atoms: O2_2  and  S_88 
REMARK       I    between atoms: O3_4  and  C3_95 
REMARK       I    between atoms: C1_5  and  O1_40 
REMARK       I    between atoms: C3_6  and  C2_70 
REMARK       I    between atoms: C3_6  and  O3_51 
REMARK       I    between atoms: C2_7  and  O2_9 
REMARK       I    between atoms: C2_8  and  O2_75 
REMARK       I    between atoms: O2_9  and  S_23 
REMARK       I    between atoms: S2_14  and  O6_117 
REMARK       I    between atoms: C1_15  and  O1_130 
REMARK       I    between atoms: C4_16  and  O1_59 
REMARK       I    between atoms: S1_17  and  N_128 
REMARK       I    between atoms: S1_17  and  O1S_46 
REMARK       I    between atoms: S1_17  and  O2S_29 
REMARK       I    between atoms: S1_17  and  O3S_24 
REMARK       I    between atoms: C2_18  and  N_86 
REMARK       I    between atoms: S1_19  and  N_86 
REMARK       I    between atoms: S1_19  and  O1S_71 
REMARK       I    between atoms: S1_19  and  O2S_34 
REMARK       I    between atoms: S1_19  and  O3S_81 
REMARK       I    between atoms: O2S_22  and  S1_111 
REMARK       I    between atoms: C1_25  and  O1_58 
REMARK       I    between atoms: C4_27  and  O1_58 
REMARK       I    between atoms: O2S_28  and  S1_48 
REMARK       I    between atoms: O3_32  and  C3_49 
REMARK       I    between atoms: O2_33  and  C2_70 
REMARK       I    between atoms: O2_33  and  S_133 
REMARK       I    between atoms: C5_37  and  C6_84 
REMARK       I    between atoms: C5_41  and  C6_43 
REMARK       I    between atoms: O6_42  and  C6_84 
REMARK       I    between atoms: O6_42  and  S2_77 
REMARK       I    between atoms: C5_44  and  C6_108 
REMARK       I    between atoms: O1_45  and  C1_120 
REMARK       I    between atoms: O1_45  and  C4_114 
REMARK       I    between atoms: S2_47  and  O6_94 
REMARK       I    between atoms: S1_48  and  N_53 
REMARK       I    between atoms: S1_48  and  O1S_52 
REMARK       I    between atoms: S1_48  and  O3S_83 
REMARK       I    between atoms: O3_50  and  C3_119 
REMARK       I    between atoms: N_53  and  C2_89 
REMARK       I    between atoms: S_55  and  O2_75 
REMARK       I    between atoms: O3_56  and  C3_124 
REMARK       I    between atoms: O1_59  and  C1_110 
REMARK       I    between atoms: S2_60  and  O6_132 
REMARK       I    between atoms: O3_61  and  C3_115 
REMARK       I    between atoms: C6_62  and  C5_106 
REMARK       I    between atoms: C6_62  and  O6_94 
REMARK       I    between atoms: C4_63  and  O1_96 
REMARK       I    between atoms: O3_67  and  C3_93 
REMARK       I    between atoms: O1_69  and  C1_113 
REMARK       I    between atoms: O1_69  and  C4_103 
REMARK       I    between atoms: C2_70  and  C1_76 
REMARK       I    between atoms: C5_74  and  C6_90 
REMARK       I    between atoms: C1_76  and  O1_96 
REMARK       I    between atoms: C4_78  and  O1_112 
REMARK       I    between atoms: C6_80  and  C5_134 
REMARK       I    between atoms: C6_80  and  O6_132 
REMARK       I    between atoms: C6_90  and  O6_117 
REMARK       I    between atoms: C2_98  and  N_128 
REMARK       I    between atoms: C1_100  and  O1_112 
REMARK       I    between atoms: S1_111  and  O1S_116 
REMARK       I    between atoms: C4_127  and  O1_130 
ROOT
ATOM      1  C5  IDS d 249      50.082  28.560   8.592  0.00  0.00     0.152 C 
ATOM      2  O2  IDS d 249      46.015  28.924   9.245  0.00  0.00    -0.244 OA
ATOM      3  O1S IDS d 249      44.957  27.783   7.373  0.00  0.00    -0.572 OA
ATOM      4  O5  IDS d 249      49.392  27.565   9.382  0.00  0.00    -0.340 OA
ATOM      5  O1  IDS d 249      48.457  28.720  11.141  0.00  0.00    -0.348 OA
ATOM      6  O62 IDS d 249      51.826  26.921   8.259  0.00  0.00    -0.646 OA
ATOM      7  O3  IDS d 249      47.567  29.836   6.729  0.00  0.00    -0.390 OA
ATOM      8  S   IDS d 249      45.073  27.681   8.818  0.00  0.00     0.252 S 
ATOM      9  C3  IDS d 249      47.738  28.809   7.612  0.00  0.00     0.094 C 
ATOM     10  C6  IDS d 249      51.536  28.101   8.348  0.00  0.00     0.206 C 
ATOM     11  O3S IDS d 249      43.811  27.883   9.497  0.00  0.00    -0.572 OA
ATOM     12  C2  IDS d 249      47.443  29.046   9.075  0.00  0.00     0.134 C 
ATOM     13  C1  IDS d 249      48.187  28.027   9.981  0.00  0.00     0.161 C 
ATOM     14  C4  IDS d 249      49.252  28.764   7.275  0.00  0.00     0.103 C 
ATOM     15  O2S IDS d 249      45.739  26.465   9.217  0.00  0.00    -0.572 OA
ATOM     16  O61 IDS d 249      52.442  28.928   8.244  0.00  0.00    -0.646 OA
ATOM     17  H   IDS d 249      50.152  29.505   9.089  0.00  0.00     0.104 H 
ATOM     18  H   IDS d 249      46.635  30.103   6.721  0.00  0.00     0.210 HD
ATOM     19  H   IDS d 249      47.102  27.955   7.511  0.00  0.00     0.091 H 
ATOM     20  H   IDS d 249      47.785  30.017   9.364  0.00  0.00     0.097 H 
ATOM     21  H   IDS d 249      47.595  27.152  10.150  0.00  0.00     0.133 H 
ATOM     22  H   IDS d 249      49.453  29.629   6.679  0.00  0.00     0.092 H 
ATOM     23  O3  SGN d 246      51.875  16.741   1.960  0.00  0.00    -0.215 OA
ATOM     24  S2  SGN d 246      46.007  16.164  -0.930  0.00  0.00     0.251 S 
ATOM     25  O6S SGN d 246      45.676  16.060   0.464  0.00  0.00    -0.572 OA
ATOM     26  O2S SGN d 246      51.204  14.877   5.346  0.00  0.00    -0.294 OA
ATOM     27  C3  SGN d 246      50.653  17.446   1.943  0.00  0.00     0.121 C 
ATOM     28  C2  SGN d 246      49.684  16.853   2.976  0.00  0.00     0.084 C 
ATOM     29  O4S SGN d 246      45.185  17.111  -1.637  0.00  0.00    -0.572 OA
ATOM     30  O5S SGN d 246      46.082  14.880  -1.581  0.00  0.00    -0.572 OA
ATOM     31  N   SGN d 246      50.269  16.943   4.314  0.00  0.00    -0.208 NA
ATOM     32  C4  SGN d 246      50.024  17.306   0.584  0.00  0.00     0.095 C 
ATOM     33  O1  SGN d 246      48.514  19.014   3.218  0.00  0.00    -0.348 OA
ATOM     34  C5  SGN d 246      48.648  18.096   0.571  0.00  0.00     0.091 C 
ATOM     35  C6  SGN d 246      47.871  18.018  -0.766  0.00  0.00     0.067 C 
ATOM     36  S1  SGN d 246      51.626  16.092   4.680  0.00  0.00     0.188 S 
ATOM     37  C1  SGN d 246      48.303  17.644   2.927  0.00  0.00     0.151 C 
ATOM     38  O1S SGN d 246      52.459  16.938   5.513  0.00  0.00    -0.294 OA
ATOM     39  O6  SGN d 246      47.451  16.699  -0.985  0.00  0.00    -0.254 OA
ATOM     40  O5  SGN d 246      47.750  17.565   1.615  0.00  0.00    -0.349 OA
ATOM     41  O3S SGN d 246      52.237  15.826   3.396  0.00  0.00    -0.119 OA
ATOM     42  H   SGN d 246      50.801  15.100   6.200  0.00  0.00     0.231 HD
ATOM     43  H   SGN d 246      50.845  18.474   2.173  0.00  0.00     0.095 H 
ATOM     44  H   SGN d 246      49.505  15.823   2.744  0.00  0.00     0.077 H 
ATOM     45  H   SGN d 246      49.548  16.642   4.971  0.00  0.00     0.140 HD
ATOM     46  H   SGN d 246      49.810  16.287   0.340  0.00  0.00     0.091 H 
ATOM     47  H   SGN d 246      48.921  19.117   0.738  0.00  0.00     0.090 H 
ATOM     48  H   SGN d 246      48.509  18.328  -1.568  0.00  0.00     0.080 H 
ATOM     49  H   SGN d 246      47.018  18.663  -0.722  0.00  0.00     0.080 H 
ATOM     50  H   SGN d 246      47.642  17.208   3.647  0.00  0.00     0.131 H 
ATOM     51  H   SGN d 246      52.017  17.092   6.362  0.00  0.00     0.231 HD
ATOM     52  O3  SGN d 250      50.991  28.456  12.339  0.00  0.00    -0.391 OA
ATOM     53  O5S SGN d 250      43.112  27.827  14.316  0.00  0.00    -0.572 OA
ATOM     54  C4  SGN d 250      48.613  28.008  12.355  0.00  0.00     0.095 C 
ATOM     55  S1  SGN d 250      52.654  27.938  15.157  0.00  0.00     0.156 S 
ATOM     56  O3S SGN d 250      52.964  27.587  16.538  0.00  0.00    -0.296 OA
ATOM     57  C1  SGN d 250      48.604  28.152  15.238  0.00  0.00     0.150 C 
ATOM     58  O2S SGN d 250      53.489  29.044  14.659  0.00  0.00    -0.296 OA
ATOM     59  C5  SGN d 250      47.315  28.162  13.218  0.00  0.00     0.091 C 
ATOM     60  O6  SGN d 250      44.948  28.292  12.884  0.00  0.00    -0.254 OA
ATOM     61  O1S SGN d 250      52.665  26.765  14.297  0.00  0.00    -0.296 OA
ATOM     62  O1  SGN d 250      48.324  29.532  15.099  0.00  0.00    -0.348 OA
ATOM     63  S2  SGN d 250      43.477  27.769  12.925  0.00  0.00     0.251 S 
ATOM     64  C6  SGN d 250      46.079  27.542  12.555  0.00  0.00     0.067 C 
ATOM     65  C3  SGN d 250      49.810  28.623  13.112  0.00  0.00     0.083 C 
ATOM     66  C2  SGN d 250      49.967  27.904  14.482  0.00  0.00     0.081 C 
ATOM     67  O6S SGN d 250      42.701  28.698  12.115  0.00  0.00    -0.572 OA
ATOM     68  O5  SGN d 250      47.528  27.513  14.530  0.00  0.00    -0.349 OA
ATOM     69  O4S SGN d 250      43.485  26.412  12.403  0.00  0.00    -0.572 OA
ATOM     70  N   SGN d 250      51.102  28.538  15.229  0.00  0.00    -0.210 NA
ATOM     71  H   SGN d 250      50.886  28.906  11.486  0.00  0.00     0.210 HD
ATOM     72  H   SGN d 250      48.784  26.969  12.164  0.00  0.00     0.091 H 
ATOM     73  H   SGN d 250      52.392  26.857  16.822  0.00  0.00     0.231 HD
ATOM     74  H   SGN d 250      48.681  27.799  16.246  0.00  0.00     0.131 H 
ATOM     75  H   SGN d 250      53.248  29.242  13.740  0.00  0.00     0.231 HD
ATOM     76  H   SGN d 250      47.129  29.210  13.325  0.00  0.00     0.090 H 
ATOM     77  H   SGN d 250      52.456  27.029  13.387  0.00  0.00     0.231 HD
ATOM     78  H   SGN d 250      45.954  26.538  12.901  0.00  0.00     0.080 H 
ATOM     79  H   SGN d 250      46.207  27.539  11.493  0.00  0.00     0.080 H 
ATOM     80  H   SGN d 250      49.643  29.667  13.276  0.00  0.00     0.089 H 
ATOM     81  H   SGN d 250      50.175  26.859  14.386  0.00  0.00     0.076 H 
ATOM     82  H   SGN d 250      51.154  29.503  14.902  0.00  0.00     0.140 HD
ATOM     83  C1  SGN d 252      44.433  36.726  15.475  0.00  0.00     0.147 C 
ATOM     84  C2  SGN d 252      44.405  35.405  14.672  0.00  0.00     0.081 C 
ATOM     85  S1  SGN d 252      41.932  34.930  13.654  0.00  0.00     0.156 S 
ATOM     86  O3  SGN d 252      45.488  33.323  14.483  0.00  0.00    -0.391 OA
ATOM     87  O2S SGN d 252      42.349  34.069  12.566  0.00  0.00    -0.296 OA
ATOM     88  O1  SGN d 252      44.173  36.438  16.863  0.00  0.00    -0.369 OA
ATOM     89  S2  SGN d 252      49.292  38.174  13.285  0.00  0.00     0.251 S 
ATOM     90  C3  SGN d 252      45.519  34.509  15.204  0.00  0.00     0.083 C 
ATOM     91  C6  SGN d 252      48.101  37.460  15.590  0.00  0.00     0.067 C 
ATOM     92  O6S SGN d 252      48.535  39.412  13.446  0.00  0.00    -0.572 OA
ATOM     93  O1S SGN d 252      41.902  36.333  13.286  0.00  0.00    -0.296 OA
ATOM     94  O3S SGN d 252      40.671  34.493  14.248  0.00  0.00    -0.296 OA
ATOM     95  N   SGN d 252      43.075  34.750  14.847  0.00  0.00    -0.210 NA
ATOM     96  O5  SGN d 252      45.727  37.376  15.319  0.00  0.00    -0.350 OA
ATOM     97  O6  SGN d 252      48.717  37.158  14.356  0.00  0.00    -0.254 OA
ATOM     98  O5S SGN d 252      49.029  37.521  12.007  0.00  0.00    -0.572 OA
ATOM     99  C5  SGN d 252      46.853  36.583  15.755  0.00  0.00     0.091 C 
ATOM    100  C4  SGN d 252      46.897  35.231  14.975  0.00  0.00     0.095 C 
ATOM    101  O4S SGN d 252      50.714  38.335  13.558  0.00  0.00    -0.572 OA
ATOM    102  H   SGN d 252      43.679  37.391  15.106  0.00  0.00     0.131 H 
ATOM    103  H   SGN d 252      44.555  35.587  13.629  0.00  0.00     0.076 H 
ATOM    104  H   SGN d 252      44.636  32.880  14.627  0.00  0.00     0.210 HD
ATOM    105  H   SGN d 252      43.187  34.393  12.201  0.00  0.00     0.231 HD
ATOM    106  H   SGN d 252      44.855  35.836  17.201  0.00  0.00     0.212 HD
ATOM    107  H   SGN d 252      45.393  34.310  16.247  0.00  0.00     0.089 H 
ATOM    108  H   SGN d 252      48.784  37.264  16.390  0.00  0.00     0.080 H 
ATOM    109  H   SGN d 252      47.822  38.492  15.611  0.00  0.00     0.080 H 
ATOM    110  H   SGN d 252      42.754  36.584  12.896  0.00  0.00     0.231 HD
ATOM    111  H   SGN d 252      40.428  35.094  14.969  0.00  0.00     0.231 HD
ATOM    112  H   SGN d 252      42.670  35.119  15.708  0.00  0.00     0.140 HD
ATOM    113  H   SGN d 252      46.782  36.296  16.783  0.00  0.00     0.090 H 
ATOM    114  H   SGN d 252      47.056  35.375  13.927  0.00  0.00     0.091 H 
ATOM    115  C3  IDS d 245      51.623  16.058  -3.466  0.00  0.00     0.044 C 
ATOM    116  O2S IDS d 245      49.622  20.166  -3.129  0.00  0.00    -0.572 OA
ATOM    117  O2  IDS d 245      50.104  17.780  -2.878  0.00  0.00    -0.247 OA
ATOM    118  O3S IDS d 245      50.498  18.882  -4.988  0.00  0.00    -0.572 OA
ATOM    119  O3  IDS d 245      51.529  16.392  -4.830  0.00  0.00    -0.398 OA
ATOM    120  C2  IDS d 245      51.422  17.290  -2.636  0.00  0.00     0.100 C 
ATOM    121  C1  IDS d 245      51.557  16.863  -1.197  0.00  0.00     0.048 C 
ATOM    122  O1  IDS d 245      50.954  17.828  -0.373  0.00  0.00    -0.378 OA
ATOM    123  O1S IDS d 245      48.246  18.497  -4.198  0.00  0.00    -0.572 OA
ATOM    124  S   IDS d 245      49.601  18.908  -3.855  0.00  0.00     0.252 S 
ATOM    125  H   IDS d 245      50.871  15.336  -3.222  0.00  0.00     0.078 H 
ATOM    126  H   IDS d 245      52.590  15.645  -3.265  0.00  0.00     0.078 H 
ATOM    127  H   IDS d 245      50.652  16.766  -5.012  0.00  0.00     0.209 HD
ATOM    128  H   IDS d 245      52.129  18.059  -2.870  0.00  0.00     0.092 H 
ATOM    129  H   IDS d 245      52.593  16.774  -0.945  0.00  0.00     0.078 H 
ATOM    130  H   IDS d 245      51.077  15.918  -1.056  0.00  0.00     0.078 H 
ATOM    131  C2  IDS d 247      49.718  20.768   6.109  0.00  0.00     0.134 C 
ATOM    132  O2  IDS d 247      50.950  20.553   6.831  0.00  0.00    -0.244 OA
ATOM    133  S   IDS d 247      51.161  19.965   8.332  0.00  0.00     0.252 S 
ATOM    134  C5  IDS d 247      47.805  21.098   4.183  0.00  0.00     0.152 C 
ATOM    135  O1S IDS d 247      49.901  20.231   8.997  0.00  0.00    -0.572 OA
ATOM    136  O3  IDS d 247      49.177  18.444   6.349  0.00  0.00    -0.390 OA
ATOM    137  O3S IDS d 247      52.275  20.707   8.930  0.00  0.00    -0.572 OA
ATOM    138  O62 IDS d 247      47.285  21.909   1.975  0.00  0.00    -0.646 OA
ATOM    139  O61 IDS d 247      45.751  20.881   2.944  0.00  0.00    -0.646 OA
ATOM    140  O5  IDS d 247      49.052  21.807   3.968  0.00  0.00    -0.340 OA
ATOM    141  O2S IDS d 247      51.424  18.546   8.215  0.00  0.00    -0.572 OA
ATOM    142  C1  IDS d 247      49.896  21.933   5.115  0.00  0.00     0.161 C 
ATOM    143  C4  IDS d 247      48.134  19.578   4.470  0.00  0.00     0.103 C 
ATOM    144  C6  IDS d 247      46.892  21.314   2.960  0.00  0.00     0.206 C 
ATOM    145  O1  IDS d 247      49.618  23.083   5.829  0.00  0.00    -0.348 OA
ATOM    146  C3  IDS d 247      49.378  19.475   5.389  0.00  0.00     0.094 C 
ATOM    147  H   IDS d 247      48.920  21.030   6.772  0.00  0.00     0.097 H 
ATOM    148  H   IDS d 247      47.272  21.470   5.033  0.00  0.00     0.104 H 
ATOM    149  H   IDS d 247      49.957  18.380   6.924  0.00  0.00     0.210 HD
ATOM    150  H   IDS d 247      50.891  21.946   4.722  0.00  0.00     0.133 H 
ATOM    151  H   IDS d 247      47.295  19.094   4.924  0.00  0.00     0.092 H 
ATOM    152  H   IDS d 247      50.206  19.251   4.749  0.00  0.00     0.091 H 
ATOM    153  C2  IDS d 251      49.705  32.755  15.728  0.00  0.00     0.134 C 
ATOM    154  C1  IDS d 251      48.539  33.273  14.841  0.00  0.00     0.161 C 
ATOM    155  O62 IDS d 251      45.378  30.160  16.686  0.00  0.00    -0.646 OA
ATOM    156  C4  IDS d 251      48.511  30.473  16.078  0.00  0.00     0.103 C 
ATOM    157  C5  IDS d 251      47.299  31.434  15.883  0.00  0.00     0.152 C 
ATOM    158  C6  IDS d 251      45.929  30.686  15.733  0.00  0.00     0.206 C 
ATOM    159  S   IDS d 251      51.522  33.315  13.737  0.00  0.00     0.252 S 
ATOM    160  O3  IDS d 251      50.855  30.810  16.561  0.00  0.00    -0.390 OA
ATOM    161  O61 IDS d 251      45.373  30.602  14.634  0.00  0.00    -0.646 OA
ATOM    162  O3S IDS d 251      52.698  34.148  13.817  0.00  0.00    -0.572 OA
ATOM    163  O2  IDS d 251      50.958  33.256  15.254  0.00  0.00    -0.244 OA
ATOM    164  O2S IDS d 251      50.487  33.871  12.884  0.00  0.00    -0.572 OA
ATOM    165  O5  IDS d 251      47.559  32.234  14.676  0.00  0.00    -0.340 OA
ATOM    166  C3  IDS d 251      49.812  31.223  15.700  0.00  0.00     0.094 C 
ATOM    167  O1S IDS d 251      51.829  31.933  13.394  0.00  0.00    -0.572 OA
ATOM    168  O1  IDS d 251      48.009  34.425  15.524  0.00  0.00    -0.348 OA
ATOM    169  H   IDS d 251      49.496  33.093  16.721  0.00  0.00     0.097 H 
ATOM    170  H   IDS d 251      48.856  33.546  13.857  0.00  0.00     0.133 H 
ATOM    171  H   IDS d 251      48.579  30.093  17.076  0.00  0.00     0.092 H 
ATOM    172  H   IDS d 251      47.208  32.042  16.759  0.00  0.00     0.104 H 
ATOM    173  H   IDS d 251      51.672  31.277  16.326  0.00  0.00     0.210 HD
ATOM    174  H   IDS d 251      50.012  30.965  14.681  0.00  0.00     0.091 H 
ATOM    175  O5S SGN d 248      51.068  23.020   3.042  0.00  0.00    -0.572 OA
ATOM    176  O4S SGN d 248      53.316  23.816   2.625  0.00  0.00    -0.572 OA
ATOM    177  O2S SGN d 248      46.316  29.343   3.991  0.00  0.00    -0.296 OA
ATOM    178  O1  SGN d 248      49.593  27.312   6.697  0.00  0.00    -0.348 OA
ATOM    179  S1  SGN d 248      46.987  28.191   3.403  0.00  0.00     0.156 S 
ATOM    180  O3  SGN d 248      47.548  24.456   4.556  0.00  0.00    -0.391 OA
ATOM    181  O1S SGN d 248      46.109  27.336   2.633  0.00  0.00    -0.296 OA
ATOM    182  N   SGN d 248      47.557  27.319   4.690  0.00  0.00    -0.210 NA
ATOM    183  S2  SGN d 248      52.103  23.972   3.406  0.00  0.00     0.251 S 
ATOM    184  C4  SGN d 248      49.867  24.333   5.200  0.00  0.00     0.095 C 
ATOM    185  C6  SGN d 248      52.346  24.428   5.985  0.00  0.00     0.067 C 
ATOM    186  O6S SGN d 248      51.621  25.339   3.445  0.00  0.00    -0.572 OA
ATOM    187  O3S SGN d 248      48.154  28.575   2.632  0.00  0.00    -0.296 OA
ATOM    188  O5  SGN d 248      51.157  26.441   5.342  0.00  0.00    -0.349 OA
ATOM    189  C2  SGN d 248      48.808  26.514   4.604  0.00  0.00     0.081 C 
ATOM    190  C3  SGN d 248      48.572  25.144   5.257  0.00  0.00     0.083 C 
ATOM    191  C1  SGN d 248      49.968  27.224   5.380  0.00  0.00     0.150 C 
ATOM    192  O6  SGN d 248      52.452  23.598   4.871  0.00  0.00    -0.254 OA
ATOM    193  C5  SGN d 248      50.977  25.127   5.971  0.00  0.00     0.091 C 
ATOM    194  H   SGN d 248      45.543  29.044   4.497  0.00  0.00     0.231 HD
ATOM    195  H   SGN d 248      47.399  23.591   4.969  0.00  0.00     0.210 HD
ATOM    196  H   SGN d 248      45.339  27.095   3.171  0.00  0.00     0.231 HD
ATOM    197  H   SGN d 248      46.814  26.668   4.946  0.00  0.00     0.140 HD
ATOM    198  H   SGN d 248      50.191  24.170   4.194  0.00  0.00     0.091 H 
ATOM    199  H   SGN d 248      52.439  23.843   6.876  0.00  0.00     0.080 H 
ATOM    200  H   SGN d 248      53.123  25.163   5.960  0.00  0.00     0.080 H 
ATOM    201  H   SGN d 248      48.724  29.146   3.170  0.00  0.00     0.231 HD
ATOM    202  H   SGN d 248      49.073  26.406   3.572  0.00  0.00     0.076 H 
ATOM    203  H   SGN d 248      48.274  25.276   6.276  0.00  0.00     0.089 H 
ATOM    204  H   SGN d 248      50.150  28.179   4.934  0.00  0.00     0.131 H 
ATOM    205  H   SGN d 248      50.639  25.200   6.984  0.00  0.00     0.090 H 
ENDROOT
TORSDOF 64
ENDMDL
MODEL 18
REMARK VINA RESULT:      -2.4      3.421      5.241
REMARK  0 active torsions:
REMARK  status: ('A' for Active; 'I' for Inactive)
REMARK       I    between atoms: C5_1  and  C6_97 
REMARK       I    between atoms: O2_2  and  C2_107 
REMARK       I    between atoms: O2_2  and  S_88 
REMARK       I    between atoms: O3_4  and  C3_95 
REMARK       I    between atoms: C1_5  and  O1_40 
REMARK       I    between atoms: C3_6  and  C2_70 
REMARK       I    between atoms: C3_6  and  O3_51 
REMARK       I    between atoms: C2_7  and  O2_9 
REMARK       I    between atoms: C2_8  and  O2_75 
REMARK       I    between atoms: O2_9  and  S_23 
REMARK       I    between atoms: S2_14  and  O6_117 
REMARK       I    between atoms: C1_15  and  O1_130 
REMARK       I    between atoms: C4_16  and  O1_59 
REMARK       I    between atoms: S1_17  and  N_128 
REMARK       I    between atoms: S1_17  and  O1S_46 
REMARK       I    between atoms: S1_17  and  O2S_29 
REMARK       I    between atoms: S1_17  and  O3S_24 
REMARK       I    between atoms: C2_18  and  N_86 
REMARK       I    between atoms: S1_19  and  N_86 
REMARK       I    between atoms: S1_19  and  O1S_71 
REMARK       I    between atoms: S1_19  and  O2S_34 
REMARK       I    between atoms: S1_19  and  O3S_81 
REMARK       I    between atoms: O2S_22  and  S1_111 
REMARK       I    between atoms: C1_25  and  O1_58 
REMARK       I    between atoms: C4_27  and  O1_58 
REMARK       I    between atoms: O2S_28  and  S1_48 
REMARK       I    between atoms: O3_32  and  C3_49 
REMARK       I    between atoms: O2_33  and  C2_70 
REMARK       I    between atoms: O2_33  and  S_133 
REMARK       I    between atoms: C5_37  and  C6_84 
REMARK       I    between atoms: C5_41  and  C6_43 
REMARK       I    between atoms: O6_42  and  C6_84 
REMARK       I    between atoms: O6_42  and  S2_77 
REMARK       I    between atoms: C5_44  and  C6_108 
REMARK       I    between atoms: O1_45  and  C1_120 
REMARK       I    between atoms: O1_45  and  C4_114 
REMARK       I    between atoms: S2_47  and  O6_94 
REMARK       I    between atoms: S1_48  and  N_53 
REMARK       I    between atoms: S1_48  and  O1S_52 
REMARK       I    between atoms: S1_48  and  O3S_83 
REMARK       I    between atoms: O3_50  and  C3_119 
REMARK       I    between atoms: N_53  and  C2_89 
REMARK       I    between atoms: S_55  and  O2_75 
REMARK       I    between atoms: O3_56  and  C3_124 
REMARK       I    between atoms: O1_59  and  C1_110 
REMARK       I    between atoms: S2_60  and  O6_132 
REMARK       I    between atoms: O3_61  and  C3_115 
REMARK       I    between atoms: C6_62  and  C5_106 
REMARK       I    between atoms: C6_62  and  O6_94 
REMARK       I    between atoms: C4_63  and  O1_96 
REMARK       I    between atoms: O3_67  and  C3_93 
REMARK       I    between atoms: O1_69  and  C1_113 
REMARK       I    between atoms: O1_69  and  C4_103 
REMARK       I    between atoms: C2_70  and  C1_76 
REMARK       I    between atoms: C5_74  and  C6_90 
REMARK       I    between atoms: C1_76  and  O1_96 
REMARK       I    between atoms: C4_78  and  O1_112 
REMARK       I    between atoms: C6_80  and  C5_134 
REMARK       I    between atoms: C6_80  and  O6_132 
REMARK       I    between atoms: C6_90  and  O6_117 
REMARK       I    between atoms: C2_98  and  N_128 
REMARK       I    between atoms: C1_100  and  O1_112 
REMARK       I    between atoms: S1_111  and  O1S_116 
REMARK       I    between atoms: C4_127  and  O1_130 
ROOT
ATOM      1  C5  IDS d 249      47.504  27.424  10.554  0.00  0.00     0.152 C 
ATOM      2  O2  IDS d 249      51.133  26.971  12.484  0.00  0.00    -0.244 OA
ATOM      3  O1S IDS d 249      52.217  25.090  11.383  0.00  0.00    -0.572 OA
ATOM      4  O5  IDS d 249      48.659  28.159  10.088  0.00  0.00    -0.340 OA
ATOM      5  O1  IDS d 249      49.344  29.428  11.882  0.00  0.00    -0.348 OA
ATOM      6  O62 IDS d 249      46.530  27.795   8.374  0.00  0.00    -0.646 OA
ATOM      7  O3  IDS d 249      48.936  24.818  12.158  0.00  0.00    -0.390 OA
ATOM      8  S   IDS d 249      52.404  26.516  11.593  0.00  0.00     0.252 S 
ATOM      9  C3  IDS d 249      49.344  25.861  11.379  0.00  0.00     0.094 C 
ATOM     10  C6  IDS d 249      46.336  27.627   9.565  0.00  0.00     0.206 C 
ATOM     11  O3S IDS d 249      53.576  26.817  12.386  0.00  0.00    -0.572 OA
ATOM     12  C2  IDS d 249      49.769  27.149  12.046  0.00  0.00     0.134 C 
ATOM     13  C1  IDS d 249      49.663  28.357  11.076  0.00  0.00     0.161 C 
ATOM     14  C4  IDS d 249      47.941  25.926  10.720  0.00  0.00     0.103 C 
ATOM     15  O2S IDS d 249      52.359  27.250  10.352  0.00  0.00    -0.572 OA
ATOM     16  O61 IDS d 249      45.172  27.629   9.965  0.00  0.00    -0.646 OA
ATOM     17  H   IDS d 249      47.149  27.773  11.502  0.00  0.00     0.104 H 
ATOM     18  H   IDS d 249      49.667  24.535  12.729  0.00  0.00     0.210 HD
ATOM     19  H   IDS d 249      50.241  25.735  10.809  0.00  0.00     0.091 H 
ATOM     20  H   IDS d 249      49.123  27.363  12.871  0.00  0.00     0.097 H 
ATOM     21  H   IDS d 249      50.574  28.504  10.535  0.00  0.00     0.133 H 
ATOM     22  H   IDS d 249      47.312  25.275  11.289  0.00  0.00     0.092 H 
ATOM     23  O3  SGN d 246      49.463  23.341  -2.345  0.00  0.00    -0.215 OA
ATOM     24  S2  SGN d 246      54.476  19.193  -1.468  0.00  0.00     0.251 S 
ATOM     25  O6S SGN d 246      55.057  20.458  -1.114  0.00  0.00    -0.572 OA
ATOM     26  O2S SGN d 246      51.397  26.694  -2.986  0.00  0.00    -0.294 OA
ATOM     27  C3  SGN d 246      50.278  22.910  -1.277  0.00  0.00     0.121 C 
ATOM     28  C2  SGN d 246      51.566  23.744  -1.223  0.00  0.00     0.084 C 
ATOM     29  O4S SGN d 246      54.716  18.166  -0.488  0.00  0.00    -0.572 OA
ATOM     30  O5S SGN d 246      54.809  18.785  -2.810  0.00  0.00    -0.572 OA
ATOM     31  N   SGN d 246      51.235  25.157  -1.032  0.00  0.00    -0.208 NA
ATOM     32  C4  SGN d 246      50.666  21.474  -1.503  0.00  0.00     0.095 C 
ATOM     33  O1  SGN d 246      51.798  23.351   1.204  0.00  0.00    -0.348 OA
ATOM     34  C5  SGN d 246      51.587  20.996  -0.303  0.00  0.00     0.091 C 
ATOM     35  C6  SGN d 246      52.086  19.534  -0.416  0.00  0.00     0.067 C 
ATOM     36  S1  SGN d 246      50.416  25.978  -2.196  0.00  0.00     0.188 S 
ATOM     37  C1  SGN d 246      52.486  23.230  -0.029  0.00  0.00     0.151 C 
ATOM     38  O1S SGN d 246      49.472  26.854  -1.529  0.00  0.00    -0.294 OA
ATOM     39  O6  SGN d 246      52.953  19.421  -1.511  0.00  0.00    -0.254 OA
ATOM     40  O5  SGN d 246      52.788  21.849  -0.216  0.00  0.00    -0.349 OA
ATOM     41  O3S SGN d 246      49.750  24.944  -2.959  0.00  0.00    -0.119 OA
ATOM     42  H   SGN d 246      51.818  27.375  -2.438  0.00  0.00     0.231 HD
ATOM     43  H   SGN d 246      49.735  23.022  -0.362  0.00  0.00     0.095 H 
ATOM     44  H   SGN d 246      52.099  23.635  -2.145  0.00  0.00     0.077 H 
ATOM     45  H   SGN d 246      52.118  25.649  -0.891  0.00  0.00     0.140 HD
ATOM     46  H   SGN d 246      51.223  21.343  -2.407  0.00  0.00     0.091 H 
ATOM     47  H   SGN d 246      50.962  21.069   0.562  0.00  0.00     0.090 H 
ATOM     48  H   SGN d 246      51.249  18.881  -0.553  0.00  0.00     0.080 H 
ATOM     49  H   SGN d 246      52.604  19.264   0.481  0.00  0.00     0.080 H 
ATOM     50  H   SGN d 246      53.379  23.819  -0.017  0.00  0.00     0.131 H 
ATOM     51  H   SGN d 246      49.956  27.531  -1.030  0.00  0.00     0.231 HD
ATOM     52  O3  SGN d 250      47.374  31.250  11.028  0.00  0.00    -0.391 OA
ATOM     53  O5S SGN d 250      55.061  31.256  13.729  0.00  0.00    -0.572 OA
ATOM     54  C4  SGN d 250      49.697  30.736  11.472  0.00  0.00     0.095 C 
ATOM     55  S1  SGN d 250      46.571  34.441  10.639  0.00  0.00     0.156 S 
ATOM     56  O3S SGN d 250      46.671  35.892  10.540  0.00  0.00    -0.296 OA
ATOM     57  C1  SGN d 250      50.147  33.468  12.291  0.00  0.00     0.150 C 
ATOM     58  O2S SGN d 250      45.292  34.005  11.224  0.00  0.00    -0.296 OA
ATOM     59  C5  SGN d 250      50.954  31.211  12.278  0.00  0.00     0.091 C 
ATOM     60  O6  SGN d 250      52.975  30.278  13.157  0.00  0.00    -0.254 OA
ATOM     61  O1S SGN d 250      46.881  33.800   9.370  0.00  0.00    -0.296 OA
ATOM     62  O1  SGN d 250      49.824  33.054  13.605  0.00  0.00    -0.348 OA
ATOM     63  S2  SGN d 250      54.516  30.027  13.217  0.00  0.00     0.251 S 
ATOM     64  C6  SGN d 250      52.200  30.362  11.999  0.00  0.00     0.067 C 
ATOM     65  C3  SGN d 250      48.505  31.667  11.783  0.00  0.00     0.083 C 
ATOM     66  C2  SGN d 250      48.887  33.126  11.402  0.00  0.00     0.081 C 
ATOM     67  O6S SGN d 250      54.703  28.916  14.139  0.00  0.00    -0.572 OA
ATOM     68  O5  SGN d 250      51.248  32.618  11.927  0.00  0.00    -0.349 OA
ATOM     69  O4S SGN d 250      54.960  29.737  11.863  0.00  0.00    -0.572 OA
ATOM     70  N   SGN d 250      47.741  34.028  11.750  0.00  0.00    -0.210 NA
ATOM     71  H   SGN d 250      47.142  30.340  11.269  0.00  0.00     0.210 HD
ATOM     72  H   SGN d 250      49.925  30.756  10.427  0.00  0.00     0.091 H 
ATOM     73  H   SGN d 250      47.526  36.131  10.152  0.00  0.00     0.231 HD
ATOM     74  H   SGN d 250      50.392  34.504  12.184  0.00  0.00     0.131 H 
ATOM     75  H   SGN d 250      45.271  33.037  11.270  0.00  0.00     0.231 HD
ATOM     76  H   SGN d 250      50.721  31.108  13.317  0.00  0.00     0.090 H 
ATOM     77  H   SGN d 250      46.806  32.838   9.467  0.00  0.00     0.231 HD
ATOM     78  H   SGN d 250      52.773  30.815  11.218  0.00  0.00     0.080 H 
ATOM     79  H   SGN d 250      51.901  29.379  11.698  0.00  0.00     0.080 H 
ATOM     80  H   SGN d 250      48.267  31.622  12.825  0.00  0.00     0.089 H 
ATOM     81  H   SGN d 250      49.101  33.246  10.361  0.00  0.00     0.076 H 
ATOM     82  H   SGN d 250      47.253  33.581  12.527  0.00  0.00     0.140 HD
ATOM     83  C1  SGN d 252      50.518  31.337  21.580  0.00  0.00     0.147 C 
ATOM     84  C2  SGN d 252      50.933  30.764  20.206  0.00  0.00     0.081 C 
ATOM     85  S1  SGN d 252      53.172  29.242  20.412  0.00  0.00     0.156 S 
ATOM     86  O3  SGN d 252      50.756  31.173  17.894  0.00  0.00    -0.391 OA
ATOM     87  O2S SGN d 252      52.953  28.439  19.227  0.00  0.00    -0.296 OA
ATOM     88  O1  SGN d 252      51.107  32.643  21.743  0.00  0.00    -0.369 OA
ATOM     89  S2  SGN d 252      45.187  30.244  20.642  0.00  0.00     0.251 S 
ATOM     90  C3  SGN d 252      50.379  31.689  19.126  0.00  0.00     0.083 C 
ATOM     91  C6  SGN d 252      46.943  32.257  20.968  0.00  0.00     0.067 C 
ATOM     92  O6S SGN d 252      45.401  30.019  22.068  0.00  0.00    -0.572 OA
ATOM     93  O1S SGN d 252      52.576  28.669  21.604  0.00  0.00    -0.296 OA
ATOM     94  O3S SGN d 252      54.585  29.560  20.606  0.00  0.00    -0.296 OA
ATOM     95  N   SGN d 252      52.422  30.697  20.128  0.00  0.00    -0.210 NA
ATOM     96  O5  SGN d 252      49.067  31.414  21.671  0.00  0.00    -0.350 OA
ATOM     97  O6  SGN d 252      46.296  31.278  20.182  0.00  0.00    -0.254 OA
ATOM     98  O5S SGN d 252      45.463  29.056  19.841  0.00  0.00    -0.572 OA
ATOM     99  C5  SGN d 252      48.445  32.235  20.658  0.00  0.00     0.091 C 
ATOM    100  C4  SGN d 252      48.810  31.707  19.235  0.00  0.00     0.095 C 
ATOM    101  O4S SGN d 252      43.889  30.837  20.347  0.00  0.00    -0.572 OA
ATOM    102  H   SGN d 252      50.868  30.693  22.361  0.00  0.00     0.131 H 
ATOM    103  H   SGN d 252      50.544  29.777  20.068  0.00  0.00     0.076 H 
ATOM    104  H   SGN d 252      51.724  31.164  17.830  0.00  0.00     0.210 HD
ATOM    105  H   SGN d 252      52.006  28.251  19.135  0.00  0.00     0.231 HD
ATOM    106  H   SGN d 252      50.793  33.229  21.037  0.00  0.00     0.212 HD
ATOM    107  H   SGN d 252      50.752  32.685  19.239  0.00  0.00     0.089 H 
ATOM    108  H   SGN d 252      46.544  33.222  20.738  0.00  0.00     0.080 H 
ATOM    109  H   SGN d 252      46.785  32.048  22.005  0.00  0.00     0.080 H 
ATOM    110  H   SGN d 252      51.641  28.472  21.435  0.00  0.00     0.231 HD
ATOM    111  H   SGN d 252      54.689  30.096  21.408  0.00  0.00     0.231 HD
ATOM    112  H   SGN d 252      52.788  31.361  20.810  0.00  0.00     0.140 HD
ATOM    113  H   SGN d 252      48.801  33.243  20.668  0.00  0.00     0.090 H 
ATOM    114  H   SGN d 252      48.429  30.723  19.059  0.00  0.00     0.091 H 
ATOM    115  C3  IDS d 245      49.024  18.196  -4.163  0.00  0.00     0.044 C 
ATOM    116  O2S IDS d 245      49.244  17.388   0.342  0.00  0.00    -0.572 OA
ATOM    117  O2  IDS d 245      49.805  18.113  -1.926  0.00  0.00    -0.247 OA
ATOM    118  O3S IDS d 245      48.646  16.028  -1.572  0.00  0.00    -0.572 OA
ATOM    119  O3  IDS d 245      48.740  16.818  -4.152  0.00  0.00    -0.398 OA
ATOM    120  C2  IDS d 245      48.856  18.751  -2.780  0.00  0.00     0.100 C 
ATOM    121  C1  IDS d 245      49.154  20.225  -2.872  0.00  0.00     0.048 C 
ATOM    122  O1  IDS d 245      49.454  20.714  -1.590  0.00  0.00    -0.378 OA
ATOM    123  O1S IDS d 245      50.963  16.276  -0.932  0.00  0.00    -0.572 OA
ATOM    124  S   IDS d 245      49.638  16.881  -0.960  0.00  0.00     0.252 S 
ATOM    125  H   IDS d 245      50.031  18.350  -4.490  0.00  0.00     0.078 H 
ATOM    126  H   IDS d 245      48.353  18.694  -4.832  0.00  0.00     0.078 H 
ATOM    127  H   IDS d 245      49.348  16.366  -3.546  0.00  0.00     0.209 HD
ATOM    128  H   IDS d 245      47.873  18.587  -2.392  0.00  0.00     0.092 H 
ATOM    129  H   IDS d 245      48.301  20.740  -3.261  0.00  0.00     0.078 H 
ATOM    130  H   IDS d 245      49.988  20.384  -3.523  0.00  0.00     0.078 H 
ATOM    131  C2  IDS d 247      50.514  26.150   3.049  0.00  0.00     0.134 C 
ATOM    132  O2  IDS d 247      49.616  27.182   2.589  0.00  0.00    -0.244 OA
ATOM    133  S   IDS d 247      49.920  28.760   2.339  0.00  0.00     0.252 S 
ATOM    134  C5  IDS d 247      51.771  23.778   3.569  0.00  0.00     0.152 C 
ATOM    135  O1S IDS d 247      51.063  29.038   3.185  0.00  0.00    -0.572 OA
ATOM    136  O3  IDS d 247      51.970  26.598   1.197  0.00  0.00    -0.390 OA
ATOM    137  O3S IDS d 247      48.724  29.498   2.756  0.00  0.00    -0.572 OA
ATOM    138  O62 IDS d 247      51.534  21.413   3.961  0.00  0.00    -0.646 OA
ATOM    139  O61 IDS d 247      53.493  22.111   3.808  0.00  0.00    -0.646 OA
ATOM    140  O5  IDS d 247      50.328  23.778   3.716  0.00  0.00    -0.340 OA
ATOM    141  O2S IDS d 247      50.229  28.931   0.935  0.00  0.00    -0.572 OA
ATOM    142  C1  IDS d 247      49.716  25.067   3.803  0.00  0.00     0.161 C 
ATOM    143  C4  IDS d 247      52.132  24.366   2.147  0.00  0.00     0.103 C 
ATOM    144  C6  IDS d 247      52.295  22.346   3.798  0.00  0.00     0.206 C 
ATOM    145  O1  IDS d 247      49.630  25.504   5.111  0.00  0.00    -0.348 OA
ATOM    146  C3  IDS d 247      51.212  25.574   1.830  0.00  0.00     0.094 C 
ATOM    147  H   IDS d 247      51.242  26.543   3.727  0.00  0.00     0.097 H 
ATOM    148  H   IDS d 247      52.249  24.400   4.297  0.00  0.00     0.104 H 
ATOM    149  H   IDS d 247      51.393  27.353   0.999  0.00  0.00     0.210 HD
ATOM    150  H   IDS d 247      48.748  24.939   3.367  0.00  0.00     0.133 H 
ATOM    151  H   IDS d 247      53.159  24.664   2.114  0.00  0.00     0.092 H 
ATOM    152  H   IDS d 247      50.445  25.204   1.181  0.00  0.00     0.091 H 
ATOM    153  C2  IDS d 251      47.401  33.510  16.177  0.00  0.00     0.134 C 
ATOM    154  C1  IDS d 251      48.091  32.290  16.850  0.00  0.00     0.161 C 
ATOM    155  O62 IDS d 251      52.499  33.735  15.597  0.00  0.00    -0.646 OA
ATOM    156  C4  IDS d 251      49.449  33.893  14.623  0.00  0.00     0.103 C 
ATOM    157  C5  IDS d 251      50.123  33.255  15.875  0.00  0.00     0.152 C 
ATOM    158  C6  IDS d 251      51.629  32.882  15.650  0.00  0.00     0.206 C 
ATOM    159  S   IDS d 251      45.198  31.978  15.564  0.00  0.00     0.252 S 
ATOM    160  O3  IDS d 251      47.287  34.892  14.209  0.00  0.00    -0.390 OA
ATOM    161  O61 IDS d 251      51.972  31.704  15.511  0.00  0.00    -0.646 OA
ATOM    162  O3S IDS d 251      43.820  32.223  15.919  0.00  0.00    -0.572 OA
ATOM    163  O2  IDS d 251      45.991  33.295  16.073  0.00  0.00    -0.244 OA
ATOM    164  O2S IDS d 251      45.760  30.818  16.232  0.00  0.00    -0.572 OA
ATOM    165  O5  IDS d 251      49.359  32.045  16.218  0.00  0.00    -0.340 OA
ATOM    166  C3  IDS d 251      47.913  33.744  14.748  0.00  0.00     0.094 C 
ATOM    167  O1S IDS d 251      45.414  31.938  14.125  0.00  0.00    -0.572 OA
ATOM    168  O1  IDS d 251      48.226  32.633  18.241  0.00  0.00    -0.348 OA
ATOM    169  H   IDS d 251      47.627  34.355  16.793  0.00  0.00     0.097 H 
ATOM    170  H   IDS d 251      47.526  31.387  16.749  0.00  0.00     0.133 H 
ATOM    171  H   IDS d 251      49.712  34.922  14.492  0.00  0.00     0.092 H 
ATOM    172  H   IDS d 251      50.112  33.976  16.665  0.00  0.00     0.104 H 
ATOM    173  H   IDS d 251      46.324  34.802  14.285  0.00  0.00     0.210 HD
ATOM    174  H   IDS d 251      47.659  32.860  14.201  0.00  0.00     0.091 H 
ATOM    175  O5S SGN d 248      47.868  23.214   3.876  0.00  0.00    -0.572 OA
ATOM    176  O4S SGN d 248      45.454  23.259   3.697  0.00  0.00    -0.572 OA
ATOM    177  O2S SGN d 248      49.786  21.962  11.506  0.00  0.00    -0.296 OA
ATOM    178  O1  SGN d 248      48.114  25.681   9.149  0.00  0.00    -0.348 OA
ATOM    179  S1  SGN d 248      49.540  21.744  10.086  0.00  0.00     0.156 S 
ATOM    180  O3  SGN d 248      50.726  23.557   6.784  0.00  0.00    -0.391 OA
ATOM    181  O1S SGN d 248      50.539  20.918   9.441  0.00  0.00    -0.296 OA
ATOM    182  N   SGN d 248      49.598  23.251   9.402  0.00  0.00    -0.210 NA
ATOM    183  S2  SGN d 248      46.619  23.676   4.455  0.00  0.00     0.251 S 
ATOM    184  C4  SGN d 248      48.799  24.774   6.002  0.00  0.00     0.095 C 
ATOM    185  C6  SGN d 248      46.664  26.133   5.394  0.00  0.00     0.067 C 
ATOM    186  O6S SGN d 248      46.514  23.384   5.871  0.00  0.00    -0.572 OA
ATOM    187  O3S SGN d 248      48.203  21.242   9.835  0.00  0.00    -0.296 OA
ATOM    188  O5  SGN d 248      46.820  24.912   7.484  0.00  0.00    -0.349 OA
ATOM    189  C2  SGN d 248      48.778  23.605   8.209  0.00  0.00     0.081 C 
ATOM    190  C3  SGN d 248      49.651  24.379   7.209  0.00  0.00     0.083 C 
ATOM    191  C1  SGN d 248      47.584  24.530   8.623  0.00  0.00     0.150 C 
ATOM    192  O6  SGN d 248      46.708  25.221   4.341  0.00  0.00    -0.254 OA
ATOM    193  C5  SGN d 248      47.615  25.669   6.509  0.00  0.00     0.091 C 
ATOM    194  H   SGN d 248      50.688  22.296  11.630  0.00  0.00     0.231 HD
ATOM    195  H   SGN d 248      51.277  24.046   6.154  0.00  0.00     0.210 HD
ATOM    196  H   SGN d 248      51.421  21.276   9.625  0.00  0.00     0.231 HD
ATOM    197  H   SGN d 248      50.571  23.408   9.138  0.00  0.00     0.140 HD
ATOM    198  H   SGN d 248      48.398  23.919   5.501  0.00  0.00     0.091 H 
ATOM    199  H   SGN d 248      46.968  27.097   5.044  0.00  0.00     0.080 H 
ATOM    200  H   SGN d 248      45.667  26.192   5.776  0.00  0.00     0.080 H 
ATOM    201  H   SGN d 248      47.555  21.812  10.277  0.00  0.00     0.231 HD
ATOM    202  H   SGN d 248      48.404  22.703   7.772  0.00  0.00     0.076 H 
ATOM    203  H   SGN d 248      50.042  25.258   7.677  0.00  0.00     0.089 H 
ATOM    204  H   SGN d 248      46.962  24.004   9.316  0.00  0.00     0.131 H 
ATOM    205  H   SGN d 248      48.066  26.541   6.936  0.00  0.00     0.090 H 
ENDROOT
TORSDOF 64
ENDMDL
MODEL 19
REMARK VINA RESULT:      -1.2      4.028      8.565
REMARK  0 active torsions:
REMARK  status: ('A' for Active; 'I' for Inactive)
REMARK       I    between atoms: C5_1  and  C6_97 
REMARK       I    between atoms: O2_2  and  C2_107 
REMARK       I    between atoms: O2_2  and  S_88 
REMARK       I    between atoms: O3_4  and  C3_95 
REMARK       I    between atoms: C1_5  and  O1_40 
REMARK       I    between atoms: C3_6  and  C2_70 
REMARK       I    between atoms: C3_6  and  O3_51 
REMARK       I    between atoms: C2_7  and  O2_9 
REMARK       I    between atoms: C2_8  and  O2_75 
REMARK       I    between atoms: O2_9  and  S_23 
REMARK       I    between atoms: S2_14  and  O6_117 
REMARK       I    between atoms: C1_15  and  O1_130 
REMARK       I    between atoms: C4_16  and  O1_59 
REMARK       I    between atoms: S1_17  and  N_128 
REMARK       I    between atoms: S1_17  and  O1S_46 
REMARK       I    between atoms: S1_17  and  O2S_29 
REMARK       I    between atoms: S1_17  and  O3S_24 
REMARK       I    between atoms: C2_18  and  N_86 
REMARK       I    between atoms: S1_19  and  N_86 
REMARK       I    between atoms: S1_19  and  O1S_71 
REMARK       I    between atoms: S1_19  and  O2S_34 
REMARK       I    between atoms: S1_19  and  O3S_81 
REMARK       I    between atoms: O2S_22  and  S1_111 
REMARK       I    between atoms: C1_25  and  O1_58 
REMARK       I    between atoms: C4_27  and  O1_58 
REMARK       I    between atoms: O2S_28  and  S1_48 
REMARK       I    between atoms: O3_32  and  C3_49 
REMARK       I    between atoms: O2_33  and  C2_70 
REMARK       I    between atoms: O2_33  and  S_133 
REMARK       I    between atoms: C5_37  and  C6_84 
REMARK       I    between atoms: C5_41  and  C6_43 
REMARK       I    between atoms: O6_42  and  C6_84 
REMARK       I    between atoms: O6_42  and  S2_77 
REMARK       I    between atoms: C5_44  and  C6_108 
REMARK       I    between atoms: O1_45  and  C1_120 
REMARK       I    between atoms: O1_45  and  C4_114 
REMARK       I    between atoms: S2_47  and  O6_94 
REMARK       I    between atoms: S1_48  and  N_53 
REMARK       I    between atoms: S1_48  and  O1S_52 
REMARK       I    between atoms: S1_48  and  O3S_83 
REMARK       I    between atoms: O3_50  and  C3_119 
REMARK       I    between atoms: N_53  and  C2_89 
REMARK       I    between atoms: S_55  and  O2_75 
REMARK       I    between atoms: O3_56  and  C3_124 
REMARK       I    between atoms: O1_59  and  C1_110 
REMARK       I    between atoms: S2_60  and  O6_132 
REMARK       I    between atoms: O3_61  and  C3_115 
REMARK       I    between atoms: C6_62  and  C5_106 
REMARK       I    between atoms: C6_62  and  O6_94 
REMARK       I    between atoms: C4_63  and  O1_96 
REMARK       I    between atoms: O3_67  and  C3_93 
REMARK       I    between atoms: O1_69  and  C1_113 
REMARK       I    between atoms: O1_69  and  C4_103 
REMARK       I    between atoms: C2_70  and  C1_76 
REMARK       I    between atoms: C5_74  and  C6_90 
REMARK       I    between atoms: C1_76  and  O1_96 
REMARK       I    between atoms: C4_78  and  O1_112 
REMARK       I    between atoms: C6_80  and  C5_134 
REMARK       I    between atoms: C6_80  and  O6_132 
REMARK       I    between atoms: C6_90  and  O6_117 
REMARK       I    between atoms: C2_98  and  N_128 
REMARK       I    between atoms: C1_100  and  O1_112 
REMARK       I    between atoms: S1_111  and  O1S_116 
REMARK       I    between atoms: C4_127  and  O1_130 
ROOT
ATOM      1  C5  IDS d 249      49.411  29.050  13.889  0.00  0.00     0.152 C 
ATOM      2  O2  IDS d 249      50.540  32.824  12.633  0.00  0.00    -0.244 OA
ATOM      3  O1S IDS d 249      51.131  32.572  10.284  0.00  0.00    -0.572 OA
ATOM      4  O5  IDS d 249      48.413  29.962  13.376  0.00  0.00    -0.340 OA
ATOM      5  O1  IDS d 249      48.512  31.811  14.744  0.00  0.00    -0.348 OA
ATOM      6  O62 IDS d 249      47.856  27.262  13.415  0.00  0.00    -0.646 OA
ATOM      7  O3  IDS d 249      52.238  30.243  12.474  0.00  0.00    -0.390 OA
ATOM      8  S   IDS d 249      50.159  33.257  11.122  0.00  0.00     0.252 S 
ATOM      9  C3  IDS d 249      50.897  30.487  12.393  0.00  0.00     0.094 C 
ATOM     10  C6  IDS d 249      48.769  27.664  14.115  0.00  0.00     0.206 C 
ATOM     11  O3S IDS d 249      50.293  34.697  11.071  0.00  0.00    -0.572 OA
ATOM     12  C2  IDS d 249      50.293  31.555  13.274  0.00  0.00     0.134 C 
ATOM     13  C1  IDS d 249      48.770  31.335  13.477  0.00  0.00     0.161 C 
ATOM     14  C4  IDS d 249      50.600  29.039  12.865  0.00  0.00     0.103 C 
ATOM     15  O2S IDS d 249      48.814  32.806  10.859  0.00  0.00    -0.572 OA
ATOM     16  O61 IDS d 249      49.167  26.931  15.020  0.00  0.00    -0.646 OA
ATOM     17  H   IDS d 249      49.796  29.353  14.840  0.00  0.00     0.104 H 
ATOM     18  H   IDS d 249      52.727  31.039  12.215  0.00  0.00     0.210 HD
ATOM     19  H   IDS d 249      50.518  30.879  11.473  0.00  0.00     0.091 H 
ATOM     20  H   IDS d 249      50.738  31.521  14.246  0.00  0.00     0.097 H 
ATOM     21  H   IDS d 249      48.200  31.837  12.723  0.00  0.00     0.133 H 
ATOM     22  H   IDS d 249      51.535  28.627  13.180  0.00  0.00     0.092 H 
ATOM     23  O3  SGN d 246      44.024  22.811   2.983  0.00  0.00    -0.215 OA
ATOM     24  S2  SGN d 246      47.113  26.056  -1.817  0.00  0.00     0.251 S 
ATOM     25  O6S SGN d 246      46.308  27.084  -1.219  0.00  0.00    -0.572 OA
ATOM     26  O2S SGN d 246      40.830  25.046   3.432  0.00  0.00    -0.294 OA
ATOM     27  C3  SGN d 246      44.932  23.885   2.875  0.00  0.00     0.121 C 
ATOM     28  C2  SGN d 246      44.175  25.200   2.641  0.00  0.00     0.084 C 
ATOM     29  O4S SGN d 246      48.489  26.443  -1.986  0.00  0.00    -0.572 OA
ATOM     30  O5S SGN d 246      46.524  25.516  -3.016  0.00  0.00    -0.572 OA
ATOM     31  N   SGN d 246      43.265  25.454   3.760  0.00  0.00    -0.208 NA
ATOM     32  C4  SGN d 246      45.830  23.651   1.690  0.00  0.00     0.095 C 
ATOM     33  O1  SGN d 246      45.995  26.510   3.674  0.00  0.00    -0.348 OA
ATOM     34  C5  SGN d 246      46.846  24.864   1.569  0.00  0.00     0.091 C 
ATOM     35  C6  SGN d 246      47.822  24.770   0.371  0.00  0.00     0.067 C 
ATOM     36  S1  SGN d 246      41.999  24.445   4.040  0.00  0.00     0.188 S 
ATOM     37  C1  SGN d 246      45.215  26.397   2.498  0.00  0.00     0.151 C 
ATOM     38  O1S SGN d 246      41.877  24.288   5.477  0.00  0.00    -0.294 OA
ATOM     39  O6  SGN d 246      47.100  24.876  -0.827  0.00  0.00    -0.254 OA
ATOM     40  O5  SGN d 246      46.106  26.131   1.416  0.00  0.00    -0.349 OA
ATOM     41  O3S SGN d 246      42.378  23.209   3.390  0.00  0.00    -0.119 OA
ATOM     42  H   SGN d 246      40.611  25.869   3.896  0.00  0.00     0.231 HD
ATOM     43  H   SGN d 246      45.500  23.949   3.780  0.00  0.00     0.095 H 
ATOM     44  H   SGN d 246      43.602  25.125   1.740  0.00  0.00     0.077 H 
ATOM     45  H   SGN d 246      42.873  26.384   3.614  0.00  0.00     0.140 HD
ATOM     46  H   SGN d 246      45.282  23.599   0.772  0.00  0.00     0.091 H 
ATOM     47  H   SGN d 246      47.421  24.825   2.470  0.00  0.00     0.090 H 
ATOM     48  H   SGN d 246      48.333  23.830   0.399  0.00  0.00     0.080 H 
ATOM     49  H   SGN d 246      48.536  25.566   0.429  0.00  0.00     0.080 H 
ATOM     50  H   SGN d 246      44.665  27.299   2.327  0.00  0.00     0.131 H 
ATOM     51  H   SGN d 246      41.622  25.135   5.874  0.00  0.00     0.231 HD
ATOM     52  O3  SGN d 250      46.825  30.334  16.448  0.00  0.00    -0.391 OA
ATOM     53  O5S SGN d 250      47.598  37.909  13.549  0.00  0.00    -0.572 OA
ATOM     54  C4  SGN d 250      47.213  32.278  15.060  0.00  0.00     0.095 C 
ATOM     55  S1  SGN d 250      44.255  30.443  18.534  0.00  0.00     0.156 S 
ATOM     56  O3S SGN d 250      43.077  30.908  19.259  0.00  0.00    -0.296 OA
ATOM     57  C1  SGN d 250      45.607  33.877  16.849  0.00  0.00     0.150 C 
ATOM     58  O2S SGN d 250      45.117  29.581  19.360  0.00  0.00    -0.296 OA
ATOM     59  C5  SGN d 250      47.212  33.844  15.069  0.00  0.00     0.091 C 
ATOM     60  O6  SGN d 250      48.232  35.643  13.864  0.00  0.00    -0.254 OA
ATOM     61  O1S SGN d 250      43.891  29.852  17.255  0.00  0.00    -0.296 OA
ATOM     62  O1  SGN d 250      46.801  34.165  17.552  0.00  0.00    -0.348 OA
ATOM     63  S2  SGN d 250      48.271  36.839  12.860  0.00  0.00     0.251 S 
ATOM     64  C6  SGN d 250      47.525  34.451  13.696  0.00  0.00     0.067 C 
ATOM     65  C3  SGN d 250      46.852  31.755  16.467  0.00  0.00     0.083 C 
ATOM     66  C2  SGN d 250      45.454  32.305  16.870  0.00  0.00     0.081 C 
ATOM     67  O6S SGN d 250      49.681  37.129  12.640  0.00  0.00    -0.572 OA
ATOM     68  O5  SGN d 250      45.884  34.324  15.510  0.00  0.00    -0.349 OA
ATOM     69  O4S SGN d 250      47.571  36.419  11.657  0.00  0.00    -0.572 OA
ATOM     70  N   SGN d 250      45.134  31.830  18.256  0.00  0.00    -0.210 NA
ATOM     71  H   SGN d 250      47.699  29.997  16.195  0.00  0.00     0.210 HD
ATOM     72  H   SGN d 250      46.501  31.933  14.338  0.00  0.00     0.091 H 
ATOM     73  H   SGN d 250      42.542  31.469  18.678  0.00  0.00     0.231 HD
ATOM     74  H   SGN d 250      44.722  34.330  17.245  0.00  0.00     0.131 H 
ATOM     75  H   SGN d 250      45.884  29.298  18.839  0.00  0.00     0.231 HD
ATOM     76  H   SGN d 250      47.984  34.157  15.741  0.00  0.00     0.090 H 
ATOM     77  H   SGN d 250      44.692  29.553  16.798  0.00  0.00     0.231 HD
ATOM     78  H   SGN d 250      46.610  34.649  13.177  0.00  0.00     0.080 H 
ATOM     79  H   SGN d 250      48.115  33.763  13.128  0.00  0.00     0.080 H 
ATOM     80  H   SGN d 250      47.582  32.082  17.178  0.00  0.00     0.089 H 
ATOM     81  H   SGN d 250      44.671  31.981  16.218  0.00  0.00     0.076 H 
ATOM     82  H   SGN d 250      46.029  31.700  18.727  0.00  0.00     0.140 HD
ATOM     83  C1  SGN d 252      53.117  38.287  20.739  0.00  0.00     0.147 C 
ATOM     84  C2  SGN d 252      52.621  37.746  19.378  0.00  0.00     0.081 C 
ATOM     85  S1  SGN d 252      53.632  39.200  17.318  0.00  0.00     0.156 S 
ATOM     86  O3  SGN d 252      50.855  36.545  18.388  0.00  0.00    -0.391 OA
ATOM     87  O2S SGN d 252      53.512  38.177  16.300  0.00  0.00    -0.296 OA
ATOM     88  O1  SGN d 252      52.157  39.235  21.245  0.00  0.00    -0.369 OA
ATOM     89  S2  SGN d 252      54.005  33.185  22.657  0.00  0.00     0.251 S 
ATOM     90  C3  SGN d 252      51.297  37.025  19.613  0.00  0.00     0.083 C 
ATOM     91  C6  SGN d 252      52.469  35.369  22.990  0.00  0.00     0.067 C 
ATOM     92  O6S SGN d 252      55.061  34.019  23.222  0.00  0.00    -0.572 OA
ATOM     93  O1S SGN d 252      54.903  39.158  18.017  0.00  0.00    -0.296 OA
ATOM     94  O3S SGN d 252      53.341  40.533  16.795  0.00  0.00    -0.296 OA
ATOM     95  N   SGN d 252      52.439  38.886  18.431  0.00  0.00    -0.210 NA
ATOM     96  O5  SGN d 252      53.295  37.187  21.676  0.00  0.00    -0.350 OA
ATOM     97  O6  SGN d 252      52.789  34.153  22.348  0.00  0.00    -0.254 OA
ATOM     98  O5S SGN d 252      54.361  32.642  21.351  0.00  0.00    -0.572 OA
ATOM     99  C5  SGN d 252      52.102  36.414  21.929  0.00  0.00     0.091 C 
ATOM    100  C4  SGN d 252      51.547  35.822  20.595  0.00  0.00     0.095 C 
ATOM    101  O4S SGN d 252      53.526  32.166  23.582  0.00  0.00    -0.572 OA
ATOM    102  H   SGN d 252      54.061  38.775  20.613  0.00  0.00     0.131 H 
ATOM    103  H   SGN d 252      53.331  37.067  18.953  0.00  0.00     0.076 H 
ATOM    104  H   SGN d 252      50.701  37.289  17.785  0.00  0.00     0.210 HD
ATOM    105  H   SGN d 252      53.712  37.311  16.688  0.00  0.00     0.231 HD
ATOM    106  H   SGN d 252      51.299  38.796  21.361  0.00  0.00     0.212 HD
ATOM    107  H   SGN d 252      50.568  37.682  20.037  0.00  0.00     0.089 H 
ATOM    108  H   SGN d 252      51.638  35.219  23.648  0.00  0.00     0.080 H 
ATOM    109  H   SGN d 252      53.309  35.710  23.557  0.00  0.00     0.080 H 
ATOM    110  H   SGN d 252      55.060  38.259  18.349  0.00  0.00     0.231 HD
ATOM    111  H   SGN d 252      53.433  41.187  17.506  0.00  0.00     0.231 HD
ATOM    112  H   SGN d 252      52.325  39.729  18.995  0.00  0.00     0.140 HD
ATOM    113  H   SGN d 252      51.298  37.008  22.312  0.00  0.00     0.090 H 
ATOM    114  H   SGN d 252      52.229  35.131  20.146  0.00  0.00     0.091 H 
ATOM    115  C3  IDS d 245      46.820  19.987  -0.782  0.00  0.00     0.044 C 
ATOM    116  O2S IDS d 245      50.286  22.226   1.212  0.00  0.00    -0.572 OA
ATOM    117  O2  IDS d 245      48.217  21.735   0.003  0.00  0.00    -0.247 OA
ATOM    118  O3S IDS d 245      50.169  20.358  -0.328  0.00  0.00    -0.572 OA
ATOM    119  O3  IDS d 245      47.909  19.351  -1.408  0.00  0.00    -0.398 OA
ATOM    120  C2  IDS d 245      47.304  20.725   0.430  0.00  0.00     0.100 C 
ATOM    121  C1  IDS d 245      46.090  21.360   1.057  0.00  0.00     0.048 C 
ATOM    122  O1  IDS d 245      46.501  22.404   1.903  0.00  0.00    -0.378 OA
ATOM    123  O1S IDS d 245      50.104  22.627  -1.159  0.00  0.00    -0.572 OA
ATOM    124  S   IDS d 245      49.790  21.726  -0.058  0.00  0.00     0.252 S 
ATOM    125  H   IDS d 245      46.370  20.678  -1.464  0.00  0.00     0.078 H 
ATOM    126  H   IDS d 245      46.098  19.254  -0.489  0.00  0.00     0.078 H 
ATOM    127  H   IDS d 245      48.564  20.016  -1.673  0.00  0.00     0.209 HD
ATOM    128  H   IDS d 245      47.798  20.082   1.129  0.00  0.00     0.092 H 
ATOM    129  H   IDS d 245      45.556  20.628   1.626  0.00  0.00     0.078 H 
ATOM    130  H   IDS d 245      45.450  21.747   0.292  0.00  0.00     0.078 H 
ATOM    131  C2  IDS d 247      45.209  27.256   7.096  0.00  0.00     0.134 C 
ATOM    132  O2  IDS d 247      44.242  26.607   7.949  0.00  0.00    -0.244 OA
ATOM    133  S   IDS d 247      42.847  27.196   8.542  0.00  0.00     0.252 S 
ATOM    134  C5  IDS d 247      47.187  27.825   5.295  0.00  0.00     0.152 C 
ATOM    135  O1S IDS d 247      43.036  28.634   8.526  0.00  0.00    -0.572 OA
ATOM    136  O3  IDS d 247      43.505  27.617   5.447  0.00  0.00    -0.390 OA
ATOM    137  O3S IDS d 247      42.702  26.667   9.901  0.00  0.00    -0.572 OA
ATOM    138  O62 IDS d 247      49.262  27.126   4.291  0.00  0.00    -0.646 OA
ATOM    139  O61 IDS d 247      48.392  28.835   3.471  0.00  0.00    -0.646 OA
ATOM    140  O5  IDS d 247      47.459  26.737   6.215  0.00  0.00    -0.340 OA
ATOM    141  O2S IDS d 247      41.782  26.779   7.654  0.00  0.00    -0.572 OA
ATOM    142  C1  IDS d 247      46.611  26.675   7.365  0.00  0.00     0.161 C 
ATOM    143  C4  IDS d 247      45.786  27.565   4.609  0.00  0.00     0.103 C 
ATOM    144  C6  IDS d 247      48.355  27.935   4.296  0.00  0.00     0.206 C 
ATOM    145  O1  IDS d 247      47.126  27.405   8.420  0.00  0.00    -0.348 OA
ATOM    146  C3  IDS d 247      44.781  27.023   5.658  0.00  0.00     0.094 C 
ATOM    147  H   IDS d 247      45.255  28.308   7.291  0.00  0.00     0.097 H 
ATOM    148  H   IDS d 247      47.121  28.769   5.796  0.00  0.00     0.104 H 
ATOM    149  H   IDS d 247      42.877  27.277   6.105  0.00  0.00     0.210 HD
ATOM    150  H   IDS d 247      46.550  25.633   7.602  0.00  0.00     0.133 H 
ATOM    151  H   IDS d 247      45.413  28.465   4.168  0.00  0.00     0.092 H 
ATOM    152  H   IDS d 247      44.741  25.963   5.516  0.00  0.00     0.091 H 
ATOM    153  C2  IDS d 251      48.398  33.664  20.697  0.00  0.00     0.134 C 
ATOM    154  C1  IDS d 251      49.669  34.198  19.978  0.00  0.00     0.161 C 
ATOM    155  O62 IDS d 251      47.228  37.542  17.539  0.00  0.00    -0.646 OA
ATOM    156  C4  IDS d 251      46.861  34.634  18.839  0.00  0.00     0.103 C 
ATOM    157  C5  IDS d 251      48.062  35.626  18.799  0.00  0.00     0.152 C 
ATOM    158  C6  IDS d 251      48.016  36.612  17.581  0.00  0.00     0.206 C 
ATOM    159  S   IDS d 251      49.442  31.117  20.736  0.00  0.00     0.252 S 
ATOM    160  O3  IDS d 251      46.105  32.980  20.431  0.00  0.00    -0.390 OA
ATOM    161  O61 IDS d 251      48.778  36.465  16.621  0.00  0.00    -0.646 OA
ATOM    162  O3S IDS d 251      49.653  30.262  21.880  0.00  0.00    -0.572 OA
ATOM    163  O2  IDS d 251      48.669  32.411  21.329  0.00  0.00    -0.244 OA
ATOM    164  O2S IDS d 251      50.679  31.564  20.123  0.00  0.00    -0.572 OA
ATOM    165  O5  IDS d 251      49.295  34.824  18.739  0.00  0.00    -0.340 OA
ATOM    166  C3  IDS d 251      47.244  33.416  19.715  0.00  0.00     0.094 C 
ATOM    167  O1S IDS d 251      48.525  30.543  19.761  0.00  0.00    -0.572 OA
ATOM    168  O1  IDS d 251      50.281  35.121  20.898  0.00  0.00    -0.348 OA
ATOM    169  H   IDS d 251      48.123  34.414  21.408  0.00  0.00     0.097 H 
ATOM    170  H   IDS d 251      50.360  33.422  19.726  0.00  0.00     0.133 H 
ATOM    171  H   IDS d 251      45.964  35.087  19.206  0.00  0.00     0.092 H 
ATOM    172  H   IDS d 251      48.021  36.237  19.676  0.00  0.00     0.104 H 
ATOM    173  H   IDS d 251      46.341  32.216  20.981  0.00  0.00     0.210 HD
ATOM    174  H   IDS d 251      47.597  32.667  19.036  0.00  0.00     0.091 H 
ATOM    175  O5S SGN d 248      48.293  24.669   7.407  0.00  0.00    -0.572 OA
ATOM    176  O4S SGN d 248      48.443  22.646   8.729  0.00  0.00    -0.572 OA
ATOM    177  O2S SGN d 248      53.884  29.739   9.955  0.00  0.00    -0.296 OA
ATOM    178  O1  SGN d 248      49.760  28.301  11.720  0.00  0.00    -0.348 OA
ATOM    179  S1  SGN d 248      53.172  28.750   9.156  0.00  0.00     0.156 S 
ATOM    180  O3  SGN d 248      49.538  28.561   7.620  0.00  0.00    -0.391 OA
ATOM    181  O1S SGN d 248      53.263  28.978   7.730  0.00  0.00    -0.296 OA
ATOM    182  N   SGN d 248      51.584  28.898   9.601  0.00  0.00    -0.210 NA
ATOM    183  S2  SGN d 248      48.467  24.097   8.731  0.00  0.00     0.251 S 
ATOM    184  C4  SGN d 248      48.353  26.973   8.991  0.00  0.00     0.095 C 
ATOM    185  C6  SGN d 248      47.197  25.349  10.665  0.00  0.00     0.067 C 
ATOM    186  O6S SGN d 248      49.606  24.649   9.437  0.00  0.00    -0.572 OA
ATOM    187  O3S SGN d 248      53.558  27.394   9.497  0.00  0.00    -0.296 OA
ATOM    188  O5  SGN d 248      49.439  26.177  11.069  0.00  0.00    -0.349 OA
ATOM    189  C2  SGN d 248      50.653  27.734   9.595  0.00  0.00     0.081 C 
ATOM    190  C3  SGN d 248      49.319  28.158   8.963  0.00  0.00     0.083 C 
ATOM    191  C1  SGN d 248      50.363  27.261  11.060  0.00  0.00     0.150 C 
ATOM    192  O6  SGN d 248      47.210  24.573   9.508  0.00  0.00    -0.254 OA
ATOM    193  C5  SGN d 248      48.143  26.546  10.486  0.00  0.00     0.091 C 
ATOM    194  H   SGN d 248      53.598  30.630   9.697  0.00  0.00     0.231 HD
ATOM    195  H   SGN d 248      48.696  28.829   7.222  0.00  0.00     0.210 HD
ATOM    196  H   SGN d 248      53.000  29.890   7.531  0.00  0.00     0.231 HD
ATOM    197  H   SGN d 248      51.175  29.594   8.976  0.00  0.00     0.140 HD
ATOM    198  H   SGN d 248      48.731  26.137   8.441  0.00  0.00     0.091 H 
ATOM    199  H   SGN d 248      46.203  25.704  10.845  0.00  0.00     0.080 H 
ATOM    200  H   SGN d 248      47.519  24.759  11.496  0.00  0.00     0.080 H 
ATOM    201  H   SGN d 248      53.487  27.269  10.456  0.00  0.00     0.231 HD
ATOM    202  H   SGN d 248      51.105  26.939   9.039  0.00  0.00     0.076 H 
ATOM    203  H   SGN d 248      48.902  28.975   9.513  0.00  0.00     0.089 H 
ATOM    204  H   SGN d 248      51.283  26.956  11.514  0.00  0.00     0.131 H 
ATOM    205  H   SGN d 248      47.699  27.389  10.974  0.00  0.00     0.090 H 
ENDROOT
TORSDOF 64
ENDMDL
MODEL 20
REMARK VINA RESULT:      -0.8      3.631      7.710
REMARK  0 active torsions:
REMARK  status: ('A' for Active; 'I' for Inactive)
REMARK       I    between atoms: C5_1  and  C6_97 
REMARK       I    between atoms: O2_2  and  C2_107 
REMARK       I    between atoms: O2_2  and  S_88 
REMARK       I    between atoms: O3_4  and  C3_95 
REMARK       I    between atoms: C1_5  and  O1_40 
REMARK       I    between atoms: C3_6  and  C2_70 
REMARK       I    between atoms: C3_6  and  O3_51 
REMARK       I    between atoms: C2_7  and  O2_9 
REMARK       I    between atoms: C2_8  and  O2_75 
REMARK       I    between atoms: O2_9  and  S_23 
REMARK       I    between atoms: S2_14  and  O6_117 
REMARK       I    between atoms: C1_15  and  O1_130 
REMARK       I    between atoms: C4_16  and  O1_59 
REMARK       I    between atoms: S1_17  and  N_128 
REMARK       I    between atoms: S1_17  and  O1S_46 
REMARK       I    between atoms: S1_17  and  O2S_29 
REMARK       I    between atoms: S1_17  and  O3S_24 
REMARK       I    between atoms: C2_18  and  N_86 
REMARK       I    between atoms: S1_19  and  N_86 
REMARK       I    between atoms: S1_19  and  O1S_71 
REMARK       I    between atoms: S1_19  and  O2S_34 
REMARK       I    between atoms: S1_19  and  O3S_81 
REMARK       I    between atoms: O2S_22  and  S1_111 
REMARK       I    between atoms: C1_25  and  O1_58 
REMARK       I    between atoms: C4_27  and  O1_58 
REMARK       I    between atoms: O2S_28  and  S1_48 
REMARK       I    between atoms: O3_32  and  C3_49 
REMARK       I    between atoms: O2_33  and  C2_70 
REMARK       I    between atoms: O2_33  and  S_133 
REMARK       I    between atoms: C5_37  and  C6_84 
REMARK       I    between atoms: C5_41  and  C6_43 
REMARK       I    between atoms: O6_42  and  C6_84 
REMARK       I    between atoms: O6_42  and  S2_77 
REMARK       I    between atoms: C5_44  and  C6_108 
REMARK       I    between atoms: O1_45  and  C1_120 
REMARK       I    between atoms: O1_45  and  C4_114 
REMARK       I    between atoms: S2_47  and  O6_94 
REMARK       I    between atoms: S1_48  and  N_53 
REMARK       I    between atoms: S1_48  and  O1S_52 
REMARK       I    between atoms: S1_48  and  O3S_83 
REMARK       I    between atoms: O3_50  and  C3_119 
REMARK       I    between atoms: N_53  and  C2_89 
REMARK       I    between atoms: S_55  and  O2_75 
REMARK       I    between atoms: O3_56  and  C3_124 
REMARK       I    between atoms: O1_59  and  C1_110 
REMARK       I    between atoms: S2_60  and  O6_132 
REMARK       I    between atoms: O3_61  and  C3_115 
REMARK       I    between atoms: C6_62  and  C5_106 
REMARK       I    between atoms: C6_62  and  O6_94 
REMARK       I    between atoms: C4_63  and  O1_96 
REMARK       I    between atoms: O3_67  and  C3_93 
REMARK       I    between atoms: O1_69  and  C1_113 
REMARK       I    between atoms: O1_69  and  C4_103 
REMARK       I    between atoms: C2_70  and  C1_76 
REMARK       I    between atoms: C5_74  and  C6_90 
REMARK       I    between atoms: C1_76  and  O1_96 
REMARK       I    between atoms: C4_78  and  O1_112 
REMARK       I    between atoms: C6_80  and  C5_134 
REMARK       I    between atoms: C6_80  and  O6_132 
REMARK       I    between atoms: C6_90  and  O6_117 
REMARK       I    between atoms: C2_98  and  N_128 
REMARK       I    between atoms: C1_100  and  O1_112 
REMARK       I    between atoms: S1_111  and  O1S_116 
REMARK       I    between atoms: C4_127  and  O1_130 
ROOT
ATOM      1  C5  IDS d 249      48.526  28.515  12.284  0.00  0.00     0.152 C 
ATOM      2  O2  IDS d 249      50.180  32.113  11.094  0.00  0.00    -0.244 OA
ATOM      3  O1S IDS d 249      51.004  31.728   8.836  0.00  0.00    -0.572 OA
ATOM      4  O5  IDS d 249      47.694  29.508  11.641  0.00  0.00    -0.340 OA
ATOM      5  O1  IDS d 249      47.830  31.379  12.975  0.00  0.00    -0.348 OA
ATOM      6  O62 IDS d 249      46.856  26.881  11.667  0.00  0.00    -0.646 OA
ATOM      7  O3  IDS d 249      51.605  29.369  11.184  0.00  0.00    -0.390 OA
ATOM      8  S   IDS d 249      50.021  32.535   9.541  0.00  0.00     0.252 S 
ATOM      9  C3  IDS d 249      50.316  29.745  10.943  0.00  0.00     0.094 C 
ATOM     10  C6  IDS d 249      47.721  27.210  12.461  0.00  0.00     0.206 C 
ATOM     11  O3S IDS d 249      50.310  33.951   9.479  0.00  0.00    -0.572 OA
ATOM     12  C2  IDS d 249      49.731  30.896  11.727  0.00  0.00     0.134 C 
ATOM     13  C1  IDS d 249      48.179  30.840  11.756  0.00  0.00     0.161 C 
ATOM     14  C4  IDS d 249      49.816  28.350  11.405  0.00  0.00     0.103 C 
ATOM     15  O2S IDS d 249      48.675  32.215   9.133  0.00  0.00    -0.572 OA
ATOM     16  O61 IDS d 249      47.934  26.469  13.420  0.00  0.00    -0.646 OA
ATOM     17  H   IDS d 249      48.830  28.807  13.268  0.00  0.00     0.104 H 
ATOM     18  H   IDS d 249      52.202  30.102  10.968  0.00  0.00     0.210 HD
ATOM     19  H   IDS d 249      50.086  30.145   9.978  0.00  0.00     0.091 H 
ATOM     20  H   IDS d 249      50.057  30.848  12.745  0.00  0.00     0.097 H 
ATOM     21  H   IDS d 249      47.755  31.373  10.931  0.00  0.00     0.133 H 
ATOM     22  H   IDS d 249      50.661  27.856  11.835  0.00  0.00     0.092 H 
ATOM     23  O3  SGN d 246      43.788  22.519   0.949  0.00  0.00    -0.215 OA
ATOM     24  S2  SGN d 246      47.726  25.279  -3.521  0.00  0.00     0.251 S 
ATOM     25  O6S SGN d 246      46.970  26.403  -3.041  0.00  0.00    -0.572 OA
ATOM     26  O2S SGN d 246      40.816  25.081   0.980  0.00  0.00    -0.294 OA
ATOM     27  C3  SGN d 246      44.810  23.491   0.926  0.00  0.00     0.121 C 
ATOM     28  C2  SGN d 246      44.226  24.868   0.581  0.00  0.00     0.084 C 
ATOM     29  O4S SGN d 246      49.145  25.518  -3.537  0.00  0.00    -0.572 OA
ATOM     30  O5S SGN d 246      47.223  24.765  -4.770  0.00  0.00    -0.572 OA
ATOM     31  N   SGN d 246      43.228  25.248   1.581  0.00  0.00    -0.208 NA
ATOM     32  C4  SGN d 246      45.807  23.130  -0.141  0.00  0.00     0.095 C 
ATOM     33  O1  SGN d 246      46.045  26.017   1.793  0.00  0.00    -0.348 OA
ATOM     34  C5  SGN d 246      46.952  24.227  -0.167  0.00  0.00     0.091 C 
ATOM     35  C6  SGN d 246      48.043  23.998  -1.241  0.00  0.00     0.067 C 
ATOM     36  S1  SGN d 246      41.839  24.383   1.732  0.00  0.00     0.188 S 
ATOM     37  C1  SGN d 246      45.396  25.948   0.536  0.00  0.00     0.151 C 
ATOM     38  O1S SGN d 246      41.539  24.285   3.147  0.00  0.00    -0.294 OA
ATOM     39  O6  SGN d 246      47.477  24.138  -2.517  0.00  0.00    -0.254 OA
ATOM     40  O5  SGN d 246      46.371  25.559  -0.429  0.00  0.00    -0.349 OA
ATOM     41  O3S SGN d 246      42.158  23.095   1.155  0.00  0.00    -0.119 OA
ATOM     42  H   SGN d 246      40.633  25.936   1.400  0.00  0.00     0.231 HD
ATOM     43  H   SGN d 246      45.275  23.524   1.890  0.00  0.00     0.095 H 
ATOM     44  H   SGN d 246      43.755  24.824  -0.379  0.00  0.00     0.077 H 
ATOM     45  H   SGN d 246      42.954  26.209   1.372  0.00  0.00     0.140 HD
ATOM     46  H   SGN d 246      45.365  23.105  -1.115  0.00  0.00     0.091 H 
ATOM     47  H   SGN d 246      47.414  24.158   0.796  0.00  0.00     0.090 H 
ATOM     48  H   SGN d 246      48.446  23.012  -1.136  0.00  0.00     0.080 H 
ATOM     49  H   SGN d 246      48.825  24.717  -1.116  0.00  0.00     0.080 H 
ATOM     50  H   SGN d 246      44.967  26.895   0.285  0.00  0.00     0.131 H 
ATOM     51  H   SGN d 246      41.331  25.166   3.496  0.00  0.00     0.231 HD
ATOM     52  O3  SGN d 250      45.816  30.135  14.500  0.00  0.00    -0.391 OA
ATOM     53  O5S SGN d 250      47.704  37.497  11.563  0.00  0.00    -0.572 OA
ATOM     54  C4  SGN d 250      46.560  31.985  13.129  0.00  0.00     0.095 C 
ATOM     55  S1  SGN d 250      43.051  30.572  16.270  0.00  0.00     0.156 S 
ATOM     56  O3S SGN d 250      41.854  31.177  16.844  0.00  0.00    -0.296 OA
ATOM     57  C1  SGN d 250      44.939  33.795  14.687  0.00  0.00     0.150 C 
ATOM     58  O2S SGN d 250      43.718  29.653  17.208  0.00  0.00    -0.296 OA
ATOM     59  C5  SGN d 250      46.723  33.543  13.107  0.00  0.00     0.091 C 
ATOM     60  O6  SGN d 250      48.057  35.189  11.994  0.00  0.00    -0.254 OA
ATOM     61  O1S SGN d 250      42.775  29.982  14.970  0.00  0.00    -0.296 OA
ATOM     62  O1  SGN d 250      46.069  33.982  15.519  0.00  0.00    -0.348 OA
ATOM     63  S2  SGN d 250      48.335  36.344  10.978  0.00  0.00     0.251 S 
ATOM     64  C6  SGN d 250      47.251  34.071  11.768  0.00  0.00     0.067 C 
ATOM     65  C3  SGN d 250      45.989  31.546  14.494  0.00  0.00     0.083 C 
ATOM     66  C2  SGN d 250      44.620  32.249  14.722  0.00  0.00     0.081 C 
ATOM     67  O6S SGN d 250      49.783  36.481  10.918  0.00  0.00    -0.572 OA
ATOM     68  O5  SGN d 250      45.411  34.169  13.382  0.00  0.00    -0.349 OA
ATOM     69  O4S SGN d 250      47.735  35.959   9.711  0.00  0.00    -0.572 OA
ATOM     70  N   SGN d 250      44.096  31.853  16.069  0.00  0.00    -0.210 NA
ATOM     71  H   SGN d 250      46.673  29.704  14.357  0.00  0.00     0.210 HD
ATOM     72  H   SGN d 250      45.903  31.693  12.336  0.00  0.00     0.091 H 
ATOM     73  H   SGN d 250      41.450  31.772  16.194  0.00  0.00     0.231 HD
ATOM     74  H   SGN d 250      44.067  34.349  14.969  0.00  0.00     0.131 H 
ATOM     75  H   SGN d 250      44.505  29.277  16.785  0.00  0.00     0.231 HD
ATOM     76  H   SGN d 250      47.442  33.796  13.858  0.00  0.00     0.090 H 
ATOM     77  H   SGN d 250      43.587  29.588  14.615  0.00  0.00     0.231 HD
ATOM     78  H   SGN d 250      46.428  34.346  11.143  0.00  0.00     0.080 H 
ATOM     79  H   SGN d 250      47.827  33.309  11.286  0.00  0.00     0.080 H 
ATOM     80  H   SGN d 250      46.664  31.820  15.279  0.00  0.00     0.089 H 
ATOM     81  H   SGN d 250      43.887  31.986  13.989  0.00  0.00     0.076 H 
ATOM     82  H   SGN d 250      44.914  31.647  16.643  0.00  0.00     0.140 HD
ATOM     83  C1  SGN d 252      52.379  37.536  19.337  0.00  0.00     0.147 C 
ATOM     84  C2  SGN d 252      51.987  37.007  17.939  0.00  0.00     0.081 C 
ATOM     85  S1  SGN d 252      53.372  38.284  15.983  0.00  0.00     0.156 S 
ATOM     86  O3  SGN d 252      50.228  35.961  16.774  0.00  0.00    -0.391 OA
ATOM     87  O2S SGN d 252      53.262  37.247  14.978  0.00  0.00    -0.296 OA
ATOM     88  O1  SGN d 252      51.472  38.593  19.710  0.00  0.00    -0.369 OA
ATOM     89  S2  SGN d 252      52.503  32.433  21.445  0.00  0.00     0.251 S 
ATOM     90  C3  SGN d 252      50.577  36.432  18.032  0.00  0.00     0.083 C 
ATOM     91  C6  SGN d 252      51.177  34.772  21.554  0.00  0.00     0.067 C 
ATOM     92  O6S SGN d 252      53.570  33.173  22.112  0.00  0.00    -0.572 OA
ATOM     93  O1S SGN d 252      54.544  38.134  16.826  0.00  0.00    -0.296 OA
ATOM     94  O3S SGN d 252      53.284  39.623  15.403  0.00  0.00    -0.296 OA
ATOM     95  N   SGN d 252      52.034  38.128  16.955  0.00  0.00    -0.210 NA
ATOM     96  O5  SGN d 252      52.334  36.454  20.310  0.00  0.00    -0.350 OA
ATOM     97  O6  SGN d 252      51.438  33.510  20.978  0.00  0.00    -0.254 OA
ATOM     98  O5S SGN d 252      52.946  31.816  20.199  0.00  0.00    -0.572 OA
ATOM     99  C5  SGN d 252      51.044  35.815  20.438  0.00  0.00     0.091 C 
ATOM    100  C4  SGN d 252      50.586  35.241  19.060  0.00  0.00     0.095 C 
ATOM    101  O4S SGN d 252      51.818  31.498  22.328  0.00  0.00    -0.572 OA
ATOM    102  H   SGN d 252      53.378  37.921  19.312  0.00  0.00     0.131 H 
ATOM    103  H   SGN d 252      52.665  36.246  17.613  0.00  0.00     0.076 H 
ATOM    104  H   SGN d 252      50.224  36.698  16.143  0.00  0.00     0.210 HD
ATOM    105  H   SGN d 252      53.325  36.378  15.403  0.00  0.00     0.231 HD
ATOM    106  H   SGN d 252      50.566  38.248  19.734  0.00  0.00     0.212 HD
ATOM    107  H   SGN d 252      49.877  37.173  18.356  0.00  0.00     0.089 H 
ATOM    108  H   SGN d 252      50.266  34.728  22.114  0.00  0.00     0.080 H 
ATOM    109  H   SGN d 252      51.978  35.043  22.209  0.00  0.00     0.080 H 
ATOM    110  H   SGN d 252      54.567  37.235  17.190  0.00  0.00     0.231 HD
ATOM    111  H   SGN d 252      53.363  40.286  16.107  0.00  0.00     0.231 HD
ATOM    112  H   SGN d 252      51.946  38.996  17.486  0.00  0.00     0.140 HD
ATOM    113  H   SGN d 252      50.270  36.500  20.713  0.00  0.00     0.090 H 
ATOM    114  H   SGN d 252      51.238  34.470  18.707  0.00  0.00     0.091 H 
ATOM    115  C3  IDS d 245      46.682  19.308  -2.410  0.00  0.00     0.044 C 
ATOM    116  O2S IDS d 245      50.114  21.242  -0.070  0.00  0.00    -0.572 OA
ATOM    117  O2  IDS d 245      48.156  20.928  -1.502  0.00  0.00    -0.247 OA
ATOM    118  O3S IDS d 245      49.978  19.350  -1.577  0.00  0.00    -0.572 OA
ATOM    119  O3  IDS d 245      47.762  18.545  -2.892  0.00  0.00    -0.398 OA
ATOM    120  C2  IDS d 245      47.100  20.030  -1.164  0.00  0.00     0.100 C 
ATOM    121  C1  IDS d 245      45.895  20.805  -0.695  0.00  0.00     0.048 C 
ATOM    122  O1  IDS d 245      46.315  21.827   0.172  0.00  0.00    -0.378 OA
ATOM    123  O1S IDS d 245      50.246  21.585  -2.454  0.00  0.00    -0.572 OA
ATOM    124  S   IDS d 245      49.716  20.756  -1.380  0.00  0.00     0.252 S 
ATOM    125  H   IDS d 245      46.387  20.019  -3.153  0.00  0.00     0.078 H 
ATOM    126  H   IDS d 245      45.858  18.662  -2.189  0.00  0.00     0.078 H 
ATOM    127  H   IDS d 245      48.508  19.131  -3.092  0.00  0.00     0.209 HD
ATOM    128  H   IDS d 245      47.440  19.363  -0.401  0.00  0.00     0.092 H 
ATOM    129  H   IDS d 245      45.226  20.149  -0.178  0.00  0.00     0.078 H 
ATOM    130  H   IDS d 245      45.391  21.231  -1.536  0.00  0.00     0.078 H 
ATOM    131  C2  IDS d 247      44.958  26.947   5.085  0.00  0.00     0.134 C 
ATOM    132  O2  IDS d 247      43.838  26.427   5.832  0.00  0.00    -0.244 OA
ATOM    133  S   IDS d 247      42.454  27.174   6.247  0.00  0.00     0.252 S 
ATOM    134  C5  IDS d 247      47.177  27.254   3.515  0.00  0.00     0.152 C 
ATOM    135  O1S IDS d 247      42.793  28.583   6.225  0.00  0.00    -0.572 OA
ATOM    136  O3  IDS d 247      43.500  27.428   3.243  0.00  0.00    -0.390 OA
ATOM    137  O3S IDS d 247      42.101  26.705   7.590  0.00  0.00    -0.572 OA
ATOM    138  O62 IDS d 247      49.267  26.316   2.773  0.00  0.00    -0.646 OA
ATOM    139  O61 IDS d 247      48.681  28.078   1.825  0.00  0.00    -0.646 OA
ATOM    140  O5  IDS d 247      47.226  26.174   4.482  0.00  0.00    -0.340 OA
ATOM    141  O2S IDS d 247      41.459  26.840   5.250  0.00  0.00    -0.572 OA
ATOM    142  C1  IDS d 247      46.252  26.234   5.527  0.00  0.00     0.161 C 
ATOM    143  C4  IDS d 247      45.843  27.117   2.677  0.00  0.00     0.103 C 
ATOM    144  C6  IDS d 247      48.455  27.213   2.657  0.00  0.00     0.206 C 
ATOM    145  O1  IDS d 247      46.718  26.941   6.619  0.00  0.00    -0.348 OA
ATOM    146  C3  IDS d 247      44.674  26.714   3.612  0.00  0.00     0.094 C 
ATOM    147  H   IDS d 247      45.092  27.994   5.263  0.00  0.00     0.097 H 
ATOM    148  H   IDS d 247      47.153  28.215   3.987  0.00  0.00     0.104 H 
ATOM    149  H   IDS d 247      42.769  27.175   3.829  0.00  0.00     0.210 HD
ATOM    150  H   IDS d 247      46.055  25.213   5.775  0.00  0.00     0.133 H 
ATOM    151  H   IDS d 247      45.619  28.036   2.177  0.00  0.00     0.092 H 
ATOM    152  H   IDS d 247      44.540  25.659   3.487  0.00  0.00     0.091 H 
ATOM    153  C2  IDS d 251      47.237  33.420  18.837  0.00  0.00     0.134 C 
ATOM    154  C1  IDS d 251      48.630  33.799  18.261  0.00  0.00     0.161 C 
ATOM    155  O62 IDS d 251      46.846  37.296  15.490  0.00  0.00    -0.646 OA
ATOM    156  C4  IDS d 251      46.031  34.482  16.794  0.00  0.00     0.103 C 
ATOM    157  C5  IDS d 251      47.326  35.345  16.875  0.00  0.00     0.152 C 
ATOM    158  C6  IDS d 251      47.522  36.293  15.642  0.00  0.00     0.206 C 
ATOM    159  S   IDS d 251      47.996  30.782  19.047  0.00  0.00     0.252 S 
ATOM    160  O3  IDS d 251      44.929  32.965  18.320  0.00  0.00    -0.390 OA
ATOM    161  O61 IDS d 251      48.369  36.038  14.780  0.00  0.00    -0.646 OA
ATOM    162  O3S IDS d 251      47.985  29.946  20.224  0.00  0.00    -0.572 OA
ATOM    163  O2  IDS d 251      47.301  32.166  19.521  0.00  0.00    -0.244 OA
ATOM    164  O2S IDS d 251      49.335  31.081  18.573  0.00  0.00    -0.572 OA
ATOM    165  O5  IDS d 251      48.467  34.420  16.974  0.00  0.00    -0.340 OA
ATOM    166  C3  IDS d 251      46.182  33.260  17.732  0.00  0.00     0.094 C 
ATOM    167  O1S IDS d 251      47.141  30.274  17.983  0.00  0.00    -0.572 OA
ATOM    168  O1  IDS d 251      49.227  34.683  19.227  0.00  0.00    -0.348 OA
ATOM    169  H   IDS d 251      46.963  34.216  19.497  0.00  0.00     0.097 H 
ATOM    170  H   IDS d 251      49.259  32.948  18.105  0.00  0.00     0.133 H 
ATOM    171  H   IDS d 251      45.150  35.036  17.046  0.00  0.00     0.092 H 
ATOM    172  H   IDS d 251      47.251  35.985  17.729  0.00  0.00     0.104 H 
ATOM    173  H   IDS d 251      45.020  32.199  18.908  0.00  0.00     0.210 HD
ATOM    174  H   IDS d 251      46.529  32.458  17.114  0.00  0.00     0.091 H 
ATOM    175  O5S SGN d 248      47.698  24.069   5.803  0.00  0.00    -0.572 OA
ATOM    176  O4S SGN d 248      47.483  22.084   7.172  0.00  0.00    -0.572 OA
ATOM    177  O2S SGN d 248      53.464  28.620   8.884  0.00  0.00    -0.296 OA
ATOM    178  O1  SGN d 248      49.039  27.667  10.185  0.00  0.00    -0.348 OA
ATOM    179  S1  SGN d 248      52.748  27.684   8.028  0.00  0.00     0.156 S 
ATOM    180  O3  SGN d 248      49.313  27.819   6.083  0.00  0.00    -0.391 OA
ATOM    181  O1S SGN d 248      53.024  27.857   6.617  0.00  0.00    -0.296 OA
ATOM    182  N   SGN d 248      51.144  28.008   8.281  0.00  0.00    -0.210 NA
ATOM    183  S2  SGN d 248      47.659  23.525   7.149  0.00  0.00     0.251 S 
ATOM    184  C4  SGN d 248      47.819  26.404   7.338  0.00  0.00     0.095 C 
ATOM    185  C6  SGN d 248      46.316  24.960   8.897  0.00  0.00     0.067 C 
ATOM    186  O6S SGN d 248      48.763  23.979   7.971  0.00  0.00    -0.572 OA
ATOM    187  O3S SGN d 248      52.948  26.307   8.437  0.00  0.00    -0.296 OA
ATOM    188  O5  SGN d 248      48.573  25.567   9.543  0.00  0.00    -0.349 OA
ATOM    189  C2  SGN d 248      50.103  26.945   8.190  0.00  0.00     0.081 C 
ATOM    190  C3  SGN d 248      48.901  27.483   7.399  0.00  0.00     0.083 C 
ATOM    191  C1  SGN d 248      49.601  26.550   9.620  0.00  0.00     0.150 C 
ATOM    192  O6  SGN d 248      46.380  24.150   7.764  0.00  0.00    -0.254 OA
ATOM    193  C5  SGN d 248      47.398  26.048   8.806  0.00  0.00     0.091 C 
ATOM    194  H   SGN d 248      53.305  29.527   8.578  0.00  0.00     0.231 HD
ATOM    195  H   SGN d 248      48.554  28.159   5.584  0.00  0.00     0.210 HD
ATOM    196  H   SGN d 248      52.883  28.784   6.371  0.00  0.00     0.231 HD
ATOM    197  H   SGN d 248      50.884  28.722   7.600  0.00  0.00     0.140 HD
ATOM    198  H   SGN d 248      48.167  25.517   6.852  0.00  0.00     0.091 H 
ATOM    199  H   SGN d 248      45.352  25.419   8.953  0.00  0.00     0.080 H 
ATOM    200  H   SGN d 248      46.479  24.366   9.771  0.00  0.00     0.080 H 
ATOM    201  H   SGN d 248      52.757  26.220   9.383  0.00  0.00     0.231 HD
ATOM    202  H   SGN d 248      50.529  26.091   7.706  0.00  0.00     0.076 H 
ATOM    203  H   SGN d 248      48.513  28.355   7.881  0.00  0.00     0.089 H 
ATOM    204  H   SGN d 248      50.425  26.168  10.184  0.00  0.00     0.131 H 
ATOM    205  H   SGN d 248      46.992  26.947   9.223  0.00  0.00     0.090 H 
ENDROOT
TORSDOF 64
ENDMDL
MODEL 21
REMARK VINA RESULT:      -0.5      4.255     17.531
REMARK  0 active torsions:
REMARK  status: ('A' for Active; 'I' for Inactive)
REMARK       I    between atoms: C5_1  and  C6_97 
REMARK       I    between atoms: O2_2  and  C2_107 
REMARK       I    between atoms: O2_2  and  S_88 
REMARK       I    between atoms: O3_4  and  C3_95 
REMARK       I    between atoms: C1_5  and  O1_40 
REMARK       I    between atoms: C3_6  and  C2_70 
REMARK       I    between atoms: C3_6  and  O3_51 
REMARK       I    between atoms: C2_7  and  O2_9 
REMARK       I    between atoms: C2_8  and  O2_75 
REMARK       I    between atoms: O2_9  and  S_23 
REMARK       I    between atoms: S2_14  and  O6_117 
REMARK       I    between atoms: C1_15  and  O1_130 
REMARK       I    between atoms: C4_16  and  O1_59 
REMARK       I    between atoms: S1_17  and  N_128 
REMARK       I    between atoms: S1_17  and  O1S_46 
REMARK       I    between atoms: S1_17  and  O2S_29 
REMARK       I    between atoms: S1_17  and  O3S_24 
REMARK       I    between atoms: C2_18  and  N_86 
REMARK       I    between atoms: S1_19  and  N_86 
REMARK       I    between atoms: S1_19  and  O1S_71 
REMARK       I    between atoms: S1_19  and  O2S_34 
REMARK       I    between atoms: S1_19  and  O3S_81 
REMARK       I    between atoms: O2S_22  and  S1_111 
REMARK       I    between atoms: C1_25  and  O1_58 
REMARK       I    between atoms: C4_27  and  O1_58 
REMARK       I    between atoms: O2S_28  and  S1_48 
REMARK       I    between atoms: O3_32  and  C3_49 
REMARK       I    between atoms: O2_33  and  C2_70 
REMARK       I    between atoms: O2_33  and  S_133 
REMARK       I    between atoms: C5_37  and  C6_84 
REMARK       I    between atoms: C5_41  and  C6_43 
REMARK       I    between atoms: O6_42  and  C6_84 
REMARK       I    between atoms: O6_42  and  S2_77 
REMARK       I    between atoms: C5_44  and  C6_108 
REMARK       I    between atoms: O1_45  and  C1_120 
REMARK       I    between atoms: O1_45  and  C4_114 
REMARK       I    between atoms: S2_47  and  O6_94 
REMARK       I    between atoms: S1_48  and  N_53 
REMARK       I    between atoms: S1_48  and  O1S_52 
REMARK       I    between atoms: S1_48  and  O3S_83 
REMARK       I    between atoms: O3_50  and  C3_119 
REMARK       I    between atoms: N_53  and  C2_89 
REMARK       I    between atoms: S_55  and  O2_75 
REMARK       I    between atoms: O3_56  and  C3_124 
REMARK       I    between atoms: O1_59  and  C1_110 
REMARK       I    between atoms: S2_60  and  O6_132 
REMARK       I    between atoms: O3_61  and  C3_115 
REMARK       I    between atoms: C6_62  and  C5_106 
REMARK       I    between atoms: C6_62  and  O6_94 
REMARK       I    between atoms: C4_63  and  O1_96 
REMARK       I    between atoms: O3_67  and  C3_93 
REMARK       I    between atoms: O1_69  and  C1_113 
REMARK       I    between atoms: O1_69  and  C4_103 
REMARK       I    between atoms: C2_70  and  C1_76 
REMARK       I    between atoms: C5_74  and  C6_90 
REMARK       I    between atoms: C1_76  and  O1_96 
REMARK       I    between atoms: C4_78  and  O1_112 
REMARK       I    between atoms: C6_80  and  C5_134 
REMARK       I    between atoms: C6_80  and  O6_132 
REMARK       I    between atoms: C6_90  and  O6_117 
REMARK       I    between atoms: C2_98  and  N_128 
REMARK       I    between atoms: C1_100  and  O1_112 
REMARK       I    between atoms: S1_111  and  O1S_116 
REMARK       I    between atoms: C4_127  and  O1_130 
ROOT
ATOM      1  C5  IDS d 249      50.408  25.605   5.793  0.00  0.00     0.152 C 
ATOM      2  O2  IDS d 249      46.613  24.013   6.201  0.00  0.00    -0.244 OA
ATOM      3  O1S IDS d 249      46.261  23.793   8.600  0.00  0.00    -0.572 OA
ATOM      4  O5  IDS d 249      49.265  26.488   5.867  0.00  0.00    -0.340 OA
ATOM      5  O1  IDS d 249      47.912  25.887   4.104  0.00  0.00    -0.348 OA
ATOM      6  O62 IDS d 249      51.766  27.497   6.435  0.00  0.00    -0.646 OA
ATOM      7  O3  IDS d 249      49.242  22.828   7.324  0.00  0.00    -0.390 OA
ATOM      8  S   IDS d 249      45.722  24.510   7.456  0.00  0.00     0.252 S 
ATOM      9  C3  IDS d 249      48.812  24.104   7.101  0.00  0.00     0.094 C 
ATOM     10  C6  IDS d 249      51.704  26.444   5.827  0.00  0.00     0.206 C 
ATOM     11  O3S IDS d 249      44.358  24.135   7.152  0.00  0.00    -0.572 OA
ATOM     12  C2  IDS d 249      47.969  24.389   5.880  0.00  0.00     0.134 C 
ATOM     13  C1  IDS d 249      48.036  25.887   5.476  0.00  0.00     0.161 C 
ATOM     14  C4  IDS d 249      50.282  24.584   6.978  0.00  0.00     0.103 C 
ATOM     15  O2S IDS d 249      45.900  25.936   7.586  0.00  0.00    -0.572 OA
ATOM     16  O61 IDS d 249      52.710  26.063   5.228  0.00  0.00    -0.646 OA
ATOM     17  H   IDS d 249      50.441  25.050   4.879  0.00  0.00     0.104 H 
ATOM     18  H   IDS d 249      48.476  22.246   7.449  0.00  0.00     0.210 HD
ATOM     19  H   IDS d 249      48.127  24.528   7.806  0.00  0.00     0.091 H 
ATOM     20  H   IDS d 249      48.337  23.832   5.044  0.00  0.00     0.097 H 
ATOM     21  H   IDS d 249      47.270  26.456   5.960  0.00  0.00     0.133 H 
ATOM     22  H   IDS d 249      50.885  23.701   6.951  0.00  0.00     0.092 H 
ATOM     23  O3  SGN d 246      52.519  33.403  16.822  0.00  0.00    -0.215 OA
ATOM     24  S2  SGN d 246      48.475  30.462  21.077  0.00  0.00     0.251 S 
ATOM     25  O6S SGN d 246      47.564  30.988  20.100  0.00  0.00    -0.572 OA
ATOM     26  O2S SGN d 246      50.107  36.069  15.251  0.00  0.00    -0.294 OA
ATOM     27  C3  SGN d 246      51.588  32.343  16.805  0.00  0.00     0.121 C 
ATOM     28  C2  SGN d 246      50.173  32.884  16.551  0.00  0.00     0.084 C 
ATOM     29  O4S SGN d 246      48.240  29.074  21.380  0.00  0.00    -0.572 OA
ATOM     30  O5S SGN d 246      48.569  31.291  22.253  0.00  0.00    -0.572 OA
ATOM     31  N   SGN d 246      50.132  33.578  15.262  0.00  0.00    -0.208 NA
ATOM     32  C4  SGN d 246      51.590  31.667  18.149  0.00  0.00     0.095 C 
ATOM     33  O1  SGN d 246      49.462  30.742  15.550  0.00  0.00    -0.348 OA
ATOM     34  C5  SGN d 246      50.537  30.479  18.127  0.00  0.00     0.091 C 
ATOM     35  C6  SGN d 246      50.412  29.703  19.460  0.00  0.00     0.067 C 
ATOM     36  S1  SGN d 246      51.004  34.952  15.036  0.00  0.00     0.188 S 
ATOM     37  C1  SGN d 246      49.132  31.680  16.558  0.00  0.00     0.151 C 
ATOM     38  O1S SGN d 246      51.546  34.907  13.692  0.00  0.00    -0.294 OA
ATOM     39  O6  SGN d 246      49.876  30.548  20.443  0.00  0.00    -0.254 OA
ATOM     40  O5  SGN d 246      49.193  31.000  17.811  0.00  0.00    -0.349 OA
ATOM     41  O3S SGN d 246      52.042  34.884  16.042  0.00  0.00    -0.119 OA
ATOM     42  H   SGN d 246      49.429  36.077  14.557  0.00  0.00     0.231 HD
ATOM     43  H   SGN d 246      51.859  31.658  16.029  0.00  0.00     0.095 H 
ATOM     44  H   SGN d 246      49.913  33.576  17.325  0.00  0.00     0.077 H 
ATOM     45  H   SGN d 246      49.155  33.818  15.089  0.00  0.00     0.140 HD
ATOM     46  H   SGN d 246      51.306  32.332  18.937  0.00  0.00     0.091 H 
ATOM     47  H   SGN d 246      50.906  29.805  17.383  0.00  0.00     0.090 H 
ATOM     48  H   SGN d 246      51.380  29.365  19.769  0.00  0.00     0.080 H 
ATOM     49  H   SGN d 246      49.767  28.860  19.324  0.00  0.00     0.080 H 
ATOM     50  H   SGN d 246      48.155  32.081  16.388  0.00  0.00     0.131 H 
ATOM     51  H   SGN d 246      50.821  34.955  13.049  0.00  0.00     0.231 HD
ATOM     52  O3  SGN d 250      49.579  27.563   2.574  0.00  0.00    -0.391 OA
ATOM     53  O5S SGN d 250      41.661  25.873   3.489  0.00  0.00    -0.572 OA
ATOM     54  C4  SGN d 250      47.388  27.031   3.453  0.00  0.00     0.095 C 
ATOM     55  S1  SGN d 250      49.733  29.774   0.112  0.00  0.00     0.156 S 
ATOM     56  O3S SGN d 250      49.344  30.745  -0.904  0.00  0.00    -0.296 OA
ATOM     57  C1  SGN d 250      46.169  28.080   1.056  0.00  0.00     0.150 C 
ATOM     58  O2S SGN d 250      50.899  28.974  -0.295  0.00  0.00    -0.296 OA
ATOM     59  C5  SGN d 250      45.903  26.757   3.037  0.00  0.00     0.091 C 
ATOM     60  O6  SGN d 250      43.986  25.608   3.892  0.00  0.00    -0.254 OA
ATOM     61  O1S SGN d 250      49.882  30.402   1.416  0.00  0.00    -0.296 OA
ATOM     62  O1  SGN d 250      46.253  26.771   0.524  0.00  0.00    -0.348 OA
ATOM     63  S2  SGN d 250      42.569  25.495   4.540  0.00  0.00     0.251 S 
ATOM     64  C6  SGN d 250      44.977  26.529   4.237  0.00  0.00     0.067 C 
ATOM     65  C3  SGN d 250      48.239  27.286   2.190  0.00  0.00     0.083 C 
ATOM     66  C2  SGN d 250      47.647  28.500   1.418  0.00  0.00     0.081 C 
ATOM     67  O6S SGN d 250      42.415  24.099   4.922  0.00  0.00    -0.572 OA
ATOM     68  O5  SGN d 250      45.400  27.910   2.259  0.00  0.00    -0.349 OA
ATOM     69  O4S SGN d 250      42.534  26.412   5.668  0.00  0.00    -0.572 OA
ATOM     70  N   SGN d 250      48.451  28.712   0.170  0.00  0.00    -0.210 NA
ATOM     71  H   SGN d 250      49.941  26.803   3.056  0.00  0.00     0.210 HD
ATOM     72  H   SGN d 250      47.417  27.881   4.103  0.00  0.00     0.091 H 
ATOM     73  H   SGN d 250      48.575  31.247  -0.593  0.00  0.00     0.231 HD
ATOM     74  H   SGN d 250      45.736  28.811   0.406  0.00  0.00     0.131 H 
ATOM     75  H   SGN d 250      51.121  28.344   0.408  0.00  0.00     0.231 HD
ATOM     76  H   SGN d 250      45.899  25.860   2.453  0.00  0.00     0.090 H 
ATOM     77  H   SGN d 250      50.140  29.734   2.069  0.00  0.00     0.231 HD
ATOM     78  H   SGN d 250      44.521  27.455   4.517  0.00  0.00     0.080 H 
ATOM     79  H   SGN d 250      45.546  26.149   5.060  0.00  0.00     0.080 H 
ATOM     80  H   SGN d 250      48.226  26.423   1.559  0.00  0.00     0.089 H 
ATOM     81  H   SGN d 250      47.667  29.408   1.984  0.00  0.00     0.076 H 
ATOM     82  H   SGN d 250      48.827  27.798  -0.085  0.00  0.00     0.140 HD
ATOM     83  C1  SGN d 252      44.073  19.466  -2.462  0.00  0.00     0.147 C 
ATOM     84  C2  SGN d 252      44.134  20.225  -1.117  0.00  0.00     0.081 C 
ATOM     85  S1  SGN d 252      42.299  19.259   0.638  0.00  0.00     0.156 S 
ATOM     86  O3  SGN d 252      44.762  22.289  -0.176  0.00  0.00    -0.391 OA
ATOM     87  O2S SGN d 252      42.965  19.691   1.849  0.00  0.00    -0.296 OA
ATOM     88  O1  SGN d 252      43.191  20.169  -3.359  0.00  0.00    -0.369 OA
ATOM     89  S2  SGN d 252      49.581  19.234  -2.798  0.00  0.00     0.251 S 
ATOM     90  C3  SGN d 252      44.712  21.611  -1.385  0.00  0.00     0.083 C 
ATOM     91  C6  SGN d 252      47.400  20.307  -3.953  0.00  0.00     0.067 C 
ATOM     92  O6S SGN d 252      49.088  17.983  -3.365  0.00  0.00    -0.572 OA
ATOM     93  O1S SGN d 252      42.705  17.934   0.209  0.00  0.00    -0.296 OA
ATOM     94  O3S SGN d 252      40.846  19.381   0.736  0.00  0.00    -0.296 OA
ATOM     95  N   SGN d 252      42.758  20.330  -0.547  0.00  0.00    -0.210 NA
ATOM     96  O5  SGN d 252      45.408  19.359  -3.034  0.00  0.00    -0.350 OA
ATOM     97  O6  SGN d 252      48.414  20.293  -2.971  0.00  0.00    -0.254 OA
ATOM     98  O5S SGN d 252      49.770  19.156  -1.353  0.00  0.00    -0.572 OA
ATOM     99  C5  SGN d 252      46.058  20.624  -3.283  0.00  0.00     0.091 C 
ATOM    100  C4  SGN d 252      46.167  21.446  -1.960  0.00  0.00     0.095 C 
ATOM    101  O4S SGN d 252      50.749  19.756  -3.495  0.00  0.00    -0.572 OA
ATOM    102  H   SGN d 252      43.698  18.476  -2.303  0.00  0.00     0.131 H 
ATOM    103  H   SGN d 252      44.750  19.708  -0.412  0.00  0.00     0.076 H 
ATOM    104  H   SGN d 252      43.863  22.390   0.176  0.00  0.00     0.210 HD
ATOM    105  H   SGN d 252      43.924  19.595   1.742  0.00  0.00     0.231 HD
ATOM    106  H   SGN d 252      43.529  21.067  -3.506  0.00  0.00     0.212 HD
ATOM    107  H   SGN d 252      44.114  22.151  -2.088  0.00  0.00     0.089 H 
ATOM    108  H   SGN d 252      47.621  21.056  -4.685  0.00  0.00     0.080 H 
ATOM    109  H   SGN d 252      47.348  19.352  -4.432  0.00  0.00     0.080 H 
ATOM    110  H   SGN d 252      43.673  17.893   0.156  0.00  0.00     0.231 HD
ATOM    111  H   SGN d 252      40.440  19.082  -0.093  0.00  0.00     0.231 HD
ATOM    112  H   SGN d 252      42.104  20.219  -1.322  0.00  0.00     0.140 HD
ATOM    113  H   SGN d 252      45.497  21.253  -3.943  0.00  0.00     0.090 H 
ATOM    114  H   SGN d 252      46.785  20.962  -1.233  0.00  0.00     0.091 H 
ATOM    115  C3  IDS d 245      54.494  31.669  21.624  0.00  0.00     0.044 C 
ATOM    116  O2S IDS d 245      53.391  27.631  19.759  0.00  0.00    -0.572 OA
ATOM    117  O2  IDS d 245      53.241  29.897  20.670  0.00  0.00    -0.247 OA
ATOM    118  O3S IDS d 245      54.710  28.277  21.686  0.00  0.00    -0.572 OA
ATOM    119  O3  IDS d 245      55.062  30.801  22.576  0.00  0.00    -0.398 OA
ATOM    120  C2  IDS d 245      54.202  30.906  20.366  0.00  0.00     0.100 C 
ATOM    121  C1  IDS d 245      53.619  31.897  19.392  0.00  0.00     0.048 C 
ATOM    122  O1  IDS d 245      52.923  31.201  18.390  0.00  0.00    -0.378 OA
ATOM    123  O1S IDS d 245      52.311  28.055  21.873  0.00  0.00    -0.572 OA
ATOM    124  S   IDS d 245      53.438  28.371  21.007  0.00  0.00     0.252 S 
ATOM    125  H   IDS d 245      53.585  32.078  22.012  0.00  0.00     0.078 H 
ATOM    126  H   IDS d 245      55.179  32.462  21.410  0.00  0.00     0.078 H 
ATOM    127  H   IDS d 245      54.442  30.081  22.769  0.00  0.00     0.209 HD
ATOM    128  H   IDS d 245      55.076  30.444  19.958  0.00  0.00     0.092 H 
ATOM    129  H   IDS d 245      54.406  32.470  18.948  0.00  0.00     0.078 H 
ATOM    130  H   IDS d 245      52.950  32.555  19.905  0.00  0.00     0.078 H 
ATOM    131  C2  IDS d 247      49.625  30.923  11.968  0.00  0.00     0.134 C 
ATOM    132  O2  IDS d 247      50.358  31.866  11.157  0.00  0.00    -0.244 OA
ATOM    133  S   IDS d 247      49.785  33.045  10.195  0.00  0.00     0.252 S 
ATOM    134  C5  IDS d 247      48.831  29.134  13.878  0.00  0.00     0.152 C 
ATOM    135  O1S IDS d 247      48.440  32.612   9.870  0.00  0.00    -0.572 OA
ATOM    136  O3  IDS d 247      48.590  32.742  13.139  0.00  0.00    -0.390 OA
ATOM    137  O3S IDS d 247      50.655  33.098   9.017  0.00  0.00    -0.572 OA
ATOM    138  O62 IDS d 247      49.480  27.365  15.379  0.00  0.00    -0.646 OA
ATOM    139  O61 IDS d 247      47.510  28.024  15.559  0.00  0.00    -0.646 OA
ATOM    140  O5  IDS d 247      50.162  28.936  13.336  0.00  0.00    -0.340 OA
ATOM    141  O2S IDS d 247      49.788  34.275  10.959  0.00  0.00    -0.572 OA
ATOM    142  C1  IDS d 247      50.438  29.620  12.111  0.00  0.00     0.161 C 
ATOM    143  C4  IDS d 247      48.700  30.637  14.350  0.00  0.00     0.103 C 
ATOM    144  C6  IDS d 247      48.595  28.108  15.004  0.00  0.00     0.206 C 
ATOM    145  O1  IDS d 247      50.112  28.850  11.011  0.00  0.00    -0.348 OA
ATOM    146  C3  IDS d 247      49.381  31.573  13.319  0.00  0.00     0.094 C 
ATOM    147  H   IDS d 247      48.688  30.669  11.518  0.00  0.00     0.097 H 
ATOM    148  H   IDS d 247      48.069  28.967  13.145  0.00  0.00     0.104 H 
ATOM    149  H   IDS d 247      49.017  33.326  12.493  0.00  0.00     0.210 HD
ATOM    150  H   IDS d 247      51.486  29.831  12.147  0.00  0.00     0.133 H 
ATOM    151  H   IDS d 247      47.670  30.903  14.469  0.00  0.00     0.092 H 
ATOM    152  H   IDS d 247      50.342  31.815  13.722  0.00  0.00     0.091 H 
ATOM    153  C2  IDS d 251      47.833  24.881  -2.050  0.00  0.00     0.134 C 
ATOM    154  C1  IDS d 251      47.287  23.644  -1.283  0.00  0.00     0.161 C 
ATOM    155  O62 IDS d 251      43.098  25.767  -0.269  0.00  0.00    -0.646 OA
ATOM    156  C4  IDS d 251      46.182  26.459  -0.809  0.00  0.00     0.103 C 
ATOM    157  C5  IDS d 251      45.385  25.120  -0.818  0.00  0.00     0.152 C 
ATOM    158  C6  IDS d 251      44.096  25.155   0.072  0.00  0.00     0.206 C 
ATOM    159  S   IDS d 251      50.399  24.303  -1.239  0.00  0.00     0.252 S 
ATOM    160  O3  IDS d 251      48.107  27.274  -2.023  0.00  0.00    -0.390 OA
ATOM    161  O61 IDS d 251      44.062  24.565   1.156  0.00  0.00    -0.646 OA
ATOM    162  O3S IDS d 251      51.565  24.094  -2.065  0.00  0.00    -0.572 OA
ATOM    163  O2  IDS d 251      49.239  24.752  -2.276  0.00  0.00    -0.244 OA
ATOM    164  O2S IDS d 251      49.962  23.099  -0.556  0.00  0.00    -0.572 OA
ATOM    165  O5  IDS d 251      46.291  24.065  -0.335  0.00  0.00    -0.340 OA
ATOM    166  C3  IDS d 251      47.638  26.182  -1.256  0.00  0.00     0.094 C 
ATOM    167  O1S IDS d 251      50.546  25.427  -0.326  0.00  0.00    -0.572 OA
ATOM    168  O1  IDS d 251      46.753  22.763  -2.288  0.00  0.00    -0.348 OA
ATOM    169  H   IDS d 251      47.288  24.924  -2.969  0.00  0.00     0.097 H 
ATOM    170  H   IDS d 251      48.043  23.140  -0.719  0.00  0.00     0.133 H 
ATOM    171  H   IDS d 251      45.738  27.207  -1.434  0.00  0.00     0.092 H 
ATOM    172  H   IDS d 251      45.049  24.936  -1.817  0.00  0.00     0.104 H 
ATOM    173  H   IDS d 251      49.019  27.103  -2.304  0.00  0.00     0.210 HD
ATOM    174  H   IDS d 251      48.202  26.059  -0.355  0.00  0.00     0.091 H 
ATOM    175  O5S SGN d 248      52.575  28.324  12.890  0.00  0.00    -0.572 OA
ATOM    176  O4S SGN d 248      54.892  28.355  12.189  0.00  0.00    -0.572 OA
ATOM    177  O2S SGN d 248      49.218  21.645  10.136  0.00  0.00    -0.296 OA
ATOM    178  O1  SGN d 248      50.546  25.684   8.109  0.00  0.00    -0.348 OA
ATOM    179  S1  SGN d 248      49.837  22.619  11.027  0.00  0.00     0.156 S 
ATOM    180  O3  SGN d 248      49.103  26.402  11.894  0.00  0.00    -0.391 OA
ATOM    181  O1S SGN d 248      49.226  22.680  12.337  0.00  0.00    -0.296 OA
ATOM    182  N   SGN d 248      49.614  24.083  10.286  0.00  0.00    -0.210 NA
ATOM    183  S2  SGN d 248      53.518  28.078  11.813  0.00  0.00     0.251 S 
ATOM    184  C4  SGN d 248      50.846  27.653  10.797  0.00  0.00     0.095 C 
ATOM    185  C6  SGN d 248      52.713  28.841   9.428  0.00  0.00     0.067 C 
ATOM    186  O6S SGN d 248      53.344  26.776  11.201  0.00  0.00    -0.572 OA
ATOM    187  O3S SGN d 248      51.272  22.434  11.125  0.00  0.00    -0.296 OA
ATOM    188  O5  SGN d 248      52.336  26.455   9.223  0.00  0.00    -0.349 OA
ATOM    189  C2  SGN d 248      50.597  25.195  10.431  0.00  0.00     0.081 C 
ATOM    190  C3  SGN d 248      49.839  26.507  10.685  0.00  0.00     0.083 C 
ATOM    191  C1  SGN d 248      51.425  25.365   9.113  0.00  0.00     0.150 C 
ATOM    192  O6  SGN d 248      53.123  29.117  10.731  0.00  0.00    -0.254 OA
ATOM    193  C5  SGN d 248      51.649  27.732   9.453  0.00  0.00     0.091 C 
ATOM    194  H   SGN d 248      48.261  21.803  10.098  0.00  0.00     0.231 HD
ATOM    195  H   SGN d 248      48.625  27.230  12.054  0.00  0.00     0.210 HD
ATOM    196  H   SGN d 248      48.269  22.804  12.242  0.00  0.00     0.231 HD
ATOM    197  H   SGN d 248      48.722  24.444  10.626  0.00  0.00     0.140 HD
ATOM    198  H   SGN d 248      51.532  27.503  11.604  0.00  0.00     0.091 H 
ATOM    199  H   SGN d 248      52.298  29.724   8.990  0.00  0.00     0.080 H 
ATOM    200  H   SGN d 248      53.553  28.519   8.849  0.00  0.00     0.080 H 
ATOM    201  H   SGN d 248      51.655  22.397  10.235  0.00  0.00     0.231 HD
ATOM    202  H   SGN d 248      51.253  24.967  11.245  0.00  0.00     0.076 H 
ATOM    203  H   SGN d 248      49.165  26.698   9.877  0.00  0.00     0.089 H 
ATOM    204  H   SGN d 248      51.964  24.461   8.923  0.00  0.00     0.131 H 
ATOM    205  H   SGN d 248      50.930  27.953   8.691  0.00  0.00     0.090 H 
ENDROOT
TORSDOF 64
ENDMDL
MODEL 22
REMARK VINA RESULT:      -0.1      2.973     17.902
REMARK  0 active torsions:
REMARK  status: ('A' for Active; 'I' for Inactive)
REMARK       I    between atoms: C5_1  and  C6_97 
REMARK       I    between atoms: O2_2  and  C2_107 
REMARK       I    between atoms: O2_2  and  S_88 
REMARK       I    between atoms: O3_4  and  C3_95 
REMARK       I    between atoms: C1_5  and  O1_40 
REMARK       I    between atoms: C3_6  and  C2_70 
REMARK       I    between atoms: C3_6  and  O3_51 
REMARK       I    between atoms: C2_7  and  O2_9 
REMARK       I    between atoms: C2_8  and  O2_75 
REMARK       I    between atoms: O2_9  and  S_23 
REMARK       I    between atoms: S2_14  and  O6_117 
REMARK       I    between atoms: C1_15  and  O1_130 
REMARK       I    between atoms: C4_16  and  O1_59 
REMARK       I    between atoms: S1_17  and  N_128 
REMARK       I    between atoms: S1_17  and  O1S_46 
REMARK       I    between atoms: S1_17  and  O2S_29 
REMARK       I    between atoms: S1_17  and  O3S_24 
REMARK       I    between atoms: C2_18  and  N_86 
REMARK       I    between atoms: S1_19  and  N_86 
REMARK       I    between atoms: S1_19  and  O1S_71 
REMARK       I    between atoms: S1_19  and  O2S_34 
REMARK       I    between atoms: S1_19  and  O3S_81 
REMARK       I    between atoms: O2S_22  and  S1_111 
REMARK       I    between atoms: C1_25  and  O1_58 
REMARK       I    between atoms: C4_27  and  O1_58 
REMARK       I    between atoms: O2S_28  and  S1_48 
REMARK       I    between atoms: O3_32  and  C3_49 
REMARK       I    between atoms: O2_33  and  C2_70 
REMARK       I    between atoms: O2_33  and  S_133 
REMARK       I    between atoms: C5_37  and  C6_84 
REMARK       I    between atoms: C5_41  and  C6_43 
REMARK       I    between atoms: O6_42  and  C6_84 
REMARK       I    between atoms: O6_42  and  S2_77 
REMARK       I    between atoms: C5_44  and  C6_108 
REMARK       I    between atoms: O1_45  and  C1_120 
REMARK       I    between atoms: O1_45  and  C4_114 
REMARK       I    between atoms: S2_47  and  O6_94 
REMARK       I    between atoms: S1_48  and  N_53 
REMARK       I    between atoms: S1_48  and  O1S_52 
REMARK       I    between atoms: S1_48  and  O3S_83 
REMARK       I    between atoms: O3_50  and  C3_119 
REMARK       I    between atoms: N_53  and  C2_89 
REMARK       I    between atoms: S_55  and  O2_75 
REMARK       I    between atoms: O3_56  and  C3_124 
REMARK       I    between atoms: O1_59  and  C1_110 
REMARK       I    between atoms: S2_60  and  O6_132 
REMARK       I    between atoms: O3_61  and  C3_115 
REMARK       I    between atoms: C6_62  and  C5_106 
REMARK       I    between atoms: C6_62  and  O6_94 
REMARK       I    between atoms: C4_63  and  O1_96 
REMARK       I    between atoms: O3_67  and  C3_93 
REMARK       I    between atoms: O1_69  and  C1_113 
REMARK       I    between atoms: O1_69  and  C4_103 
REMARK       I    between atoms: C2_70  and  C1_76 
REMARK       I    between atoms: C5_74  and  C6_90 
REMARK       I    between atoms: C1_76  and  O1_96 
REMARK       I    between atoms: C4_78  and  O1_112 
REMARK       I    between atoms: C6_80  and  C5_134 
REMARK       I    between atoms: C6_80  and  O6_132 
REMARK       I    between atoms: C6_90  and  O6_117 
REMARK       I    between atoms: C2_98  and  N_128 
REMARK       I    between atoms: C1_100  and  O1_112 
REMARK       I    between atoms: S1_111  and  O1S_116 
REMARK       I    between atoms: C4_127  and  O1_130 
ROOT
ATOM      1  C5  IDS d 249      45.104  25.683   7.463  0.00  0.00     0.152 C 
ATOM      2  O2  IDS d 249      46.108  27.532   3.903  0.00  0.00    -0.244 OA
ATOM      3  O1S IDS d 249      46.031  29.920   4.373  0.00  0.00    -0.572 OA
ATOM      4  O5  IDS d 249      46.494  25.948   7.160  0.00  0.00    -0.340 OA
ATOM      5  O1  IDS d 249      46.916  24.833   5.191  0.00  0.00    -0.348 OA
ATOM      6  O62 IDS d 249      45.759  25.518   9.782  0.00  0.00    -0.646 OA
ATOM      7  O3  IDS d 249      43.525  27.975   5.547  0.00  0.00    -0.390 OA
ATOM      8  S   IDS d 249      46.982  28.891   3.984  0.00  0.00     0.252 S 
ATOM      9  C3  IDS d 249      44.810  27.671   5.890  0.00  0.00     0.094 C 
ATOM     10  C6  IDS d 249      44.987  25.160   8.911  0.00  0.00     0.206 C 
ATOM     11  O3S IDS d 249      47.521  29.099   2.657  0.00  0.00    -0.572 OA
ATOM     12  C2  IDS d 249      45.604  26.742   5.001  0.00  0.00     0.134 C 
ATOM     13  C1  IDS d 249      46.775  26.075   5.772  0.00  0.00     0.161 C 
ATOM     14  C4  IDS d 249      44.311  27.012   7.202  0.00  0.00     0.103 C 
ATOM     15  O2S IDS d 249      48.003  28.699   4.984  0.00  0.00    -0.572 OA
ATOM     16  O61 IDS d 249      44.106  24.357   9.215  0.00  0.00    -0.646 OA
ATOM     17  H   IDS d 249      44.686  24.920   6.840  0.00  0.00     0.104 H 
ATOM     18  H   IDS d 249      43.518  28.435   4.693  0.00  0.00     0.210 HD
ATOM     19  H   IDS d 249      45.528  28.465   5.883  0.00  0.00     0.091 H 
ATOM     20  H   IDS d 249      44.978  25.949   4.650  0.00  0.00     0.097 H 
ATOM     21  H   IDS d 249      47.667  26.663   5.711  0.00  0.00     0.133 H 
ATOM     22  H   IDS d 249      43.246  26.958   7.125  0.00  0.00     0.092 H 
ATOM     23  O3  SGN d 246      49.510  33.912  17.451  0.00  0.00    -0.215 OA
ATOM     24  S2  SGN d 246      49.407  39.671  14.300  0.00  0.00     0.251 S 
ATOM     25  O6S SGN d 246      50.423  38.948  13.587  0.00  0.00    -0.572 OA
ATOM     26  O2S SGN d 246      53.162  32.716  16.662  0.00  0.00    -0.294 OA
ATOM     27  C3  SGN d 246      49.230  34.377  16.149  0.00  0.00     0.121 C 
ATOM     28  C2  SGN d 246      50.526  34.482  15.333  0.00  0.00     0.084 C 
ATOM     29  O4S SGN d 246      48.431  40.277  13.433  0.00  0.00    -0.572 OA
ATOM     30  O5S SGN d 246      49.954  40.589  15.267  0.00  0.00    -0.572 OA
ATOM     31  N   SGN d 246      51.164  33.168  15.244  0.00  0.00    -0.208 NA
ATOM     32  C4  SGN d 246      48.626  35.752  16.238  0.00  0.00     0.095 C 
ATOM     33  O1  SGN d 246      49.298  34.156  13.216  0.00  0.00    -0.348 OA
ATOM     34  C5  SGN d 246      48.317  36.273  14.772  0.00  0.00     0.091 C 
ATOM     35  C6  SGN d 246      47.712  37.696  14.706  0.00  0.00     0.067 C 
ATOM     36  S1  SGN d 246      51.742  32.438  16.598  0.00  0.00     0.188 S 
ATOM     37  C1  SGN d 246      50.196  35.030  13.875  0.00  0.00     0.151 C 
ATOM     38  O1S SGN d 246      51.443  31.023  16.491  0.00  0.00    -0.294 OA
ATOM     39  O6  SGN d 246      48.661  38.627  15.152  0.00  0.00    -0.254 OA
ATOM     40  O5  SGN d 246      49.559  36.303  13.974  0.00  0.00    -0.349 OA
ATOM     41  O3S SGN d 246      51.014  33.065  17.679  0.00  0.00    -0.119 OA
ATOM     42  H   SGN d 246      53.611  32.278  15.922  0.00  0.00     0.231 HD
ATOM     43  H   SGN d 246      48.557  33.692  15.676  0.00  0.00     0.095 H 
ATOM     44  H   SGN d 246      51.197  35.161  15.818  0.00  0.00     0.077 H 
ATOM     45  H   SGN d 246      51.953  33.267  14.605  0.00  0.00     0.140 HD
ATOM     46  H   SGN d 246      49.289  36.456  16.696  0.00  0.00     0.091 H 
ATOM     47  H   SGN d 246      47.593  35.585  14.388  0.00  0.00     0.090 H 
ATOM     48  H   SGN d 246      46.843  37.744  15.331  0.00  0.00     0.080 H 
ATOM     49  H   SGN d 246      47.437  37.922  13.697  0.00  0.00     0.080 H 
ATOM     50  H   SGN d 246      51.113  35.104  13.329  0.00  0.00     0.131 H 
ATOM     51  H   SGN d 246      51.949  30.640  15.758  0.00  0.00     0.231 HD
ATOM     52  O3  SGN d 250      47.316  22.585   6.839  0.00  0.00    -0.391 OA
ATOM     53  O5S SGN d 250      50.707  26.207   0.376  0.00  0.00    -0.572 OA
ATOM     54  C4  SGN d 250      48.173  24.183   5.237  0.00  0.00     0.095 C 
ATOM     55  S1  SGN d 250      49.100  19.841   7.352  0.00  0.00     0.156 S 
ATOM     56  O3S SGN d 250      50.156  18.839   7.266  0.00  0.00    -0.296 OA
ATOM     57  C1  SGN d 250      49.857  22.136   4.094  0.00  0.00     0.150 C 
ATOM     58  O2S SGN d 250      47.778  19.242   7.600  0.00  0.00    -0.296 OA
ATOM     59  C5  SGN d 250      48.871  24.306   3.840  0.00  0.00     0.091 C 
ATOM     60  O6  SGN d 250      49.074  25.908   2.073  0.00  0.00    -0.254 OA
ATOM     61  O1S SGN d 250      49.448  20.898   8.290  0.00  0.00    -0.296 OA
ATOM     62  O1  SGN d 250      48.791  21.850   3.208  0.00  0.00    -0.348 OA
ATOM     63  S2  SGN d 250      49.808  26.974   1.199  0.00  0.00     0.251 S 
ATOM     64  C6  SGN d 250      49.192  25.755   3.456  0.00  0.00     0.067 C 
ATOM     65  C3  SGN d 250      47.923  22.694   5.558  0.00  0.00     0.083 C 
ATOM     66  C2  SGN d 250      49.283  21.938   5.551  0.00  0.00     0.081 C 
ATOM     67  O6S SGN d 250      48.771  27.629   0.415  0.00  0.00    -0.572 OA
ATOM     68  O5  SGN d 250      50.130  23.529   3.860  0.00  0.00    -0.349 OA
ATOM     69  O4S SGN d 250      50.506  27.872   2.105  0.00  0.00    -0.572 OA
ATOM     70  N   SGN d 250      49.025  20.486   5.818  0.00  0.00    -0.210 NA
ATOM     71  H   SGN d 250      46.469  23.059   6.837  0.00  0.00     0.210 HD
ATOM     72  H   SGN d 250      48.801  24.627   5.981  0.00  0.00     0.091 H 
ATOM     73  H   SGN d 250      51.005  19.278   7.102  0.00  0.00     0.231 HD
ATOM     74  H   SGN d 250      50.733  21.533   3.967  0.00  0.00     0.131 H 
ATOM     75  H   SGN d 250      47.110  19.943   7.650  0.00  0.00     0.231 HD
ATOM     76  H   SGN d 250      48.188  23.924   3.110  0.00  0.00     0.090 H 
ATOM     77  H   SGN d 250      48.728  21.548   8.325  0.00  0.00     0.231 HD
ATOM     78  H   SGN d 250      50.191  25.991   3.756  0.00  0.00     0.080 H 
ATOM     79  H   SGN d 250      48.507  26.414   3.947  0.00  0.00     0.080 H 
ATOM     80  H   SGN d 250      47.274  22.264   4.824  0.00  0.00     0.089 H 
ATOM     81  H   SGN d 250      49.966  22.297   6.291  0.00  0.00     0.076 H 
ATOM     82  H   SGN d 250      48.084  20.295   5.474  0.00  0.00     0.140 HD
ATOM     83  C1  SGN d 252      44.435  21.058  -3.679  0.00  0.00     0.147 C 
ATOM     84  C2  SGN d 252      44.939  22.158  -2.716  0.00  0.00     0.081 C 
ATOM     85  S1  SGN d 252      45.194  24.540  -3.996  0.00  0.00     0.156 S 
ATOM     86  O3  SGN d 252      46.158  22.468  -0.726  0.00  0.00    -0.391 OA
ATOM     87  O2S SGN d 252      45.078  25.385  -2.825  0.00  0.00    -0.296 OA
ATOM     88  O1  SGN d 252      45.571  20.369  -4.239  0.00  0.00    -0.369 OA
ATOM     89  S2  SGN d 252      40.942  19.072   0.110  0.00  0.00     0.251 S 
ATOM     90  C3  SGN d 252      45.705  21.477  -1.586  0.00  0.00     0.083 C 
ATOM     91  C6  SGN d 252      43.168  18.479  -1.282  0.00  0.00     0.067 C 
ATOM     92  O6S SGN d 252      40.271  18.922  -1.177  0.00  0.00    -0.572 OA
ATOM     93  O1S SGN d 252      43.915  24.252  -4.616  0.00  0.00    -0.296 OA
ATOM     94  O3S SGN d 252      46.163  25.062  -4.957  0.00  0.00    -0.296 OA
ATOM     95  N   SGN d 252      45.826  23.098  -3.462  0.00  0.00    -0.210 NA
ATOM     96  O5  SGN d 252      43.572  20.128  -2.965  0.00  0.00    -0.350 OA
ATOM     97  O6  SGN d 252      42.497  19.083  -0.196  0.00  0.00    -0.254 OA
ATOM     98  O5S SGN d 252      40.697  20.375   0.719  0.00  0.00    -0.572 OA
ATOM     99  C5  SGN d 252      44.199  19.466  -1.845  0.00  0.00     0.091 C 
ATOM    100  C4  SGN d 252      44.724  20.518  -0.818  0.00  0.00     0.095 C 
ATOM    101  O4S SGN d 252      40.686  17.964   1.021  0.00  0.00    -0.572 OA
ATOM    102  H   SGN d 252      43.867  21.502  -4.470  0.00  0.00     0.131 H 
ATOM    103  H   SGN d 252      44.121  22.717  -2.311  0.00  0.00     0.076 H 
ATOM    104  H   SGN d 252      46.764  23.058  -1.203  0.00  0.00     0.210 HD
ATOM    105  H   SGN d 252      44.428  25.004  -2.215  0.00  0.00     0.231 HD
ATOM    106  H   SGN d 252      46.088  19.965  -3.525  0.00  0.00     0.212 HD
ATOM    107  H   SGN d 252      46.530  20.911  -1.963  0.00  0.00     0.089 H 
ATOM    108  H   SGN d 252      43.665  17.593  -0.948  0.00  0.00     0.080 H 
ATOM    109  H   SGN d 252      42.462  18.221  -2.043  0.00  0.00     0.080 H 
ATOM    110  H   SGN d 252      43.301  23.909  -3.948  0.00  0.00     0.231 HD
ATOM    111  H   SGN d 252      46.210  24.469  -5.723  0.00  0.00     0.231 HD
ATOM    112  H   SGN d 252      46.169  22.599  -4.283  0.00  0.00     0.140 HD
ATOM    113  H   SGN d 252      45.069  18.911  -2.128  0.00  0.00     0.090 H 
ATOM    114  H   SGN d 252      43.930  21.091  -0.386  0.00  0.00     0.091 H 
ATOM    115  C3  IDS d 245      46.709  38.091  19.610  0.00  0.00     0.044 C 
ATOM    116  O2S IDS d 245      44.250  37.421  15.802  0.00  0.00    -0.572 OA
ATOM    117  O2  IDS d 245      46.100  37.910  17.326  0.00  0.00    -0.247 OA
ATOM    118  O3S IDS d 245      43.876  38.693  17.830  0.00  0.00    -0.572 OA
ATOM    119  O3  IDS d 245      45.629  38.958  19.865  0.00  0.00    -0.398 OA
ATOM    120  C2  IDS d 245      46.338  37.145  18.507  0.00  0.00     0.100 C 
ATOM    121  C1  IDS d 245      47.525  36.239  18.304  0.00  0.00     0.048 C 
ATOM    122  O1  IDS d 245      47.439  35.646  17.033  0.00  0.00    -0.378 OA
ATOM    123  O1S IDS d 245      45.139  39.654  16.008  0.00  0.00    -0.572 OA
ATOM    124  S   IDS d 245      44.751  38.438  16.710  0.00  0.00     0.252 S 
ATOM    125  H   IDS d 245      47.565  38.662  19.318  0.00  0.00     0.078 H 
ATOM    126  H   IDS d 245      46.937  37.534  20.495  0.00  0.00     0.078 H 
ATOM    127  H   IDS d 245      45.422  39.462  19.062  0.00  0.00     0.209 HD
ATOM    128  H   IDS d 245      45.462  36.575  18.736  0.00  0.00     0.092 H 
ATOM    129  H   IDS d 245      47.527  35.477  19.055  0.00  0.00     0.078 H 
ATOM    130  H   IDS d 245      48.428  36.807  18.377  0.00  0.00     0.078 H 
ATOM    131  C2  IDS d 247      49.514  30.731  12.163  0.00  0.00     0.134 C 
ATOM    132  O2  IDS d 247      49.860  29.576  12.958  0.00  0.00    -0.244 OA
ATOM    133  S   IDS d 247      51.191  28.644  12.875  0.00  0.00     0.252 S 
ATOM    134  C5  IDS d 247      48.478  33.082  11.227  0.00  0.00     0.152 C 
ATOM    135  O1S IDS d 247      51.674  28.837  11.522  0.00  0.00    -0.572 OA
ATOM    136  O3  IDS d 247      51.531  31.818  12.872  0.00  0.00    -0.390 OA
ATOM    137  O3S IDS d 247      50.764  27.265  13.125  0.00  0.00    -0.572 OA
ATOM    138  O62 IDS d 247      46.608  34.599  11.216  0.00  0.00    -0.646 OA
ATOM    139  O61 IDS d 247      48.313  35.261  10.216  0.00  0.00    -0.646 OA
ATOM    140  O5  IDS d 247      47.544  32.198  11.896  0.00  0.00    -0.340 OA
ATOM    141  O2S IDS d 247      52.131  29.134  13.861  0.00  0.00    -0.572 OA
ATOM    142  C1  IDS d 247      47.980  30.846  12.058  0.00  0.00     0.161 C 
ATOM    143  C4  IDS d 247      49.732  33.293  12.168  0.00  0.00     0.103 C 
ATOM    144  C6  IDS d 247      47.752  34.391  10.862  0.00  0.00     0.206 C 
ATOM    145  O1  IDS d 247      47.616  30.059  10.981  0.00  0.00    -0.348 OA
ATOM    146  C3  IDS d 247      50.115  31.949  12.841  0.00  0.00     0.094 C 
ATOM    147  H   IDS d 247      49.899  30.648  11.168  0.00  0.00     0.097 H 
ATOM    148  H   IDS d 247      48.841  32.666  10.310  0.00  0.00     0.104 H 
ATOM    149  H   IDS d 247      51.769  30.976  13.294  0.00  0.00     0.210 HD
ATOM    150  H   IDS d 247      47.513  30.515  12.961  0.00  0.00     0.133 H 
ATOM    151  H   IDS d 247      50.559  33.676  11.609  0.00  0.00     0.092 H 
ATOM    152  H   IDS d 247      49.708  31.983  13.831  0.00  0.00     0.091 H 
ATOM    153  C2  IDS d 251      46.456  19.297   2.359  0.00  0.00     0.134 C 
ATOM    154  C1  IDS d 251      45.764  20.405   1.516  0.00  0.00     0.161 C 
ATOM    155  O62 IDS d 251      49.935  22.273   0.030  0.00  0.00    -0.646 OA
ATOM    156  C4  IDS d 251      48.650  20.684   2.501  0.00  0.00     0.103 C 
ATOM    157  C5  IDS d 251      48.064  21.165   1.139  0.00  0.00     0.152 C 
ATOM    158  C6  IDS d 251      48.829  22.391   0.530  0.00  0.00     0.206 C 
ATOM    159  S   IDS d 251      44.408  19.359   4.197  0.00  0.00     0.252 S 
ATOM    160  O3  IDS d 251      48.193  18.805   3.952  0.00  0.00    -0.390 OA
ATOM    161  O61 IDS d 251      48.328  23.519   0.550  0.00  0.00    -0.646 OA
ATOM    162  O3S IDS d 251      43.577  18.263   4.637  0.00  0.00    -0.572 OA
ATOM    163  O2  IDS d 251      45.515  18.672   3.235  0.00  0.00    -0.244 OA
ATOM    164  O2S IDS d 251      43.681  20.349   3.423  0.00  0.00    -0.572 OA
ATOM    165  O5  IDS d 251      46.655  21.524   1.366  0.00  0.00    -0.340 OA
ATOM    166  C3  IDS d 251      47.570  19.864   3.250  0.00  0.00     0.094 C 
ATOM    167  O1S IDS d 251      45.170  19.963   5.281  0.00  0.00    -0.572 OA
ATOM    168  O1  IDS d 251      45.434  19.792   0.256  0.00  0.00    -0.348 OA
ATOM    169  H   IDS d 251      46.863  18.601   1.656  0.00  0.00     0.097 H 
ATOM    170  H   IDS d 251      44.879  20.787   1.980  0.00  0.00     0.133 H 
ATOM    171  H   IDS d 251      49.542  20.105   2.385  0.00  0.00     0.092 H 
ATOM    172  H   IDS d 251      48.169  20.370   0.430  0.00  0.00     0.104 H 
ATOM    173  H   IDS d 251      47.520  18.290   4.423  0.00  0.00     0.210 HD
ATOM    174  H   IDS d 251      47.089  20.551   3.914  0.00  0.00     0.091 H 
ATOM    175  O5S SGN d 248      45.622  31.141  13.155  0.00  0.00    -0.572 OA
ATOM    176  O4S SGN d 248      44.281  29.760  14.623  0.00  0.00    -0.572 OA
ATOM    177  O2S SGN d 248      42.464  30.819   5.848  0.00  0.00    -0.296 OA
ATOM    178  O1  SGN d 248      44.973  27.787   8.436  0.00  0.00    -0.348 OA
ATOM    179  S1  SGN d 248      42.823  31.282   7.183  0.00  0.00     0.156 S 
ATOM    180  O3  SGN d 248      46.235  31.638   9.140  0.00  0.00    -0.391 OA
ATOM    181  O1S SGN d 248      43.178  32.685   7.237  0.00  0.00    -0.296 OA
ATOM    182  N   SGN d 248      44.158  30.397   7.602  0.00  0.00    -0.210 NA
ATOM    183  S2  SGN d 248      44.908  29.887  13.321  0.00  0.00     0.251 S 
ATOM    184  C4  SGN d 248      46.230  29.847  10.752  0.00  0.00     0.095 C 
ATOM    185  C6  SGN d 248      46.115  27.774  12.321  0.00  0.00     0.067 C 
ATOM    186  O6S SGN d 248      44.006  29.604  12.222  0.00  0.00    -0.572 OA
ATOM    187  O3S SGN d 248      41.805  30.961   8.164  0.00  0.00    -0.296 OA
ATOM    188  O5  SGN d 248      44.453  28.131  10.592  0.00  0.00    -0.349 OA
ATOM    189  C2  SGN d 248      44.443  30.026   9.017  0.00  0.00     0.081 C 
ATOM    190  C3  SGN d 248      45.932  30.263   9.310  0.00  0.00     0.083 C 
ATOM    191  C1  SGN d 248      44.141  28.508   9.254  0.00  0.00     0.150 C 
ATOM    192  O6  SGN d 248      46.025  28.813  13.246  0.00  0.00    -0.254 OA
ATOM    193  C5  SGN d 248      45.873  28.328  10.908  0.00  0.00     0.091 C 
ATOM    194  H   SGN d 248      43.169  31.053   5.224  0.00  0.00     0.231 HD
ATOM    195  H   SGN d 248      47.175  31.787   9.324  0.00  0.00     0.210 HD
ATOM    196  H   SGN d 248      43.859  32.871   6.572  0.00  0.00     0.231 HD
ATOM    197  H   SGN d 248      44.967  30.927   7.277  0.00  0.00     0.140 HD
ATOM    198  H   SGN d 248      45.658  30.413  11.456  0.00  0.00     0.091 H 
ATOM    199  H   SGN d 248      47.089  27.335  12.371  0.00  0.00     0.080 H 
ATOM    200  H   SGN d 248      45.378  27.031  12.545  0.00  0.00     0.080 H 
ATOM    201  H   SGN d 248      41.586  30.018   8.106  0.00  0.00     0.231 HD
ATOM    202  H   SGN d 248      43.826  30.623   9.657  0.00  0.00     0.076 H 
ATOM    203  H   SGN d 248      46.529  29.684   8.638  0.00  0.00     0.089 H 
ATOM    204  H   SGN d 248      43.105  28.325   9.059  0.00  0.00     0.131 H 
ATOM    205  H   SGN d 248      46.519  27.802  10.237  0.00  0.00     0.090 H 
ENDROOT
TORSDOF 64
ENDMDL
MODEL 23
REMARK VINA RESULT:      -0.1      2.841     17.797
REMARK  0 active torsions:
REMARK  status: ('A' for Active; 'I' for Inactive)
REMARK       I    between atoms: C5_1  and  C6_97 
REMARK       I    between atoms: O2_2  and  C2_107 
REMARK       I    between atoms: O2_2  and  S_88 
REMARK       I    between atoms: O3_4  and  C3_95 
REMARK       I    between atoms: C1_5  and  O1_40 
REMARK       I    between atoms: C3_6  and  C2_70 
REMARK       I    between atoms: C3_6  and  O3_51 
REMARK       I    between atoms: C2_7  and  O2_9 
REMARK       I    between atoms: C2_8  and  O2_75 
REMARK       I    between atoms: O2_9  and  S_23 
REMARK       I    between atoms: S2_14  and  O6_117 
REMARK       I    between atoms: C1_15  and  O1_130 
REMARK       I    between atoms: C4_16  and  O1_59 
REMARK       I    between atoms: S1_17  and  N_128 
REMARK       I    between atoms: S1_17  and  O1S_46 
REMARK       I    between atoms: S1_17  and  O2S_29 
REMARK       I    between atoms: S1_17  and  O3S_24 
REMARK       I    between atoms: C2_18  and  N_86 
REMARK       I    between atoms: S1_19  and  N_86 
REMARK       I    between atoms: S1_19  and  O1S_71 
REMARK       I    between atoms: S1_19  and  O2S_34 
REMARK       I    between atoms: S1_19  and  O3S_81 
REMARK       I    between atoms: O2S_22  and  S1_111 
REMARK       I    between atoms: C1_25  and  O1_58 
REMARK       I    between atoms: C4_27  and  O1_58 
REMARK       I    between atoms: O2S_28  and  S1_48 
REMARK       I    between atoms: O3_32  and  C3_49 
REMARK       I    between atoms: O2_33  and  C2_70 
REMARK       I    between atoms: O2_33  and  S_133 
REMARK       I    between atoms: C5_37  and  C6_84 
REMARK       I    between atoms: C5_41  and  C6_43 
REMARK       I    between atoms: O6_42  and  C6_84 
REMARK       I    between atoms: O6_42  and  S2_77 
REMARK       I    between atoms: C5_44  and  C6_108 
REMARK       I    between atoms: O1_45  and  C1_120 
REMARK       I    between atoms: O1_45  and  C4_114 
REMARK       I    between atoms: S2_47  and  O6_94 
REMARK       I    between atoms: S1_48  and  N_53 
REMARK       I    between atoms: S1_48  and  O1S_52 
REMARK       I    between atoms: S1_48  and  O3S_83 
REMARK       I    between atoms: O3_50  and  C3_119 
REMARK       I    between atoms: N_53  and  C2_89 
REMARK       I    between atoms: S_55  and  O2_75 
REMARK       I    between atoms: O3_56  and  C3_124 
REMARK       I    between atoms: O1_59  and  C1_110 
REMARK       I    between atoms: S2_60  and  O6_132 
REMARK       I    between atoms: O3_61  and  C3_115 
REMARK       I    between atoms: C6_62  and  C5_106 
REMARK       I    between atoms: C6_62  and  O6_94 
REMARK       I    between atoms: C4_63  and  O1_96 
REMARK       I    between atoms: O3_67  and  C3_93 
REMARK       I    between atoms: O1_69  and  C1_113 
REMARK       I    between atoms: O1_69  and  C4_103 
REMARK       I    between atoms: C2_70  and  C1_76 
REMARK       I    between atoms: C5_74  and  C6_90 
REMARK       I    between atoms: C1_76  and  O1_96 
REMARK       I    between atoms: C4_78  and  O1_112 
REMARK       I    between atoms: C6_80  and  C5_134 
REMARK       I    between atoms: C6_80  and  O6_132 
REMARK       I    between atoms: C6_90  and  O6_117 
REMARK       I    between atoms: C2_98  and  N_128 
REMARK       I    between atoms: C1_100  and  O1_112 
REMARK       I    between atoms: S1_111  and  O1S_116 
REMARK       I    between atoms: C4_127  and  O1_130 
ROOT
ATOM      1  C5  IDS d 249      49.872  26.680   6.997  0.00  0.00     0.152 C 
ATOM      2  O2  IDS d 249      46.643  24.120   7.338  0.00  0.00    -0.244 OA
ATOM      3  O1S IDS d 249      45.858  24.374   9.629  0.00  0.00    -0.572 OA
ATOM      4  O5  IDS d 249      48.546  27.150   6.659  0.00  0.00    -0.340 OA
ATOM      5  O1  IDS d 249      47.811  25.756   4.981  0.00  0.00    -0.348 OA
ATOM      6  O62 IDS d 249      50.508  28.998   7.240  0.00  0.00    -0.646 OA
ATOM      7  O3  IDS d 249      49.189  24.120   9.095  0.00  0.00    -0.390 OA
ATOM      8  S   IDS d 249      45.405  24.593   8.265  0.00  0.00     0.252 S 
ATOM      9  C3  IDS d 249      48.493  25.106   8.458  0.00  0.00     0.094 C 
ATOM     10  C6  IDS d 249      50.860  27.866   6.959  0.00  0.00     0.206 C 
ATOM     11  O3S IDS d 249      44.287  23.748   7.903  0.00  0.00    -0.572 OA
ATOM     12  C2  IDS d 249      47.885  24.816   7.105  0.00  0.00     0.134 C 
ATOM     13  C1  IDS d 249      47.635  26.119   6.298  0.00  0.00     0.161 C 
ATOM     14  C4  IDS d 249      49.773  25.981   8.398  0.00  0.00     0.103 C 
ATOM     15  O2S IDS d 249      45.164  25.990   8.000  0.00  0.00    -0.572 OA
ATOM     16  O61 IDS d 249      52.034  27.690   6.636  0.00  0.00    -0.646 OA
ATOM     17  H   IDS d 249      50.246  25.964   6.295  0.00  0.00     0.104 H 
ATOM     18  H   IDS d 249      48.597  23.374   9.279  0.00  0.00     0.210 HD
ATOM     19  H   IDS d 249      47.586  25.448   8.912  0.00  0.00     0.091 H 
ATOM     20  H   IDS d 249      48.557  24.221   6.523  0.00  0.00     0.097 H 
ATOM     21  H   IDS d 249      46.660  26.516   6.491  0.00  0.00     0.133 H 
ATOM     22  H   IDS d 249      50.581  25.352   8.708  0.00  0.00     0.092 H 
ATOM     23  O3  SGN d 246      47.426  37.117  15.480  0.00  0.00    -0.215 OA
ATOM     24  S2  SGN d 246      43.500  34.146  19.825  0.00  0.00     0.251 S 
ATOM     25  O6S SGN d 246      42.712  34.113  18.625  0.00  0.00    -0.572 OA
ATOM     26  O2S SGN d 246      44.784  38.440  12.899  0.00  0.00    -0.294 OA
ATOM     27  C3  SGN d 246      46.836  35.846  15.646  0.00  0.00     0.121 C 
ATOM     28  C2  SGN d 246      45.417  35.839  15.060  0.00  0.00     0.084 C 
ATOM     29  O4S SGN d 246      43.584  32.868  20.482  0.00  0.00    -0.572 OA
ATOM     30  O5S SGN d 246      43.117  35.216  20.713  0.00  0.00    -0.572 OA
ATOM     31  N   SGN d 246      45.468  36.160  13.633  0.00  0.00    -0.208 NA
ATOM     32  C4  SGN d 246      46.732  35.541  17.116  0.00  0.00     0.095 C 
ATOM     33  O1  SGN d 246      45.533  33.409  14.636  0.00  0.00    -0.348 OA
ATOM     34  C5  SGN d 246      46.063  34.114  17.298  0.00  0.00     0.091 C 
ATOM     35  C6  SGN d 246      45.868  33.676  18.770  0.00  0.00     0.067 C 
ATOM     36  S1  SGN d 246      45.970  37.643  13.138  0.00  0.00     0.188 S 
ATOM     37  C1  SGN d 246      44.757  34.406  15.276  0.00  0.00     0.151 C 
ATOM     38  O1S SGN d 246      46.779  37.456  11.949  0.00  0.00    -0.294 OA
ATOM     39  O6  SGN d 246      44.930  34.516  19.385  0.00  0.00    -0.254 OA
ATOM     40  O5  SGN d 246      44.728  34.096  16.669  0.00  0.00    -0.349 OA
ATOM     41  O3S SGN d 246      46.750  38.145  14.249  0.00  0.00    -0.119 OA
ATOM     42  H   SGN d 246      44.292  38.071  12.149  0.00  0.00     0.231 HD
ATOM     43  H   SGN d 246      47.440  35.118  15.145  0.00  0.00     0.095 H 
ATOM     44  H   SGN d 246      44.823  36.576  15.559  0.00  0.00     0.077 H 
ATOM     45  H   SGN d 246      44.523  36.033  13.269  0.00  0.00     0.140 HD
ATOM     46  H   SGN d 246      46.120  36.250  17.633  0.00  0.00     0.091 H 
ATOM     47  H   SGN d 246      46.749  33.434  16.836  0.00  0.00     0.090 H 
ATOM     48  H   SGN d 246      46.802  33.741  19.289  0.00  0.00     0.080 H 
ATOM     49  H   SGN d 246      45.515  32.666  18.798  0.00  0.00     0.080 H 
ATOM     50  H   SGN d 246      43.768  34.428  14.869  0.00  0.00     0.131 H 
ATOM     51  H   SGN d 246      46.222  37.120  11.229  0.00  0.00     0.231 HD
ATOM     52  O3  SGN d 250      49.258  27.460   3.269  0.00  0.00    -0.391 OA
ATOM     53  O5S SGN d 250      42.071  23.634   3.569  0.00  0.00    -0.572 OA
ATOM     54  C4  SGN d 250      47.154  26.489   3.964  0.00  0.00     0.095 C 
ATOM     55  S1  SGN d 250      49.339  28.960   0.317  0.00  0.00     0.156 S 
ATOM     56  O3S SGN d 250      48.932  29.491  -0.979  0.00  0.00    -0.296 OA
ATOM     57  C1  SGN d 250      46.240  26.505   1.226  0.00  0.00     0.150 C 
ATOM     58  O2S SGN d 250      50.736  28.494   0.317  0.00  0.00    -0.296 OA
ATOM     59  C5  SGN d 250      45.919  25.673   3.450  0.00  0.00     0.091 C 
ATOM     60  O6  SGN d 250      44.241  24.216   4.337  0.00  0.00    -0.254 OA
ATOM     61  O1S SGN d 250      49.034  29.892   1.391  0.00  0.00    -0.296 OA
ATOM     62  O1  SGN d 250      46.780  25.202   1.110  0.00  0.00    -0.348 OA
ATOM     63  S2  SGN d 250      42.800  23.820   4.795  0.00  0.00     0.251 S 
ATOM     64  C6  SGN d 250      44.853  25.455   4.531  0.00  0.00     0.067 C 
ATOM     65  C3  SGN d 250      48.154  26.694   2.806  0.00  0.00     0.083 C 
ATOM     66  C2  SGN d 250      47.440  27.442   1.644  0.00  0.00     0.081 C 
ATOM     67  O6S SGN d 250      42.947  22.578   5.540  0.00  0.00    -0.572 OA
ATOM     68  O5  SGN d 250      45.305  26.392   2.312  0.00  0.00    -0.349 OA
ATOM     69  O4S SGN d 250      42.282  24.918   5.595  0.00  0.00    -0.572 OA
ATOM     70  N   SGN d 250      48.406  27.594   0.508  0.00  0.00    -0.210 NA
ATOM     71  H   SGN d 250      49.698  26.988   3.993  0.00  0.00     0.210 HD
ATOM     72  H   SGN d 250      46.815  27.434   4.338  0.00  0.00     0.091 H 
ATOM     73  H   SGN d 250      48.009  29.784  -0.932  0.00  0.00     0.231 HD
ATOM     74  H   SGN d 250      45.776  26.888   0.340  0.00  0.00     0.131 H 
ATOM     75  H   SGN d 250      50.962  28.151   1.196  0.00  0.00     0.231 HD
ATOM     76  H   SGN d 250      46.279  24.709   3.155  0.00  0.00     0.090 H 
ATOM     77  H   SGN d 250      49.316  29.513   2.238  0.00  0.00     0.231 HD
ATOM     78  H   SGN d 250      44.118  26.230   4.467  0.00  0.00     0.080 H 
ATOM     79  H   SGN d 250      45.314  25.479   5.496  0.00  0.00     0.080 H 
ATOM     80  H   SGN d 250      48.507  25.746   2.455  0.00  0.00     0.089 H 
ATOM     81  H   SGN d 250      47.096  28.416   1.921  0.00  0.00     0.076 H 
ATOM     82  H   SGN d 250      49.056  26.811   0.580  0.00  0.00     0.140 HD
ATOM     83  C1  SGN d 252      47.315  17.095   0.100  0.00  0.00     0.147 C 
ATOM     84  C2  SGN d 252      46.882  18.130   1.164  0.00  0.00     0.081 C 
ATOM     85  S1  SGN d 252      45.041  17.079   2.861  0.00  0.00     0.156 S 
ATOM     86  O3  SGN d 252      46.722  20.448   1.543  0.00  0.00    -0.391 OA
ATOM     87  O2S SGN d 252      45.293  17.972   3.974  0.00  0.00    -0.296 OA
ATOM     88  O1  SGN d 252      46.490  17.253  -1.072  0.00  0.00    -0.369 OA
ATOM     89  S2  SGN d 252      52.625  18.533   0.583  0.00  0.00     0.251 S 
ATOM     90  C3  SGN d 252      47.114  19.523   0.586  0.00  0.00     0.083 C 
ATOM     91  C6  SGN d 252      50.536  18.562  -1.113  0.00  0.00     0.067 C 
ATOM     92  O6S SGN d 252      52.616  17.094   0.341  0.00  0.00    -0.572 OA
ATOM     93  O1S SGN d 252      45.867  15.887   2.892  0.00  0.00    -0.296 OA
ATOM     94  O3S SGN d 252      43.621  16.758   2.726  0.00  0.00    -0.296 OA
ATOM     95  N   SGN d 252      45.440  17.929   1.490  0.00  0.00    -0.210 NA
ATOM     96  O5  SGN d 252      48.720  17.281  -0.234  0.00  0.00    -0.350 OA
ATOM     97  O6  SGN d 252      51.284  19.099  -0.043  0.00  0.00    -0.254 OA
ATOM     98  O5S SGN d 252      52.516  18.862   2.000  0.00  0.00    -0.572 OA
ATOM     99  C5  SGN d 252      49.047  18.590  -0.749  0.00  0.00     0.091 C 
ATOM    100  C4  SGN d 252      48.648  19.692   0.283  0.00  0.00     0.095 C 
ATOM    101  O4S SGN d 252      53.733  19.215  -0.073  0.00  0.00    -0.572 OA
ATOM    102  H   SGN d 252      47.191  16.104   0.486  0.00  0.00     0.131 H 
ATOM    103  H   SGN d 252      47.449  18.014   2.064  0.00  0.00     0.076 H 
ATOM    104  H   SGN d 252      45.775  20.340   1.728  0.00  0.00     0.210 HD
ATOM    105  H   SGN d 252      46.243  18.159   4.028  0.00  0.00     0.231 HD
ATOM    106  H   SGN d 252      46.599  18.150  -1.425  0.00  0.00     0.212 HD
ATOM    107  H   SGN d 252      46.557  19.666  -0.316  0.00  0.00     0.089 H 
ATOM    108  H   SGN d 252      50.701  19.147  -1.994  0.00  0.00     0.080 H 
ATOM    109  H   SGN d 252      50.844  17.554  -1.299  0.00  0.00     0.080 H 
ATOM    110  H   SGN d 252      46.799  16.141   2.983  0.00  0.00     0.231 HD
ATOM    111  H   SGN d 252      43.496  16.160   1.972  0.00  0.00     0.231 HD
ATOM    112  H   SGN d 252      45.019  17.438   0.701  0.00  0.00     0.140 HD
ATOM    113  H   SGN d 252      48.493  18.837  -1.630  0.00  0.00     0.090 H 
ATOM    114  H   SGN d 252      49.203  19.612   1.194  0.00  0.00     0.091 H 
ATOM    115  C3  IDS d 245      48.720  37.276  20.797  0.00  0.00     0.044 C 
ATOM    116  O2S IDS d 245      49.156  32.777  20.049  0.00  0.00    -0.572 OA
ATOM    117  O2  IDS d 245      48.217  35.028  20.238  0.00  0.00    -0.247 OA
ATOM    118  O3S IDS d 245      49.812  34.240  21.865  0.00  0.00    -0.572 OA
ATOM    119  O3  IDS d 245      49.282  36.882  22.026  0.00  0.00    -0.398 OA
ATOM    120  C2  IDS d 245      48.917  36.187  19.787  0.00  0.00     0.100 C 
ATOM    121  C1  IDS d 245      48.313  36.684  18.499  0.00  0.00     0.048 C 
ATOM    122  O1  IDS d 245      48.057  35.589  17.657  0.00  0.00    -0.378 OA
ATOM    123  O1S IDS d 245      47.576  33.326  21.787  0.00  0.00    -0.572 OA
ATOM    124  S   IDS d 245      48.737  33.767  21.025  0.00  0.00     0.252 S 
ATOM    125  H   IDS d 245      47.673  37.459  20.926  0.00  0.00     0.078 H 
ATOM    126  H   IDS d 245      49.198  38.171  20.456  0.00  0.00     0.078 H 
ATOM    127  H   IDS d 245      48.849  36.071  22.335  0.00  0.00     0.209 HD
ATOM    128  H   IDS d 245      49.949  35.940  19.649  0.00  0.00     0.092 H 
ATOM    129  H   IDS d 245      48.995  37.354  18.018  0.00  0.00     0.078 H 
ATOM    130  H   IDS d 245      47.399  37.201  18.705  0.00  0.00     0.078 H 
ATOM    131  C2  IDS d 247      46.402  32.781  11.210  0.00  0.00     0.134 C 
ATOM    132  O2  IDS d 247      47.013  33.687  10.267  0.00  0.00    -0.244 OA
ATOM    133  S   IDS d 247      46.365  34.364   8.937  0.00  0.00     0.252 S 
ATOM    134  C5  IDS d 247      45.725  31.337  13.432  0.00  0.00     0.152 C 
ATOM    135  O1S IDS d 247      45.286  33.467   8.574  0.00  0.00    -0.572 OA
ATOM    136  O3  IDS d 247      44.695  34.405  11.656  0.00  0.00    -0.390 OA
ATOM    137  O3S IDS d 247      47.421  34.408   7.921  0.00  0.00    -0.572 OA
ATOM    138  O62 IDS d 247      46.486  30.270  15.452  0.00  0.00    -0.646 OA
ATOM    139  O61 IDS d 247      44.420  30.299  15.169  0.00  0.00    -0.646 OA
ATOM    140  O5  IDS d 247      47.144  31.445  13.152  0.00  0.00    -0.340 OA
ATOM    141  O2S IDS d 247      45.878  35.676   9.306  0.00  0.00    -0.572 OA
ATOM    142  C1  IDS d 247      47.482  31.872  11.830  0.00  0.00     0.161 C 
ATOM    143  C4  IDS d 247      45.100  32.790  13.427  0.00  0.00     0.103 C 
ATOM    144  C6  IDS d 247      45.535  30.586  14.764  0.00  0.00     0.206 C 
ATOM    145  O1  IDS d 247      47.616  30.802  10.966  0.00  0.00    -0.348 OA
ATOM    146  C3  IDS d 247      45.711  33.621  12.270  0.00  0.00     0.094 C 
ATOM    147  H   IDS d 247      45.685  32.147  10.731  0.00  0.00     0.097 H 
ATOM    148  H   IDS d 247      45.210  30.772  12.683  0.00  0.00     0.104 H 
ATOM    149  H   IDS d 247      45.079  34.924  10.932  0.00  0.00     0.210 HD
ATOM    150  H   IDS d 247      48.404  32.404  11.943  0.00  0.00     0.133 H 
ATOM    151  H   IDS d 247      44.036  32.739  13.326  0.00  0.00     0.092 H 
ATOM    152  H   IDS d 247      46.464  34.241  12.711  0.00  0.00     0.091 H 
ATOM    153  C2  IDS d 251      49.318  23.353  -0.573  0.00  0.00     0.134 C 
ATOM    154  C1  IDS d 251      48.971  22.226   0.439  0.00  0.00     0.161 C 
ATOM    155  O62 IDS d 251      44.251  23.101   0.228  0.00  0.00    -0.646 OA
ATOM    156  C4  IDS d 251      47.081  24.579  -0.073  0.00  0.00     0.103 C 
ATOM    157  C5  IDS d 251      46.691  23.094   0.199  0.00  0.00     0.152 C 
ATOM    158  C6  IDS d 251      45.280  22.932   0.862  0.00  0.00     0.206 C 
ATOM    159  S   IDS d 251      51.712  23.819   0.705  0.00  0.00     0.252 S 
ATOM    160  O3  IDS d 251      48.933  25.646  -1.202  0.00  0.00    -0.390 OA
ATOM    161  O61 IDS d 251      45.174  22.634   2.055  0.00  0.00    -0.646 OA
ATOM    162  O3S IDS d 251      53.039  23.798   0.138  0.00  0.00    -0.572 OA
ATOM    163  O2  IDS d 251      50.723  23.623  -0.562  0.00  0.00    -0.244 OA
ATOM    164  O2S IDS d 251      51.475  22.736   1.642  0.00  0.00    -0.572 OA
ATOM    165  O5  IDS d 251      47.721  22.523   1.083  0.00  0.00    -0.340 OA
ATOM    166  C3  IDS d 251      48.619  24.675  -0.222  0.00  0.00     0.094 C 
ATOM    167  O1S IDS d 251      51.355  25.115   1.266  0.00  0.00    -0.572 OA
ATOM    168  O1  IDS d 251      48.918  21.010  -0.331  0.00  0.00    -0.348 OA
ATOM    169  H   IDS d 251      48.991  23.005  -1.529  0.00  0.00     0.097 H 
ATOM    170  H   IDS d 251      49.696  22.132   1.220  0.00  0.00     0.133 H 
ATOM    171  H   IDS d 251      46.599  24.979  -0.940  0.00  0.00     0.092 H 
ATOM    172  H   IDS d 251      46.638  22.584  -0.739  0.00  0.00     0.104 H 
ATOM    173  H   IDS d 251      49.896  25.709  -1.298  0.00  0.00     0.210 HD
ATOM    174  H   IDS d 251      48.990  24.952   0.743  0.00  0.00     0.091 H 
ATOM    175  O5S SGN d 248      49.670  31.536  13.228  0.00  0.00    -0.572 OA
ATOM    176  O4S SGN d 248      51.989  32.127  12.864  0.00  0.00    -0.572 OA
ATOM    177  O2S SGN d 248      48.882  23.690  12.099  0.00  0.00    -0.296 OA
ATOM    178  O1  SGN d 248      49.487  27.343   9.188  0.00  0.00    -0.348 OA
ATOM    179  S1  SGN d 248      49.014  24.990  12.745  0.00  0.00     0.156 S 
ATOM    180  O3  SGN d 248      47.131  28.442  12.376  0.00  0.00    -0.391 OA
ATOM    181  O1S SGN d 248      48.144  25.163  13.888  0.00  0.00    -0.296 OA
ATOM    182  N   SGN d 248      48.573  26.092  11.590  0.00  0.00    -0.210 NA
ATOM    183  S2  SGN d 248      50.852  31.352  12.404  0.00  0.00     0.251 S 
ATOM    184  C4  SGN d 248      48.671  29.881  11.207  0.00  0.00     0.095 C 
ATOM    185  C6  SGN d 248      50.401  31.237   9.815  0.00  0.00     0.067 C 
ATOM    186  O6S SGN d 248      51.166  29.955  12.176  0.00  0.00    -0.572 OA
ATOM    187  O3S SGN d 248      50.391  25.294  13.083  0.00  0.00    -0.296 OA
ATOM    188  O5  SGN d 248      50.726  28.876  10.260  0.00  0.00    -0.349 OA
ATOM    189  C2  SGN d 248      49.169  27.457  11.537  0.00  0.00     0.081 C 
ATOM    190  C3  SGN d 248      48.053  28.485  11.298  0.00  0.00     0.083 C 
ATOM    191  C1  SGN d 248      50.184  27.562  10.349  0.00  0.00     0.150 C 
ATOM    192  O6  SGN d 248      50.434  31.928  11.025  0.00  0.00    -0.254 OA
ATOM    193  C5  SGN d 248      49.692  29.889  10.017  0.00  0.00     0.091 C 
ATOM    194  H   SGN d 248      47.948  23.525  11.890  0.00  0.00     0.231 HD
ATOM    195  H   SGN d 248      46.427  29.091  12.225  0.00  0.00     0.210 HD
ATOM    196  H   SGN d 248      47.231  24.954  13.635  0.00  0.00     0.231 HD
ATOM    197  H   SGN d 248      47.566  26.223  11.689  0.00  0.00     0.140 HD
ATOM    198  H   SGN d 248      49.184  30.150  12.107  0.00  0.00     0.091 H 
ATOM    199  H   SGN d 248      49.869  31.816   9.089  0.00  0.00     0.080 H 
ATOM    200  H   SGN d 248      51.400  31.068   9.472  0.00  0.00     0.080 H 
ATOM    201  H   SGN d 248      50.951  25.169  12.301  0.00  0.00     0.231 HD
ATOM    202  H   SGN d 248      49.673  27.645  12.462  0.00  0.00     0.076 H 
ATOM    203  H   SGN d 248      47.541  28.258  10.387  0.00  0.00     0.089 H 
ATOM    204  H   SGN d 248      50.972  26.856  10.502  0.00  0.00     0.131 H 
ATOM    205  H   SGN d 248      49.119  29.687   9.135  0.00  0.00     0.090 H 
ENDROOT
TORSDOF 64
ENDMDL
MODEL 24
REMARK VINA RESULT:      -0.0      4.112     17.335
REMARK  0 active torsions:
REMARK  status: ('A' for Active; 'I' for Inactive)
REMARK       I    between atoms: C5_1  and  C6_97 
REMARK       I    between atoms: O2_2  and  C2_107 
REMARK       I    between atoms: O2_2  and  S_88 
REMARK       I    between atoms: O3_4  and  C3_95 
REMARK       I    between atoms: C1_5  and  O1_40 
REMARK       I    between atoms: C3_6  and  C2_70 
REMARK       I    between atoms: C3_6  and  O3_51 
REMARK       I    between atoms: C2_7  and  O2_9 
REMARK       I    between atoms: C2_8  and  O2_75 
REMARK       I    between atoms: O2_9  and  S_23 
REMARK       I    between atoms: S2_14  and  O6_117 
REMARK       I    between atoms: C1_15  and  O1_130 
REMARK       I    between atoms: C4_16  and  O1_59 
REMARK       I    between atoms: S1_17  and  N_128 
REMARK       I    between atoms: S1_17  and  O1S_46 
REMARK       I    between atoms: S1_17  and  O2S_29 
REMARK       I    between atoms: S1_17  and  O3S_24 
REMARK       I    between atoms: C2_18  and  N_86 
REMARK       I    between atoms: S1_19  and  N_86 
REMARK       I    between atoms: S1_19  and  O1S_71 
REMARK       I    between atoms: S1_19  and  O2S_34 
REMARK       I    between atoms: S1_19  and  O3S_81 
REMARK       I    between atoms: O2S_22  and  S1_111 
REMARK       I    between atoms: C1_25  and  O1_58 
REMARK       I    between atoms: C4_27  and  O1_58 
REMARK       I    between atoms: O2S_28  and  S1_48 
REMARK       I    between atoms: O3_32  and  C3_49 
REMARK       I    between atoms: O2_33  and  C2_70 
REMARK       I    between atoms: O2_33  and  S_133 
REMARK       I    between atoms: C5_37  and  C6_84 
REMARK       I    between atoms: C5_41  and  C6_43 
REMARK       I    between atoms: O6_42  and  C6_84 
REMARK       I    between atoms: O6_42  and  S2_77 
REMARK       I    between atoms: C5_44  and  C6_108 
REMARK       I    between atoms: O1_45  and  C1_120 
REMARK       I    between atoms: O1_45  and  C4_114 
REMARK       I    between atoms: S2_47  and  O6_94 
REMARK       I    between atoms: S1_48  and  N_53 
REMARK       I    between atoms: S1_48  and  O1S_52 
REMARK       I    between atoms: S1_48  and  O3S_83 
REMARK       I    between atoms: O3_50  and  C3_119 
REMARK       I    between atoms: N_53  and  C2_89 
REMARK       I    between atoms: S_55  and  O2_75 
REMARK       I    between atoms: O3_56  and  C3_124 
REMARK       I    between atoms: O1_59  and  C1_110 
REMARK       I    between atoms: S2_60  and  O6_132 
REMARK       I    between atoms: O3_61  and  C3_115 
REMARK       I    between atoms: C6_62  and  C5_106 
REMARK       I    between atoms: C6_62  and  O6_94 
REMARK       I    between atoms: C4_63  and  O1_96 
REMARK       I    between atoms: O3_67  and  C3_93 
REMARK       I    between atoms: O1_69  and  C1_113 
REMARK       I    between atoms: O1_69  and  C4_103 
REMARK       I    between atoms: C2_70  and  C1_76 
REMARK       I    between atoms: C5_74  and  C6_90 
REMARK       I    between atoms: C1_76  and  O1_96 
REMARK       I    between atoms: C4_78  and  O1_112 
REMARK       I    between atoms: C6_80  and  C5_134 
REMARK       I    between atoms: C6_80  and  O6_132 
REMARK       I    between atoms: C6_90  and  O6_117 
REMARK       I    between atoms: C2_98  and  N_128 
REMARK       I    between atoms: C1_100  and  O1_112 
REMARK       I    between atoms: S1_111  and  O1S_116 
REMARK       I    between atoms: C4_127  and  O1_130 
ROOT
ATOM      1  C5  IDS d 249      48.671  25.951   4.493  0.00  0.00     0.152 C 
ATOM      2  O2  IDS d 249      45.209  23.868   5.370  0.00  0.00    -0.244 OA
ATOM      3  O1S IDS d 249      45.245  23.544   7.783  0.00  0.00    -0.572 OA
ATOM      4  O5  IDS d 249      47.450  26.676   4.768  0.00  0.00    -0.340 OA
ATOM      5  O1  IDS d 249      45.938  25.947   3.192  0.00  0.00    -0.348 OA
ATOM      6  O62 IDS d 249      49.861  27.988   5.016  0.00  0.00    -0.646 OA
ATOM      7  O3  IDS d 249      48.102  23.008   6.052  0.00  0.00    -0.390 OA
ATOM      8  S   IDS d 249      44.457  24.213   6.760  0.00  0.00     0.252 S 
ATOM      9  C3  IDS d 249      47.487  24.222   5.949  0.00  0.00     0.094 C 
ATOM     10  C6  IDS d 249      49.843  26.951   4.377  0.00  0.00     0.206 C 
ATOM     11  O3S IDS d 249      43.122  23.671   6.638  0.00  0.00    -0.572 OA
ATOM     12  C2  IDS d 249      46.444  24.426   4.875  0.00  0.00     0.134 C 
ATOM     13  C1  IDS d 249      46.263  25.929   4.531  0.00  0.00     0.161 C 
ATOM     14  C4  IDS d 249      48.851  24.893   5.638  0.00  0.00     0.103 C 
ATOM     15  O2S IDS d 249      44.472  25.646   6.925  0.00  0.00    -0.572 OA
ATOM     16  O61 IDS d 249      50.789  26.719   3.625  0.00  0.00    -0.646 OA
ATOM     17  H   IDS d 249      48.639  25.428   3.560  0.00  0.00     0.104 H 
ATOM     18  H   IDS d 249      47.442  22.328   6.259  0.00  0.00     0.210 HD
ATOM     19  H   IDS d 249      46.866  24.536   6.762  0.00  0.00     0.091 H 
ATOM     20  H   IDS d 249      46.752  23.942   3.971  0.00  0.00     0.097 H 
ATOM     21  H   IDS d 249      45.511  26.381   5.145  0.00  0.00     0.133 H 
ATOM     22  H   IDS d 249      49.549  24.098   5.486  0.00  0.00     0.092 H 
ATOM     23  O3  SGN d 246      51.391  33.680  15.437  0.00  0.00    -0.215 OA
ATOM     24  S2  SGN d 246      48.420  30.131  20.094  0.00  0.00     0.251 S 
ATOM     25  O6S SGN d 246      47.316  30.558  19.281  0.00  0.00    -0.572 OA
ATOM     26  O2S SGN d 246      48.458  36.047  14.345  0.00  0.00    -0.294 OA
ATOM     27  C3  SGN d 246      50.608  32.509  15.507  0.00  0.00     0.121 C 
ATOM     28  C2  SGN d 246      49.115  32.867  15.481  0.00  0.00     0.084 C 
ATOM     29  O4S SGN d 246      48.408  28.718  20.366  0.00  0.00    -0.572 OA
ATOM     30  O5S SGN d 246      48.582  30.936  21.279  0.00  0.00    -0.572 OA
ATOM     31  N   SGN d 246      48.797  33.581  14.244  0.00  0.00    -0.208 NA
ATOM     32  C4  SGN d 246      50.893  31.805  16.805  0.00  0.00     0.095 C 
ATOM     33  O1  SGN d 246      48.538  30.675  14.500  0.00  0.00    -0.348 OA
ATOM     34  C5  SGN d 246      50.006  30.491  16.882  0.00  0.00     0.091 C 
ATOM     35  C6  SGN d 246      50.177  29.672  18.185  0.00  0.00     0.067 C 
ATOM     36  S1  SGN d 246      49.447  35.062  13.955  0.00  0.00     0.188 S 
ATOM     37  C1  SGN d 246      48.245  31.537  15.585  0.00  0.00     0.151 C 
ATOM     38  O1S SGN d 246      49.786  35.122  12.547  0.00  0.00    -0.294 OA
ATOM     39  O6  SGN d 246      49.691  30.416  19.270  0.00  0.00    -0.254 OA
ATOM     40  O5  SGN d 246      48.575  30.840  16.785  0.00  0.00    -0.349 OA
ATOM     41  O3S SGN d 246      50.622  35.106  14.798  0.00  0.00    -0.119 OA
ATOM     42  H   SGN d 246      47.690  35.984  13.756  0.00  0.00     0.231 HD
ATOM     43  H   SGN d 246      50.846  31.885  14.671  0.00  0.00     0.095 H 
ATOM     44  H   SGN d 246      48.887  33.499  16.314  0.00  0.00     0.077 H 
ATOM     45  H   SGN d 246      47.783  33.696  14.223  0.00  0.00     0.140 HD
ATOM     46  H   SGN d 246      50.648  32.407  17.654  0.00  0.00     0.091 H 
ATOM     47  H   SGN d 246      50.343  29.890  16.064  0.00  0.00     0.090 H 
ATOM     48  H   SGN d 246      51.215  29.456  18.337  0.00  0.00     0.080 H 
ATOM     49  H   SGN d 246      49.630  28.756  18.105  0.00  0.00     0.080 H 
ATOM     50  H   SGN d 246      47.211  31.812  15.575  0.00  0.00     0.131 H 
ATOM     51  H   SGN d 246      48.974  35.091  12.017  0.00  0.00     0.231 HD
ATOM     52  O3  SGN d 250      47.138  27.864   1.515  0.00  0.00    -0.391 OA
ATOM     53  O5S SGN d 250      39.717  25.133   3.478  0.00  0.00    -0.572 OA
ATOM     54  C4  SGN d 250      45.185  27.028   2.674  0.00  0.00     0.095 C 
ATOM     55  S1  SGN d 250      46.648  30.137  -0.845  0.00  0.00     0.156 S 
ATOM     56  O3S SGN d 250      45.995  31.074  -1.752  0.00  0.00    -0.296 OA
ATOM     57  C1  SGN d 250      43.504  27.969   0.524  0.00  0.00     0.150 C 
ATOM     58  O2S SGN d 250      47.833  29.506  -1.450  0.00  0.00    -0.296 OA
ATOM     59  C5  SGN d 250      43.701  26.574   2.462  0.00  0.00     0.091 C 
ATOM     60  O6  SGN d 250      42.090  25.163   3.533  0.00  0.00    -0.254 OA
ATOM     61  O1S SGN d 250      46.908  30.746   0.450  0.00  0.00    -0.296 OA
ATOM     62  O1  SGN d 250      43.671  26.696  -0.072  0.00  0.00    -0.348 OA
ATOM     63  S2  SGN d 250      40.810  24.850   4.371  0.00  0.00     0.251 S 
ATOM     64  C6  SGN d 250      42.998  26.197   3.772  0.00  0.00     0.067 C 
ATOM     65  C3  SGN d 250      45.801  27.424   1.315  0.00  0.00     0.083 C 
ATOM     66  C2  SGN d 250      44.955  28.569   0.689  0.00  0.00     0.081 C 
ATOM     67  O6S SGN d 250      40.891  23.437   4.710  0.00  0.00    -0.572 OA
ATOM     68  O5  SGN d 250      42.948  27.670   1.816  0.00  0.00    -0.349 OA
ATOM     69  O4S SGN d 250      40.827  25.727   5.531  0.00  0.00    -0.572 OA
ATOM     70  N   SGN d 250      45.533  28.915  -0.651  0.00  0.00    -0.210 NA
ATOM     71  H   SGN d 250      47.659  27.146   1.906  0.00  0.00     0.210 HD
ATOM     72  H   SGN d 250      45.202  27.859   3.349  0.00  0.00     0.091 H 
ATOM     73  H   SGN d 250      45.223  31.463  -1.312  0.00  0.00     0.231 HD
ATOM     74  H   SGN d 250      42.891  28.654  -0.025  0.00  0.00     0.131 H 
ATOM     75  H   SGN d 250      48.233  28.893  -0.813  0.00  0.00     0.231 HD
ATOM     76  H   SGN d 250      43.723  25.699   1.847  0.00  0.00     0.090 H 
ATOM     77  H   SGN d 250      47.342  30.101   1.030  0.00  0.00     0.231 HD
ATOM     78  H   SGN d 250      42.476  27.049   4.154  0.00  0.00     0.080 H 
ATOM     79  H   SGN d 250      43.725  25.874   4.487  0.00  0.00     0.080 H 
ATOM     80  H   SGN d 250      45.803  26.582   0.654  0.00  0.00     0.089 H 
ATOM     81  H   SGN d 250      44.944  29.457   1.285  0.00  0.00     0.076 H 
ATOM     82  H   SGN d 250      45.978  28.065  -0.997  0.00  0.00     0.140 HD
ATOM     83  C1  SGN d 252      42.009  19.245  -3.031  0.00  0.00     0.147 C 
ATOM     84  C2  SGN d 252      42.172  19.972  -1.677  0.00  0.00     0.081 C 
ATOM     85  S1  SGN d 252      40.752  18.732   0.278  0.00  0.00     0.156 S 
ATOM     86  O3  SGN d 252      42.668  22.077  -0.746  0.00  0.00    -0.391 OA
ATOM     87  O2S SGN d 252      41.530  19.216   1.400  0.00  0.00    -0.296 OA
ATOM     88  O1  SGN d 252      40.923  19.850  -3.762  0.00  0.00    -0.369 OA
ATOM     89  S2  SGN d 252      47.392  19.743  -4.161  0.00  0.00     0.251 S 
ATOM     90  C3  SGN d 252      42.526  21.428  -1.964  0.00  0.00     0.083 C 
ATOM     91  C6  SGN d 252      44.948  20.551  -4.945  0.00  0.00     0.067 C 
ATOM     92  O6S SGN d 252      46.982  18.453  -4.706  0.00  0.00    -0.572 OA
ATOM     93  O1S SGN d 252      41.253  17.482  -0.262  0.00  0.00    -0.296 OA
ATOM     94  O3S SGN d 252      39.326  18.660   0.588  0.00  0.00    -0.296 OA
ATOM     95  N   SGN d 252      40.893  19.882  -0.912  0.00  0.00    -0.210 NA
ATOM     96  O5  SGN d 252      43.248  19.327  -3.793  0.00  0.00    -0.350 OA
ATOM     97  O6  SGN d 252      46.089  20.644  -4.120  0.00  0.00    -0.254 OA
ATOM     98  O5S SGN d 252      47.801  19.654  -2.764  0.00  0.00    -0.572 OA
ATOM     99  C5  SGN d 252      43.690  20.673  -4.077  0.00  0.00     0.091 C 
ATOM    100  C4  SGN d 252      43.889  21.469  -2.748  0.00  0.00     0.095 C 
ATOM    101  O4S SGN d 252      48.370  20.430  -4.995  0.00  0.00    -0.572 OA
ATOM    102  H   SGN d 252      41.789  18.211  -2.864  0.00  0.00     0.131 H 
ATOM    103  H   SGN d 252      42.946  19.522  -1.090  0.00  0.00     0.076 H 
ATOM    104  H   SGN d 252      41.825  22.050  -0.265  0.00  0.00     0.210 HD
ATOM    105  H   SGN d 252      42.467  19.249   1.153  0.00  0.00     0.231 HD
ATOM    106  H   SGN d 252      41.120  20.788  -3.915  0.00  0.00     0.212 HD
ATOM    107  H   SGN d 252      41.767  21.903  -2.550  0.00  0.00     0.089 H 
ATOM    108  H   SGN d 252      44.963  21.340  -5.668  0.00  0.00     0.080 H 
ATOM    109  H   SGN d 252      44.946  19.609  -5.453  0.00  0.00     0.080 H 
ATOM    110  H   SGN d 252      42.200  17.569  -0.454  0.00  0.00     0.231 HD
ATOM    111  H   SGN d 252      38.842  18.332  -0.186  0.00  0.00     0.231 HD
ATOM    112  H   SGN d 252      40.151  19.706  -1.589  0.00  0.00     0.140 HD
ATOM    113  H   SGN d 252      42.964  21.240  -4.621  0.00  0.00     0.090 H 
ATOM    114  H   SGN d 252      44.663  21.051  -2.139  0.00  0.00     0.091 H 
ATOM    115  C3  IDS d 245      54.255  32.099  19.826  0.00  0.00     0.044 C 
ATOM    116  O2S IDS d 245      53.404  28.000  17.963  0.00  0.00    -0.572 OA
ATOM    117  O2  IDS d 245      53.107  30.203  18.985  0.00  0.00    -0.247 OA
ATOM    118  O3S IDS d 245      54.901  28.764  19.709  0.00  0.00    -0.572 OA
ATOM    119  O3  IDS d 245      55.062  31.290  20.648  0.00  0.00    -0.398 OA
ATOM    120  C2  IDS d 245      53.879  31.337  18.591  0.00  0.00     0.100 C 
ATOM    121  C1  IDS d 245      53.038  32.267  17.754  0.00  0.00     0.048 C 
ATOM    122  O1  IDS d 245      52.295  31.511  16.833  0.00  0.00    -0.378 OA
ATOM    123  O1S IDS d 245      52.603  28.227  20.227  0.00  0.00    -0.572 OA
ATOM    124  S   IDS d 245      53.542  28.709  19.223  0.00  0.00     0.252 S 
ATOM    125  H   IDS d 245      53.369  32.377  20.358  0.00  0.00     0.078 H 
ATOM    126  H   IDS d 245      54.795  32.981  19.551  0.00  0.00     0.078 H 
ATOM    127  H   IDS d 245      54.571  30.491  20.897  0.00  0.00     0.209 HD
ATOM    128  H   IDS d 245      54.734  31.003  18.042  0.00  0.00     0.092 H 
ATOM    129  H   IDS d 245      53.673  32.949  17.228  0.00  0.00     0.078 H 
ATOM    130  H   IDS d 245      52.375  32.820  18.386  0.00  0.00     0.078 H 
ATOM    131  C2  IDS d 247      48.147  30.965  10.943  0.00  0.00     0.134 C 
ATOM    132  O2  IDS d 247      48.629  32.016  10.078  0.00  0.00    -0.244 OA
ATOM    133  S   IDS d 247      47.776  33.134   9.260  0.00  0.00     0.252 S 
ATOM    134  C5  IDS d 247      47.874  29.041  12.867  0.00  0.00     0.152 C 
ATOM    135  O1S IDS d 247      46.463  32.537   9.112  0.00  0.00    -0.572 OA
ATOM    136  O3  IDS d 247      47.076  32.604  12.328  0.00  0.00    -0.390 OA
ATOM    137  O3S IDS d 247      48.449  33.330   7.973  0.00  0.00    -0.572 OA
ATOM    138  O62 IDS d 247      48.954  27.336  14.180  0.00  0.00    -0.646 OA
ATOM    139  O61 IDS d 247      46.966  27.727  14.669  0.00  0.00    -0.646 OA
ATOM    140  O5  IDS d 247      49.125  29.032  12.132  0.00  0.00    -0.340 OA
ATOM    141  O2S IDS d 247      47.738  34.334  10.068  0.00  0.00    -0.572 OA
ATOM    142  C1  IDS d 247      49.129  29.777  10.911  0.00  0.00     0.161 C 
ATOM    143  C4  IDS d 247      47.626  30.502  13.418  0.00  0.00     0.103 C 
ATOM    144  C6  IDS d 247      47.937  27.966  13.969  0.00  0.00     0.206 C 
ATOM    145  O1  IDS d 247      48.743  28.998   9.836  0.00  0.00    -0.348 OA
ATOM    146  C3  IDS d 247      48.025  31.544  12.342  0.00  0.00     0.094 C 
ATOM    147  H   IDS d 247      47.193  30.603  10.621  0.00  0.00     0.097 H 
ATOM    148  H   IDS d 247      47.040  28.794  12.244  0.00  0.00     0.104 H 
ATOM    149  H   IDS d 247      47.327  33.255  11.654  0.00  0.00     0.210 HD
ATOM    150  H   IDS d 247      50.136  30.121  10.806  0.00  0.00     0.133 H 
ATOM    151  H   IDS d 247      46.601  30.628  13.695  0.00  0.00     0.092 H 
ATOM    152  H   IDS d 247      48.997  31.900  12.614  0.00  0.00     0.091 H 
ATOM    153  C2  IDS d 251      45.079  25.093  -2.925  0.00  0.00     0.134 C 
ATOM    154  C1  IDS d 251      44.812  23.777  -2.143  0.00  0.00     0.161 C 
ATOM    155  O62 IDS d 251      40.585  25.309  -0.448  0.00  0.00    -0.646 OA
ATOM    156  C4  IDS d 251      43.444  26.411  -1.393  0.00  0.00     0.103 C 
ATOM    157  C5  IDS d 251      42.830  24.979  -1.347  0.00  0.00     0.152 C 
ATOM    158  C6  IDS d 251      41.691  24.824  -0.280  0.00  0.00     0.206 C 
ATOM    159  S   IDS d 251      47.789  24.835  -2.516  0.00  0.00     0.252 S 
ATOM    160  O3  IDS d 251      45.052  27.500  -2.833  0.00  0.00    -0.390 OA
ATOM    161  O61 IDS d 251      41.892  24.207   0.771  0.00  0.00    -0.646 OA
ATOM    162  O3S IDS d 251      48.837  24.800  -3.508  0.00  0.00    -0.572 OA
ATOM    163  O2  IDS d 251      46.442  25.154  -3.355  0.00  0.00    -0.244 OA
ATOM    164  O2S IDS d 251      47.612  23.567  -1.830  0.00  0.00    -0.572 OA
ATOM    165  O5  IDS d 251      43.922  24.040  -1.045  0.00  0.00    -0.340 OA
ATOM    166  C3  IDS d 251      44.842  26.337  -2.055  0.00  0.00     0.094 C 
ATOM    167  O1S IDS d 251      47.927  25.946  -1.584  0.00  0.00    -0.572 OA
ATOM    168  O1  IDS d 251      44.250  22.859  -3.099  0.00  0.00    -0.348 OA
ATOM    169  H   IDS d 251      44.404  25.088  -3.754  0.00  0.00     0.097 H 
ATOM    170  H   IDS d 251      45.700  23.361  -1.715  0.00  0.00     0.133 H 
ATOM    171  H   IDS d 251      42.823  27.110  -1.914  0.00  0.00     0.092 H 
ATOM    172  H   IDS d 251      42.376  24.778  -2.294  0.00  0.00     0.104 H 
ATOM    173  H   IDS d 251      45.927  27.456  -3.249  0.00  0.00     0.210 HD
ATOM    174  H   IDS d 251      45.543  26.266  -1.250  0.00  0.00     0.091 H 
ATOM    175  O5S SGN d 248      51.503  28.752  11.319  0.00  0.00    -0.572 OA
ATOM    176  O4S SGN d 248      53.669  29.102  10.296  0.00  0.00    -0.572 OA
ATOM    177  O2S SGN d 248      48.642  21.763   8.784  0.00  0.00    -0.296 OA
ATOM    178  O1  SGN d 248      49.139  25.990   6.766  0.00  0.00    -0.348 OA
ATOM    179  S1  SGN d 248      49.258  22.786   9.619  0.00  0.00     0.156 S 
ATOM    180  O3  SGN d 248      48.191  26.418  10.746  0.00  0.00    -0.391 OA
ATOM    181  O1S SGN d 248      48.844  22.734  11.005  0.00  0.00    -0.296 OA
ATOM    182  N   SGN d 248      48.747  24.227   8.983  0.00  0.00    -0.210 NA
ATOM    183  S2  SGN d 248      52.300  28.658  10.109  0.00  0.00     0.251 S 
ATOM    184  C4  SGN d 248      49.583  27.913   9.467  0.00  0.00     0.095 C 
ATOM    185  C6  SGN d 248      51.063  29.369   7.899  0.00  0.00     0.067 C 
ATOM    186  O6S SGN d 248      52.203  27.360   9.471  0.00  0.00    -0.572 OA
ATOM    187  O3S SGN d 248      50.703  22.788   9.502  0.00  0.00    -0.296 OA
ATOM    188  O5  SGN d 248      50.963  26.959   7.646  0.00  0.00    -0.349 OA
ATOM    189  C2  SGN d 248      49.592  25.454   9.034  0.00  0.00     0.081 C 
ATOM    190  C3  SGN d 248      48.722  26.649   9.451  0.00  0.00     0.083 C 
ATOM    191  C1  SGN d 248      50.189  25.763   7.620  0.00  0.00     0.150 C 
ATOM    192  O6  SGN d 248      51.622  29.663   9.140  0.00  0.00    -0.254 OA
ATOM    193  C5  SGN d 248      50.162  28.130   8.027  0.00  0.00     0.091 C 
ATOM    194  H   SGN d 248      47.678  21.795   8.891  0.00  0.00     0.231 HD
ATOM    195  H   SGN d 248      47.642  27.172  11.010  0.00  0.00     0.210 HD
ATOM    196  H   SGN d 248      47.876  22.735  11.053  0.00  0.00     0.231 HD
ATOM    197  H   SGN d 248      47.876  24.460   9.462  0.00  0.00     0.140 HD
ATOM    198  H   SGN d 248      50.394  27.834  10.160  0.00  0.00     0.091 H 
ATOM    199  H   SGN d 248      50.480  30.201   7.563  0.00  0.00     0.080 H 
ATOM    200  H   SGN d 248      51.842  29.173   7.192  0.00  0.00     0.080 H 
ATOM    201  H   SGN d 248      50.952  22.823   8.566  0.00  0.00     0.231 HD
ATOM    202  H   SGN d 248      50.385  25.293   9.735  0.00  0.00     0.076 H 
ATOM    203  H   SGN d 248      47.917  26.770   8.757  0.00  0.00     0.089 H 
ATOM    204  H   SGN d 248      50.804  24.943   7.315  0.00  0.00     0.131 H 
ATOM    205  H   SGN d 248      49.317  28.275   7.387  0.00  0.00     0.090 H 
ENDROOT
TORSDOF 64
ENDMDL
MODEL 25
REMARK VINA RESULT:      -0.0      2.426     18.021
REMARK  0 active torsions:
REMARK  status: ('A' for Active; 'I' for Inactive)
REMARK       I    between atoms: C5_1  and  C6_97 
REMARK       I    between atoms: O2_2  and  C2_107 
REMARK       I    between atoms: O2_2  and  S_88 
REMARK       I    between atoms: O3_4  and  C3_95 
REMARK       I    between atoms: C1_5  and  O1_40 
REMARK       I    between atoms: C3_6  and  C2_70 
REMARK       I    between atoms: C3_6  and  O3_51 
REMARK       I    between atoms: C2_7  and  O2_9 
REMARK       I    between atoms: C2_8  and  O2_75 
REMARK       I    between atoms: O2_9  and  S_23 
REMARK       I    between atoms: S2_14  and  O6_117 
REMARK       I    between atoms: C1_15  and  O1_130 
REMARK       I    between atoms: C4_16  and  O1_59 
REMARK       I    between atoms: S1_17  and  N_128 
REMARK       I    between atoms: S1_17  and  O1S_46 
REMARK       I    between atoms: S1_17  and  O2S_29 
REMARK       I    between atoms: S1_17  and  O3S_24 
REMARK       I    between atoms: C2_18  and  N_86 
REMARK       I    between atoms: S1_19  and  N_86 
REMARK       I    between atoms: S1_19  and  O1S_71 
REMARK       I    between atoms: S1_19  and  O2S_34 
REMARK       I    between atoms: S1_19  and  O3S_81 
REMARK       I    between atoms: O2S_22  and  S1_111 
REMARK       I    between atoms: C1_25  and  O1_58 
REMARK       I    between atoms: C4_27  and  O1_58 
REMARK       I    between atoms: O2S_28  and  S1_48 
REMARK       I    between atoms: O3_32  and  C3_49 
REMARK       I    between atoms: O2_33  and  C2_70 
REMARK       I    between atoms: O2_33  and  S_133 
REMARK       I    between atoms: C5_37  and  C6_84 
REMARK       I    between atoms: C5_41  and  C6_43 
REMARK       I    between atoms: O6_42  and  C6_84 
REMARK       I    between atoms: O6_42  and  S2_77 
REMARK       I    between atoms: C5_44  and  C6_108 
REMARK       I    between atoms: O1_45  and  C1_120 
REMARK       I    between atoms: O1_45  and  C4_114 
REMARK       I    between atoms: S2_47  and  O6_94 
REMARK       I    between atoms: S1_48  and  N_53 
REMARK       I    between atoms: S1_48  and  O1S_52 
REMARK       I    between atoms: S1_48  and  O3S_83 
REMARK       I    between atoms: O3_50  and  C3_119 
REMARK       I    between atoms: N_53  and  C2_89 
REMARK       I    between atoms: S_55  and  O2_75 
REMARK       I    between atoms: O3_56  and  C3_124 
REMARK       I    between atoms: O1_59  and  C1_110 
REMARK       I    between atoms: S2_60  and  O6_132 
REMARK       I    between atoms: O3_61  and  C3_115 
REMARK       I    between atoms: C6_62  and  C5_106 
REMARK       I    between atoms: C6_62  and  O6_94 
REMARK       I    between atoms: C4_63  and  O1_96 
REMARK       I    between atoms: O3_67  and  C3_93 
REMARK       I    between atoms: O1_69  and  C1_113 
REMARK       I    between atoms: O1_69  and  C4_103 
REMARK       I    between atoms: C2_70  and  C1_76 
REMARK       I    between atoms: C5_74  and  C6_90 
REMARK       I    between atoms: C1_76  and  O1_96 
REMARK       I    between atoms: C4_78  and  O1_112 
REMARK       I    between atoms: C6_80  and  C5_134 
REMARK       I    between atoms: C6_80  and  O6_132 
REMARK       I    between atoms: C6_90  and  O6_117 
REMARK       I    between atoms: C2_98  and  N_128 
REMARK       I    between atoms: C1_100  and  O1_112 
REMARK       I    between atoms: S1_111  and  O1S_116 
REMARK       I    between atoms: C4_127  and  O1_130 
ROOT
ATOM      1  C5  IDS d 249      43.906  24.343   6.806  0.00  0.00     0.152 C 
ATOM      2  O2  IDS d 249      44.435  26.456   3.292  0.00  0.00    -0.244 OA
ATOM      3  O1S IDS d 249      43.813  28.750   3.819  0.00  0.00    -0.572 OA
ATOM      4  O5  IDS d 249      45.195  24.929   6.510  0.00  0.00    -0.340 OA
ATOM      5  O1  IDS d 249      45.851  23.987   4.514  0.00  0.00    -0.348 OA
ATOM      6  O62 IDS d 249      44.595  24.280   9.121  0.00  0.00    -0.646 OA
ATOM      7  O3  IDS d 249      41.829  26.252   4.947  0.00  0.00    -0.390 OA
ATOM      8  S   IDS d 249      44.972  27.977   3.405  0.00  0.00     0.252 S 
ATOM      9  C3  IDS d 249      43.152  26.246   5.282  0.00  0.00     0.094 C 
ATOM     10  C6  IDS d 249      43.921  23.773   8.241  0.00  0.00     0.206 C 
ATOM     11  O3S IDS d 249      45.441  28.335   2.083  0.00  0.00    -0.572 OA
ATOM     12  C2  IDS d 249      44.133  25.546   4.371  0.00  0.00     0.134 C 
ATOM     13  C1  IDS d 249      45.431  25.149   5.125  0.00  0.00     0.161 C 
ATOM     14  C4  IDS d 249      42.826  25.458   6.579  0.00  0.00     0.103 C 
ATOM     15  O2S IDS d 249      46.016  28.004   4.400  0.00  0.00    -0.572 OA
ATOM     16  O61 IDS d 249      43.250  22.782   8.527  0.00  0.00    -0.646 OA
ATOM     17  H   IDS d 249      43.671  23.519   6.166  0.00  0.00     0.104 H 
ATOM     18  H   IDS d 249      41.711  26.718   4.104  0.00  0.00     0.210 HD
ATOM     19  H   IDS d 249      43.667  27.184   5.294  0.00  0.00     0.091 H 
ATOM     20  H   IDS d 249      43.706  24.638   4.001  0.00  0.00     0.097 H 
ATOM     21  H   IDS d 249      46.163  25.928   5.078  0.00  0.00     0.133 H 
ATOM     22  H   IDS d 249      41.801  25.162   6.500  0.00  0.00     0.092 H 
ATOM     23  O3  SGN d 246      46.354  33.131  16.989  0.00  0.00    -0.215 OA
ATOM     24  S2  SGN d 246      44.908  38.783  13.977  0.00  0.00     0.251 S 
ATOM     25  O6S SGN d 246      46.058  38.330  13.246  0.00  0.00    -0.572 OA
ATOM     26  O2S SGN d 246      50.179  32.828  16.169  0.00  0.00    -0.294 OA
ATOM     27  C3  SGN d 246      45.967  33.549  15.698  0.00  0.00     0.121 C 
ATOM     28  C2  SGN d 246      47.199  33.969  14.884  0.00  0.00     0.084 C 
ATOM     29  O4S SGN d 246      43.812  39.167  13.125  0.00  0.00    -0.572 OA
ATOM     30  O5S SGN d 246      45.234  39.780  14.966  0.00  0.00    -0.572 OA
ATOM     31  N   SGN d 246      48.123  32.840  14.764  0.00  0.00    -0.208 NA
ATOM     32  C4  SGN d 246      45.062  34.745  15.821  0.00  0.00     0.095 C 
ATOM     33  O1  SGN d 246      46.067  33.418  12.760  0.00  0.00    -0.348 OA
ATOM     34  C5  SGN d 246      44.633  35.215  14.367  0.00  0.00     0.091 C 
ATOM     35  C6  SGN d 246      43.715  36.461  14.336  0.00  0.00     0.067 C 
ATOM     36  S1  SGN d 246      48.861  32.232  16.099  0.00  0.00     0.188 S 
ATOM     37  C1  SGN d 246      46.742  34.460  13.440  0.00  0.00     0.151 C 
ATOM     38  O1S SGN d 246      48.896  30.789  15.958  0.00  0.00    -0.294 OA
ATOM     39  O6  SGN d 246      44.427  37.575  14.804  0.00  0.00    -0.254 OA
ATOM     40  O5  SGN d 246      45.830  35.549  13.569  0.00  0.00    -0.349 OA
ATOM     41  O3S SGN d 246      48.014  32.649  17.196  0.00  0.00    -0.119 OA
ATOM     42  H   SGN d 246      50.713  32.524  15.419  0.00  0.00     0.231 HD
ATOM     43  H   SGN d 246      45.467  32.738  15.209  0.00  0.00     0.095 H 
ATOM     44  H   SGN d 246      47.698  34.773  15.385  0.00  0.00     0.077 H 
ATOM     45  H   SGN d 246      48.863  33.134  14.126  0.00  0.00     0.140 HD
ATOM     46  H   SGN d 246      45.548  35.572  16.295  0.00  0.00     0.091 H 
ATOM     47  H   SGN d 246      44.085  34.388  13.967  0.00  0.00     0.090 H 
ATOM     48  H   SGN d 246      42.863  36.293  14.962  0.00  0.00     0.080 H 
ATOM     49  H   SGN d 246      43.390  36.640  13.333  0.00  0.00     0.080 H 
ATOM     50  H   SGN d 246      47.615  34.756  12.896  0.00  0.00     0.131 H 
ATOM     51  H   SGN d 246      49.473  30.550  15.216  0.00  0.00     0.231 HD
ATOM     52  O3  SGN d 250      46.769  21.854   6.107  0.00  0.00    -0.391 OA
ATOM     53  O5S SGN d 250      49.195  26.311  -0.267  0.00  0.00    -0.572 OA
ATOM     54  C4  SGN d 250      47.224  23.643   4.544  0.00  0.00     0.095 C 
ATOM     55  S1  SGN d 250      49.140  19.585   6.554  0.00  0.00     0.156 S 
ATOM     56  O3S SGN d 250      50.398  18.856   6.443  0.00  0.00    -0.296 OA
ATOM     57  C1  SGN d 250      49.329  22.068   3.351  0.00  0.00     0.150 C 
ATOM     58  O2S SGN d 250      47.994  18.691   6.788  0.00  0.00    -0.296 OA
ATOM     59  C5  SGN d 250      47.868  23.957   3.150  0.00  0.00     0.091 C 
ATOM     60  O6  SGN d 250      47.684  25.603   1.422  0.00  0.00    -0.254 OA
ATOM     61  O1S SGN d 250      49.241  20.671   7.516  0.00  0.00    -0.296 OA
ATOM     62  O1  SGN d 250      48.352  21.564   2.460  0.00  0.00    -0.348 OA
ATOM     63  S2  SGN d 250      48.148  26.830   0.573  0.00  0.00     0.251 S 
ATOM     64  C6  SGN d 250      47.843  25.450   2.801  0.00  0.00     0.067 C 
ATOM     65  C3  SGN d 250      47.327  22.130   4.829  0.00  0.00     0.083 C 
ATOM     66  C2  SGN d 250      48.824  21.709   4.803  0.00  0.00     0.081 C 
ATOM     67  O6S SGN d 250      46.983  27.247  -0.194  0.00  0.00    -0.572 OA
ATOM     68  O5  SGN d 250      49.271  23.491   3.151  0.00  0.00    -0.349 OA
ATOM     69  O4S SGN d 250      48.625  27.843   1.501  0.00  0.00    -0.572 OA
ATOM     70  N   SGN d 250      48.910  20.230   5.036  0.00  0.00    -0.210 NA
ATOM     71  H   SGN d 250      45.836  22.119   6.117  0.00  0.00     0.210 HD
ATOM     72  H   SGN d 250      47.738  24.203   5.298  0.00  0.00     0.091 H 
ATOM     73  H   SGN d 250      51.122  19.482   6.289  0.00  0.00     0.231 HD
ATOM     74  H   SGN d 250      50.319  21.686   3.209  0.00  0.00     0.131 H 
ATOM     75  H   SGN d 250      47.182  19.218   6.854  0.00  0.00     0.231 HD
ATOM     76  H   SGN d 250      47.286  23.445   2.412  0.00  0.00     0.090 H 
ATOM     77  H   SGN d 250      48.391  21.136   7.568  0.00  0.00     0.231 HD
ATOM     78  H   SGN d 250      48.762  25.903   3.107  0.00  0.00     0.080 H 
ATOM     79  H   SGN d 250      47.027  25.921   3.308  0.00  0.00     0.080 H 
ATOM     80  H   SGN d 250      46.790  21.579   4.086  0.00  0.00     0.089 H 
ATOM     81  H   SGN d 250      49.411  22.198   5.552  0.00  0.00     0.076 H 
ATOM     82  H   SGN d 250      48.036  19.836   4.688  0.00  0.00     0.140 HD
ATOM     83  C1  SGN d 252      44.255  19.950  -4.443  0.00  0.00     0.147 C 
ATOM     84  C2  SGN d 252      44.497  21.113  -3.454  0.00  0.00     0.081 C 
ATOM     85  S1  SGN d 252      44.189  23.519  -4.676  0.00  0.00     0.156 S 
ATOM     86  O3  SGN d 252      45.624  21.650  -1.458  0.00  0.00    -0.391 OA
ATOM     87  O2S SGN d 252      43.888  24.287  -3.486  0.00  0.00    -0.296 OA
ATOM     88  O1  SGN d 252      45.516  19.554  -5.020  0.00  0.00    -0.369 OA
ATOM     89  S2  SGN d 252      41.337  17.124  -0.701  0.00  0.00     0.251 S 
ATOM     90  C3  SGN d 252      45.407  20.602  -2.341  0.00  0.00     0.083 C 
ATOM     91  C6  SGN d 252      43.631  17.093  -2.108  0.00  0.00     0.067 C 
ATOM     92  O6S SGN d 252      40.711  16.853  -1.992  0.00  0.00    -0.572 OA
ATOM     93  O1S SGN d 252      43.007  22.959  -5.303  0.00  0.00    -0.296 OA
ATOM     94  O3S SGN d 252      45.006  24.273  -5.625  0.00  0.00    -0.296 OA
ATOM     95  N   SGN d 252      45.139  22.250  -4.177  0.00  0.00    -0.210 NA
ATOM     96  O5  SGN d 252      43.634  18.829  -3.751  0.00  0.00    -0.350 OA
ATOM     97  O6  SGN d 252      42.846  17.500  -1.008  0.00  0.00    -0.254 OA
ATOM     98  O5S SGN d 252      40.801  18.320  -0.061  0.00  0.00    -0.572 OA
ATOM     99  C5  SGN d 252      44.403  18.303  -2.648  0.00  0.00     0.091 C 
ATOM    100  C4  SGN d 252      44.677  19.424  -1.596  0.00  0.00     0.095 C 
ATOM    101  O4S SGN d 252      41.348  15.966   0.182  0.00  0.00    -0.572 OA
ATOM    102  H   SGN d 252      43.595  20.268  -5.223  0.00  0.00     0.131 H 
ATOM    103  H   SGN d 252      43.575  21.459  -3.035  0.00  0.00     0.076 H 
ATOM    104  H   SGN d 252      46.074  22.374  -1.920  0.00  0.00     0.210 HD
ATOM    105  H   SGN d 252      43.347  23.752  -2.885  0.00  0.00     0.231 HD
ATOM    106  H   SGN d 252      46.117  19.264  -4.316  0.00  0.00     0.212 HD
ATOM    107  H   SGN d 252      46.338  20.250  -2.732  0.00  0.00     0.089 H 
ATOM    108  H   SGN d 252      44.321  16.338  -1.796  0.00  0.00     0.080 H 
ATOM    109  H   SGN d 252      42.999  16.696  -2.875  0.00  0.00     0.080 H 
ATOM    110  H   SGN d 252      42.492  22.468  -4.643  0.00  0.00     0.231 HD
ATOM    111  H   SGN d 252      45.184  23.725  -6.405  0.00  0.00     0.231 HD
ATOM    112  H   SGN d 252      45.583  21.863  -5.010  0.00  0.00     0.140 HD
ATOM    113  H   SGN d 252      45.376  17.971  -2.944  0.00  0.00     0.090 H 
ATOM    114  H   SGN d 252      43.776  19.788  -1.150  0.00  0.00     0.091 H 
ATOM    115  C3  IDS d 245      42.678  36.499  19.249  0.00  0.00     0.044 C 
ATOM    116  O2S IDS d 245      40.417  35.369  15.426  0.00  0.00    -0.572 OA
ATOM    117  O2  IDS d 245      42.114  36.236  16.961  0.00  0.00    -0.247 OA
ATOM    118  O3S IDS d 245      39.772  36.473  17.484  0.00  0.00    -0.572 OA
ATOM    119  O3  IDS d 245      41.429  37.088  19.525  0.00  0.00    -0.398 OA
ATOM    120  C2  IDS d 245      42.528  35.519  18.123  0.00  0.00     0.100 C 
ATOM    121  C1  IDS d 245      43.891  34.916  17.898  0.00  0.00     0.048 C 
ATOM    122  O1  IDS d 245      43.936  34.350  16.613  0.00  0.00    -0.378 OA
ATOM    123  O1S IDS d 245      40.768  37.742  15.685  0.00  0.00    -0.572 OA
ATOM    124  S   IDS d 245      40.676  36.453  16.358  0.00  0.00     0.252 S 
ATOM    125  H   IDS d 245      43.377  37.259  18.970  0.00  0.00     0.078 H 
ATOM    126  H   IDS d 245      43.033  35.990  20.120  0.00  0.00     0.078 H 
ATOM    127  H   IDS d 245      41.107  37.549  18.734  0.00  0.00     0.209 HD
ATOM    128  H   IDS d 245      41.809  34.758  18.338  0.00  0.00     0.092 H 
ATOM    129  H   IDS d 245      44.073  34.158  18.631  0.00  0.00     0.078 H 
ATOM    130  H   IDS d 245      44.640  35.676  17.984  0.00  0.00     0.078 H 
ATOM    131  C2  IDS d 247      47.060  30.161  11.626  0.00  0.00     0.134 C 
ATOM    132  O2  IDS d 247      47.669  29.099  12.392  0.00  0.00    -0.244 OA
ATOM    133  S   IDS d 247      49.178  28.501  12.286  0.00  0.00     0.252 S 
ATOM    134  C5  IDS d 247      45.505  32.231  10.747  0.00  0.00     0.152 C 
ATOM    135  O1S IDS d 247      49.595  28.831  10.938  0.00  0.00    -0.572 OA
ATOM    136  O3  IDS d 247      48.777  31.667  12.360  0.00  0.00    -0.390 OA
ATOM    137  O3S IDS d 247      49.082  27.055  12.503  0.00  0.00    -0.572 OA
ATOM    138  O62 IDS d 247      43.335  33.275  10.773  0.00  0.00    -0.646 OA
ATOM    139  O61 IDS d 247      44.835  34.336   9.788  0.00  0.00    -0.646 OA
ATOM    140  O5  IDS d 247      44.803  31.139  11.394  0.00  0.00    -0.340 OA
ATOM    141  O2S IDS d 247      49.985  29.171  13.283  0.00  0.00    -0.572 OA
ATOM    142  C1  IDS d 247      45.541  29.921  11.523  0.00  0.00     0.161 C 
ATOM    143  C4  IDS d 247      46.682  32.703  11.692  0.00  0.00     0.103 C 
ATOM    144  C6  IDS d 247      44.494  33.345  10.413  0.00  0.00     0.206 C 
ATOM    145  O1  IDS d 247      45.362  29.097  10.428  0.00  0.00    -0.348 OA
ATOM    146  C3  IDS d 247      47.368  31.469  12.333  0.00  0.00     0.094 C 
ATOM    147  H   IDS d 247      47.448  30.192  10.629  0.00  0.00     0.097 H 
ATOM    148  H   IDS d 247      45.948  31.931   9.820  0.00  0.00     0.104 H 
ATOM    149  H   IDS d 247      49.204  30.893  12.761  0.00  0.00     0.210 HD
ATOM    150  H   IDS d 247      45.168  29.470  12.419  0.00  0.00     0.133 H 
ATOM    151  H   IDS d 247      47.395  33.280  11.142  0.00  0.00     0.092 H 
ATOM    152  H   IDS d 247      46.970  31.385  13.323  0.00  0.00     0.091 H 
ATOM    153  C2  IDS d 251      46.664  18.562   1.549  0.00  0.00     0.134 C 
ATOM    154  C1  IDS d 251      45.730  19.500   0.735  0.00  0.00     0.161 C 
ATOM    155  O62 IDS d 251      49.348  22.313  -0.708  0.00  0.00    -0.646 OA
ATOM    156  C4  IDS d 251      48.479  20.414   1.724  0.00  0.00     0.103 C 
ATOM    157  C5  IDS d 251      47.791  20.778   0.374  0.00  0.00     0.152 C 
ATOM    158  C6  IDS d 251      48.248  22.161  -0.205  0.00  0.00     0.206 C 
ATOM    159  S   IDS d 251      44.667  18.106   3.389  0.00  0.00     0.252 S 
ATOM    160  O3  IDS d 251      48.477  18.447   3.130  0.00  0.00    -0.390 OA
ATOM    161  O61 IDS d 251      47.500  23.143  -0.157  0.00  0.00    -0.646 OA
ATOM    162  O3S IDS d 251      44.114  16.839   3.804  0.00  0.00    -0.572 OA
ATOM    163  O2  IDS d 251      45.897  17.716   2.411  0.00  0.00    -0.244 OA
ATOM    164  O2S IDS d 251      43.727  18.921   2.640  0.00  0.00    -0.572 OA
ATOM    165  O5  IDS d 251      46.338  20.797   0.611  0.00  0.00    -0.340 OA
ATOM    166  C3  IDS d 251      47.623  19.350   2.454  0.00  0.00     0.094 C 
ATOM    167  O1S IDS d 251      45.276  18.845   4.487  0.00  0.00    -0.572 OA
ATOM    168  O1  IDS d 251      45.542  18.857  -0.540  0.00  0.00    -0.348 OA
ATOM    169  H   IDS d 251      47.216  17.995   0.830  0.00  0.00     0.097 H 
ATOM    170  H   IDS d 251      44.784  19.656   1.208  0.00  0.00     0.133 H 
ATOM    171  H   IDS d 251      49.480  20.059   1.594  0.00  0.00     0.092 H 
ATOM    172  H   IDS d 251      48.071  20.046  -0.354  0.00  0.00     0.104 H 
ATOM    173  H   IDS d 251      47.943  17.779   3.589  0.00  0.00     0.210 HD
ATOM    174  H   IDS d 251      47.000  19.892   3.135  0.00  0.00     0.091 H 
ATOM    175  O5S SGN d 248      43.184  29.639  12.628  0.00  0.00    -0.572 OA
ATOM    176  O4S SGN d 248      42.207  27.952  14.064  0.00  0.00    -0.572 OA
ATOM    177  O2S SGN d 248      40.143  28.767   5.317  0.00  0.00    -0.296 OA
ATOM    178  O1  SGN d 248      43.299  26.336   7.830  0.00  0.00    -0.348 OA
ATOM    179  S1  SGN d 248      40.393  29.270   6.662  0.00  0.00     0.156 S 
ATOM    180  O3  SGN d 248      43.642  30.357   8.626  0.00  0.00    -0.391 OA
ATOM    181  O1S SGN d 248      40.415  30.714   6.750  0.00  0.00    -0.296 OA
ATOM    182  N   SGN d 248      41.899  28.707   7.060  0.00  0.00    -0.210 NA
ATOM    183  S2  SGN d 248      42.780  28.250  12.764  0.00  0.00     0.251 S 
ATOM    184  C4  SGN d 248      44.061  28.576  10.194  0.00  0.00     0.095 C 
ATOM    185  C6  SGN d 248      44.435  26.497  11.713  0.00  0.00     0.067 C 
ATOM    186  O6S SGN d 248      41.961  27.793  11.659  0.00  0.00    -0.572 OA
ATOM    187  O3S SGN d 248      39.482  28.699   7.636  0.00  0.00    -0.296 OA
ATOM    188  O5  SGN d 248      42.726  26.500   9.994  0.00  0.00    -0.349 OA
ATOM    189  C2  SGN d 248      42.270  28.379   8.465  0.00  0.00     0.081 C 
ATOM    190  C3  SGN d 248      43.666  28.946   8.764  0.00  0.00     0.083 C 
ATOM    191  C1  SGN d 248      42.328  26.826   8.666  0.00  0.00     0.150 C 
ATOM    192  O6  SGN d 248      44.115  27.465  12.663  0.00  0.00    -0.254 OA
ATOM    193  C5  SGN d 248      44.064  27.013  10.314  0.00  0.00     0.091 C 
ATOM    194  H   SGN d 248      40.771  29.173   4.698  0.00  0.00     0.231 HD
ATOM    195  H   SGN d 248      44.524  30.715   8.814  0.00  0.00     0.210 HD
ATOM    196  H   SGN d 248      41.031  31.069   6.090  0.00  0.00     0.231 HD
ATOM    197  H   SGN d 248      42.562  29.416   6.747  0.00  0.00     0.140 HD
ATOM    198  H   SGN d 248      43.378  28.979  10.913  0.00  0.00     0.091 H 
ATOM    199  H   SGN d 248      45.485  26.293  11.752  0.00  0.00     0.080 H 
ATOM    200  H   SGN d 248      43.892  25.599  11.920  0.00  0.00     0.080 H 
ATOM    201  H   SGN d 248      39.487  27.733   7.556  0.00  0.00     0.231 HD
ATOM    202  H   SGN d 248      41.536  28.802   9.120  0.00  0.00     0.076 H 
ATOM    203  H   SGN d 248      44.377  28.536   8.077  0.00  0.00     0.089 H 
ATOM    204  H   SGN d 248      41.361  26.414   8.467  0.00  0.00     0.131 H 
ATOM    205  H   SGN d 248      44.811  26.666   9.630  0.00  0.00     0.090 H 
ENDROOT
TORSDOF 64
ENDMDL
MODEL 26
REMARK VINA RESULT:       0.5      3.532      5.128
REMARK  0 active torsions:
REMARK  status: ('A' for Active; 'I' for Inactive)
REMARK       I    between atoms: C5_1  and  C6_97 
REMARK       I    between atoms: O2_2  and  C2_107 
REMARK       I    between atoms: O2_2  and  S_88 
REMARK       I    between atoms: O3_4  and  C3_95 
REMARK       I    between atoms: C1_5  and  O1_40 
REMARK       I    between atoms: C3_6  and  C2_70 
REMARK       I    between atoms: C3_6  and  O3_51 
REMARK       I    between atoms: C2_7  and  O2_9 
REMARK       I    between atoms: C2_8  and  O2_75 
REMARK       I    between atoms: O2_9  and  S_23 
REMARK       I    between atoms: S2_14  and  O6_117 
REMARK       I    between atoms: C1_15  and  O1_130 
REMARK       I    between atoms: C4_16  and  O1_59 
REMARK       I    between atoms: S1_17  and  N_128 
REMARK       I    between atoms: S1_17  and  O1S_46 
REMARK       I    between atoms: S1_17  and  O2S_29 
REMARK       I    between atoms: S1_17  and  O3S_24 
REMARK       I    between atoms: C2_18  and  N_86 
REMARK       I    between atoms: S1_19  and  N_86 
REMARK       I    between atoms: S1_19  and  O1S_71 
REMARK       I    between atoms: S1_19  and  O2S_34 
REMARK       I    between atoms: S1_19  and  O3S_81 
REMARK       I    between atoms: O2S_22  and  S1_111 
REMARK       I    between atoms: C1_25  and  O1_58 
REMARK       I    between atoms: C4_27  and  O1_58 
REMARK       I    between atoms: O2S_28  and  S1_48 
REMARK       I    between atoms: O3_32  and  C3_49 
REMARK       I    between atoms: O2_33  and  C2_70 
REMARK       I    between atoms: O2_33  and  S_133 
REMARK       I    between atoms: C5_37  and  C6_84 
REMARK       I    between atoms: C5_41  and  C6_43 
REMARK       I    between atoms: O6_42  and  C6_84 
REMARK       I    between atoms: O6_42  and  S2_77 
REMARK       I    between atoms: C5_44  and  C6_108 
REMARK       I    between atoms: O1_45  and  C1_120 
REMARK       I    between atoms: O1_45  and  C4_114 
REMARK       I    between atoms: S2_47  and  O6_94 
REMARK       I    between atoms: S1_48  and  N_53 
REMARK       I    between atoms: S1_48  and  O1S_52 
REMARK       I    between atoms: S1_48  and  O3S_83 
REMARK       I    between atoms: O3_50  and  C3_119 
REMARK       I    between atoms: N_53  and  C2_89 
REMARK       I    between atoms: S_55  and  O2_75 
REMARK       I    between atoms: O3_56  and  C3_124 
REMARK       I    between atoms: O1_59  and  C1_110 
REMARK       I    between atoms: S2_60  and  O6_132 
REMARK       I    between atoms: O3_61  and  C3_115 
REMARK       I    between atoms: C6_62  and  C5_106 
REMARK       I    between atoms: C6_62  and  O6_94 
REMARK       I    between atoms: C4_63  and  O1_96 
REMARK       I    between atoms: O3_67  and  C3_93 
REMARK       I    between atoms: O1_69  and  C1_113 
REMARK       I    between atoms: O1_69  and  C4_103 
REMARK       I    between atoms: C2_70  and  C1_76 
REMARK       I    between atoms: C5_74  and  C6_90 
REMARK       I    between atoms: C1_76  and  O1_96 
REMARK       I    between atoms: C4_78  and  O1_112 
REMARK       I    between atoms: C6_80  and  C5_134 
REMARK       I    between atoms: C6_80  and  O6_132 
REMARK       I    between atoms: C6_90  and  O6_117 
REMARK       I    between atoms: C2_98  and  N_128 
REMARK       I    between atoms: C1_100  and  O1_112 
REMARK       I    between atoms: S1_111  and  O1S_116 
REMARK       I    between atoms: C4_127  and  O1_130 
ROOT
ATOM      1  C5  IDS d 249      47.380  30.060  12.059  0.00  0.00     0.152 C 
ATOM      2  O2  IDS d 249      50.728  29.934  14.482  0.00  0.00    -0.244 OA
ATOM      3  O1S IDS d 249      51.648  27.699  14.194  0.00  0.00    -0.572 OA
ATOM      4  O5  IDS d 249      48.660  30.482  11.534  0.00  0.00    -0.340 OA
ATOM      5  O1  IDS d 249      49.342  32.207  12.896  0.00  0.00    -0.348 OA
ATOM      6  O62 IDS d 249      46.665  29.770   9.769  0.00  0.00    -0.646 OA
ATOM      7  O3  IDS d 249      48.303  28.016  14.587  0.00  0.00    -0.390 OA
ATOM      8  S   IDS d 249      52.003  29.088  13.956  0.00  0.00     0.252 S 
ATOM      9  C3  IDS d 249      48.915  28.695  13.573  0.00  0.00     0.094 C 
ATOM     10  C6  IDS d 249      46.343  30.030  10.915  0.00  0.00     0.206 C 
ATOM     11  O3S IDS d 249      53.129  29.524  14.754  0.00  0.00    -0.572 OA
ATOM     12  C2  IDS d 249      49.445  30.084  13.838  0.00  0.00     0.134 C 
ATOM     13  C1  IDS d 249      49.588  30.903  12.526  0.00  0.00     0.161 C 
ATOM     14  C4  IDS d 249      47.598  28.669  12.752  0.00  0.00     0.103 C 
ATOM     15  O2S IDS d 249      52.167  29.365  12.550  0.00  0.00    -0.572 OA
ATOM     16  O61 IDS d 249      45.158  30.277  11.140  0.00  0.00    -0.646 OA
ATOM     17  H   IDS d 249      46.991  30.737  12.790  0.00  0.00     0.104 H 
ATOM     18  H   IDS d 249      48.936  27.872  15.307  0.00  0.00     0.210 HD
ATOM     19  H   IDS d 249      49.835  28.300  13.194  0.00  0.00     0.091 H 
ATOM     20  H   IDS d 249      48.762  30.623  14.460  0.00  0.00     0.097 H 
ATOM     21  H   IDS d 249      50.556  30.772  12.089  0.00  0.00     0.133 H 
ATOM     22  H   IDS d 249      46.839  28.309  13.414  0.00  0.00     0.092 H 
ATOM     23  O3  SGN d 246      49.933  21.727   1.526  0.00  0.00    -0.215 OA
ATOM     24  S2  SGN d 246      54.253  17.653   4.328  0.00  0.00     0.251 S 
ATOM     25  O6S SGN d 246      54.962  18.902   4.329  0.00  0.00    -0.572 OA
ATOM     26  O2S SGN d 246      52.345  24.471   0.094  0.00  0.00    -0.294 OA
ATOM     27  C3  SGN d 246      50.585  21.603   2.771  0.00  0.00     0.121 C 
ATOM     28  C2  SGN d 246      51.962  22.280   2.719  0.00  0.00     0.084 C 
ATOM     29  O4S SGN d 246      54.265  16.996   5.609  0.00  0.00    -0.572 OA
ATOM     30  O5S SGN d 246      54.648  16.790   3.243  0.00  0.00    -0.572 OA
ATOM     31  N   SGN d 246      51.805  23.700   2.401  0.00  0.00    -0.208 NA
ATOM     32  C4  SGN d 246      50.797  20.144   3.070  0.00  0.00     0.095 C 
ATOM     33  O1  SGN d 246      51.921  22.702   5.152  0.00  0.00    -0.348 OA
ATOM     34  C5  SGN d 246      51.535  20.009   4.469  0.00  0.00     0.091 C 
ATOM     35  C6  SGN d 246      51.844  18.554   4.898  0.00  0.00     0.067 C 
ATOM     36  S1  SGN d 246      51.211  24.158   0.940  0.00  0.00     0.188 S 
ATOM     37  C1  SGN d 246      52.694  22.110   4.123  0.00  0.00     0.151 C 
ATOM     38  O1S SGN d 246      50.335  25.293   1.161  0.00  0.00    -0.294 OA
ATOM     39  O6  SGN d 246      52.784  17.998   4.018  0.00  0.00    -0.254 OA
ATOM     40  O5  SGN d 246      52.826  20.723   4.431  0.00  0.00    -0.349 OA
ATOM     41  O3S SGN d 246      50.485  22.997   0.471  0.00  0.00    -0.119 OA
ATOM     42  H   SGN d 246      52.802  25.253   0.443  0.00  0.00     0.231 HD
ATOM     43  H   SGN d 246      49.981  22.066   3.523  0.00  0.00     0.095 H 
ATOM     44  H   SGN d 246      52.556  21.818   1.957  0.00  0.00     0.077 H 
ATOM     45  H   SGN d 246      52.729  24.124   2.488  0.00  0.00     0.140 HD
ATOM     46  H   SGN d 246      51.411  19.666   2.337  0.00  0.00     0.091 H 
ATOM     47  H   SGN d 246      50.850  20.427   5.176  0.00  0.00     0.090 H 
ATOM     48  H   SGN d 246      50.944  17.975   4.871  0.00  0.00     0.080 H 
ATOM     49  H   SGN d 246      52.239  18.551   5.892  0.00  0.00     0.080 H 
ATOM     50  H   SGN d 246      53.653  22.580   4.060  0.00  0.00     0.131 H 
ATOM     51  H   SGN d 246      50.858  26.048   1.474  0.00  0.00     0.231 HD
ATOM     52  O3  SGN d 250      47.717  33.817  11.255  0.00  0.00    -0.391 OA
ATOM     53  O5S SGN d 250      55.062  33.993  14.777  0.00  0.00    -0.572 OA
ATOM     54  C4  SGN d 250      49.901  33.262  12.136  0.00  0.00     0.095 C 
ATOM     55  S1  SGN d 250      47.382  36.754   9.761  0.00  0.00     0.156 S 
ATOM     56  O3S SGN d 250      47.682  38.073   9.213  0.00  0.00    -0.296 OA
ATOM     57  C1  SGN d 250      50.634  36.054  12.083  0.00  0.00     0.150 C 
ATOM     58  O2S SGN d 250      46.009  36.665  10.284  0.00  0.00    -0.296 OA
ATOM     59  C5  SGN d 250      51.133  33.857  12.901  0.00  0.00     0.091 C 
ATOM     60  O6  SGN d 250      52.925  33.084  14.286  0.00  0.00    -0.254 OA
ATOM     61  O1S SGN d 250      47.717  35.700   8.816  0.00  0.00    -0.296 OA
ATOM     62  O1  SGN d 250      50.142  36.137  13.408  0.00  0.00    -0.348 OA
ATOM     63  S2  SGN d 250      54.407  32.722  14.621  0.00  0.00     0.251 S 
ATOM     64  C6  SGN d 250      52.275  32.849  13.073  0.00  0.00     0.067 C 
ATOM     65  C3  SGN d 250      48.820  34.352  11.974  0.00  0.00     0.083 C 
ATOM     66  C2  SGN d 250      49.425  35.556  11.198  0.00  0.00     0.081 C 
ATOM     67  O6S SGN d 250      54.361  31.971  15.868  0.00  0.00    -0.572 OA
ATOM     68  O5  SGN d 250      51.641  35.030  12.157  0.00  0.00    -0.349 OA
ATOM     69  O4S SGN d 250      54.929  31.954  13.502  0.00  0.00    -0.572 OA
ATOM     70  N   SGN d 250      48.383  36.628  11.086  0.00  0.00    -0.210 NA
ATOM     71  H   SGN d 250      47.345  33.067  11.744  0.00  0.00     0.210 HD
ATOM     72  H   SGN d 250      50.223  32.909  11.179  0.00  0.00     0.091 H 
ATOM     73  H   SGN d 250      48.593  38.085   8.882  0.00  0.00     0.231 HD
ATOM     74  H   SGN d 250      51.023  36.967  11.681  0.00  0.00     0.131 H 
ATOM     75  H   SGN d 250      45.856  35.774  10.636  0.00  0.00     0.231 HD
ATOM     76  H   SGN d 250      50.795  34.130  13.879  0.00  0.00     0.090 H 
ATOM     77  H   SGN d 250      47.507  34.838   9.207  0.00  0.00     0.231 HD
ATOM     78  H   SGN d 250      52.971  32.958  12.268  0.00  0.00     0.080 H 
ATOM     79  H   SGN d 250      51.877  31.855  13.069  0.00  0.00     0.080 H 
ATOM     80  H   SGN d 250      48.485  34.682  12.936  0.00  0.00     0.089 H 
ATOM     81  H   SGN d 250      49.746  35.300  10.210  0.00  0.00     0.076 H 
ATOM     82  H   SGN d 250      47.771  36.516  11.895  0.00  0.00     0.140 HD
ATOM     83  C1  SGN d 252      49.882  37.130  21.531  0.00  0.00     0.147 C 
ATOM     84  C2  SGN d 252      50.338  36.094  20.478  0.00  0.00     0.081 C 
ATOM     85  S1  SGN d 252      52.329  34.522  21.450  0.00  0.00     0.156 S 
ATOM     86  O3  SGN d 252      50.427  35.720  18.156  0.00  0.00    -0.391 OA
ATOM     87  O2S SGN d 252      52.112  33.393  20.569  0.00  0.00    -0.296 OA
ATOM     88  O1  SGN d 252      50.622  38.353  21.338  0.00  0.00    -0.369 OA
ATOM     89  S2  SGN d 252      44.558  36.301  20.315  0.00  0.00     0.251 S 
ATOM     90  C3  SGN d 252      50.012  36.652  19.096  0.00  0.00     0.083 C 
ATOM     91  C6  SGN d 252      46.530  38.129  20.200  0.00  0.00     0.067 C 
ATOM     92  O6S SGN d 252      44.612  36.546  21.753  0.00  0.00    -0.572 OA
ATOM     93  O1S SGN d 252      51.557  34.441  22.676  0.00  0.00    -0.296 OA
ATOM     94  O3S SGN d 252      53.748  34.750  21.712  0.00  0.00    -0.296 OA
ATOM     95  N   SGN d 252      51.806  35.862  20.619  0.00  0.00    -0.210 NA
ATOM     96  O5  SGN d 252      48.451  37.371  21.404  0.00  0.00    -0.350 OA
ATOM     97  O6  SGN d 252      45.832  37.010  19.694  0.00  0.00    -0.254 OA
ATOM     98  O5S SGN d 252      44.746  34.893  19.982  0.00  0.00    -0.572 OA
ATOM     99  C5  SGN d 252      48.037  37.861  20.109  0.00  0.00     0.091 C 
ATOM    100  C4  SGN d 252      48.456  36.855  18.991  0.00  0.00     0.095 C 
ATOM    101  O4S SGN d 252      43.383  36.882  19.680  0.00  0.00    -0.572 OA
ATOM    102  H   SGN d 252      50.071  36.755  22.515  0.00  0.00     0.131 H 
ATOM    103  H   SGN d 252      49.836  35.159  20.617  0.00  0.00     0.076 H 
ATOM    104  H   SGN d 252      51.387  35.598  18.223  0.00  0.00     0.210 HD
ATOM    105  H   SGN d 252      51.161  33.277  20.421  0.00  0.00     0.231 HD
ATOM    106  H   SGN d 252      50.452  38.696  20.447  0.00  0.00     0.212 HD
ATOM    107  H   SGN d 252      50.502  37.588  18.931  0.00  0.00     0.089 H 
ATOM    108  H   SGN d 252      46.284  38.996  19.622  0.00  0.00     0.080 H 
ATOM    109  H   SGN d 252      46.253  38.296  21.219  0.00  0.00     0.080 H 
ATOM    110  H   SGN d 252      50.623  34.289  22.461  0.00  0.00     0.231 HD
ATOM    111  H   SGN d 252      53.849  35.511  22.305  0.00  0.00     0.231 HD
ATOM    112  H   SGN d 252      52.195  36.679  21.092  0.00  0.00     0.140 HD
ATOM    113  H   SGN d 252      48.522  38.776  19.840  0.00  0.00     0.090 H 
ATOM    114  H   SGN d 252      47.965  35.910  19.094  0.00  0.00     0.091 H 
ATOM    115  C3  IDS d 245      48.982  16.337   1.419  0.00  0.00     0.044 C 
ATOM    116  O2S IDS d 245      48.686  17.067   5.933  0.00  0.00    -0.572 OA
ATOM    117  O2  IDS d 245      49.540  16.933   3.644  0.00  0.00    -0.247 OA
ATOM    118  O3S IDS d 245      48.088  15.208   4.498  0.00  0.00    -0.572 OA
ATOM    119  O3  IDS d 245      48.517  15.076   1.836  0.00  0.00    -0.398 OA
ATOM    120  C2  IDS d 245      48.765  17.336   2.516  0.00  0.00     0.100 C 
ATOM    121  C1  IDS d 245      49.263  18.659   1.994  0.00  0.00     0.048 C 
ATOM    122  O1  IDS d 245      49.509  19.518   3.078  0.00  0.00    -0.378 OA
ATOM    123  O1S IDS d 245      50.350  15.433   5.317  0.00  0.00    -0.572 OA
ATOM    124  S   IDS d 245      49.125  16.117   4.925  0.00  0.00     0.252 S 
ATOM    125  H   IDS d 245      50.026  16.276   1.192  0.00  0.00     0.078 H 
ATOM    126  H   IDS d 245      48.446  16.644   0.545  0.00  0.00     0.078 H 
ATOM    127  H   IDS d 245      49.003  14.797   2.628  0.00  0.00     0.209 HD
ATOM    128  H   IDS d 245      47.738  17.406   2.806  0.00  0.00     0.092 H 
ATOM    129  H   IDS d 245      48.524  19.093   1.354  0.00  0.00     0.078 H 
ATOM    130  H   IDS d 245      50.166  18.511   1.440  0.00  0.00     0.078 H 
ATOM    131  C2  IDS d 247      50.858  26.065   5.816  0.00  0.00     0.134 C 
ATOM    132  O2  IDS d 247      50.150  26.965   4.937  0.00  0.00    -0.244 OA
ATOM    133  S   IDS d 247      50.681  28.332   4.234  0.00  0.00     0.252 S 
ATOM    134  C5  IDS d 247      51.738  23.896   7.230  0.00  0.00     0.152 C 
ATOM    135  O1S IDS d 247      51.771  28.766   5.086  0.00  0.00    -0.572 OA
ATOM    136  O3  IDS d 247      52.522  25.727   4.122  0.00  0.00    -0.390 OA
ATOM    137  O3S IDS d 247      49.561  29.277   4.234  0.00  0.00    -0.572 OA
ATOM    138  O62 IDS d 247      51.154  21.833   8.328  0.00  0.00    -0.646 OA
ATOM    139  O61 IDS d 247      53.194  22.249   8.212  0.00  0.00    -0.646 OA
ATOM    140  O5  IDS d 247      50.300  24.082   7.181  0.00  0.00    -0.340 OA
ATOM    141  O2S IDS d 247      51.136  27.992   2.902  0.00  0.00    -0.572 OA
ATOM    142  C1  IDS d 247      49.859  25.379   6.769  0.00  0.00     0.161 C 
ATOM    143  C4  IDS d 247      52.300  23.937   5.752  0.00  0.00     0.103 C 
ATOM    144  C6  IDS d 247      52.044  22.580   7.972  0.00  0.00     0.206 C 
ATOM    145  O1  IDS d 247      49.714  26.235   7.845  0.00  0.00    -0.348 OA
ATOM    146  C3  IDS d 247      51.580  25.051   4.948  0.00  0.00     0.094 C 
ATOM    147  H   IDS d 247      51.568  26.591   6.420  0.00  0.00     0.097 H 
ATOM    148  H   IDS d 247      52.226  24.677   7.774  0.00  0.00     0.104 H 
ATOM    149  H   IDS d 247      52.070  26.423   3.620  0.00  0.00     0.210 HD
ATOM    150  H   IDS d 247      48.925  25.205   6.277  0.00  0.00     0.133 H 
ATOM    151  H   IDS d 247      53.356  24.107   5.759  0.00  0.00     0.092 H 
ATOM    152  H   IDS d 247      50.833  24.560   4.359  0.00  0.00     0.091 H 
ATOM    153  C2  IDS d 251      47.579  37.656  15.361  0.00  0.00     0.134 C 
ATOM    154  C1  IDS d 251      48.038  36.672  16.473  0.00  0.00     0.161 C 
ATOM    155  O62 IDS d 251      52.694  37.187  15.402  0.00  0.00    -0.646 OA
ATOM    156  C4  IDS d 251      49.791  37.300  14.044  0.00  0.00     0.103 C 
ATOM    157  C5  IDS d 251      50.259  37.057  15.510  0.00  0.00     0.152 C 
ATOM    158  C6  IDS d 251      51.717  36.488  15.614  0.00  0.00     0.206 C 
ATOM    159  S   IDS d 251      45.257  36.225  14.996  0.00  0.00     0.252 S 
ATOM    160  O3  IDS d 251      47.827  38.304  13.055  0.00  0.00    -0.390 OA
ATOM    161  O61 IDS d 251      51.912  35.304  15.906  0.00  0.00    -0.646 OA
ATOM    162  O3S IDS d 251      43.897  36.705  15.072  0.00  0.00    -0.572 OA
ATOM    163  O2  IDS d 251      46.169  37.554  15.151  0.00  0.00    -0.244 OA
ATOM    164  O2S IDS d 251      45.598  35.308  16.068  0.00  0.00    -0.572 OA
ATOM    165  O5  IDS d 251      49.314  36.110  16.124  0.00  0.00    -0.340 OA
ATOM    166  C3  IDS d 251      48.244  37.348  14.011  0.00  0.00     0.094 C 
ATOM    167  O1S IDS d 251      45.594  35.686  13.686  0.00  0.00    -0.572 OA
ATOM    168  O1  IDS d 251      48.092  37.447  17.686  0.00  0.00    -0.348 OA
ATOM    169  H   IDS d 251      47.859  38.633  15.697  0.00  0.00     0.097 H 
ATOM    170  H   IDS d 251      47.370  35.846  16.597  0.00  0.00     0.133 H 
ATOM    171  H   IDS d 251      50.199  38.195  13.623  0.00  0.00     0.092 H 
ATOM    172  H   IDS d 251      50.273  37.998  16.018  0.00  0.00     0.104 H 
ATOM    173  H   IDS d 251      46.858  38.337  13.032  0.00  0.00     0.210 HD
ATOM    174  H   IDS d 251      47.926  36.361  13.750  0.00  0.00     0.091 H 
ATOM    175  O5S SGN d 248      47.782  23.843   7.196  0.00  0.00    -0.572 OA
ATOM    176  O4S SGN d 248      45.422  24.055   6.703  0.00  0.00    -0.572 OA
ATOM    177  O2S SGN d 248      48.822  25.039  15.003  0.00  0.00    -0.296 OA
ATOM    178  O1  SGN d 248      47.878  27.896  11.380  0.00  0.00    -0.348 OA
ATOM    179  S1  SGN d 248      48.678  24.383  13.710  0.00  0.00     0.156 S 
ATOM    180  O3  SGN d 248      50.387  24.865  10.182  0.00  0.00    -0.391 OA
ATOM    181  O1S SGN d 248      49.613  23.298  13.499  0.00  0.00    -0.296 OA
ATOM    182  N   SGN d 248      48.997  25.561  12.590  0.00  0.00    -0.210 NA
ATOM    183  S2  SGN d 248      46.559  24.589   7.430  0.00  0.00     0.251 S 
ATOM    184  C4  SGN d 248      48.717  25.928   8.808  0.00  0.00     0.095 C 
ATOM    185  C6  SGN d 248      46.845  27.202   7.526  0.00  0.00     0.067 C 
ATOM    186  O6S SGN d 248      46.289  24.799   8.838  0.00  0.00    -0.572 OA
ATOM    187  O3S SGN d 248      47.315  23.956  13.463  0.00  0.00    -0.296 OA
ATOM    188  O5  SGN d 248      46.648  26.742   9.899  0.00  0.00    -0.349 OA
ATOM    189  C2  SGN d 248      48.343  25.572  11.252  0.00  0.00     0.081 C 
ATOM    190  C3  SGN d 248      49.397  25.881  10.178  0.00  0.00     0.083 C 
ATOM    191  C1  SGN d 248      47.250  26.692  11.189  0.00  0.00     0.150 C 
ATOM    192  O6  SGN d 248      46.861  25.991   6.837  0.00  0.00    -0.254 OA
ATOM    193  C5  SGN d 248      47.621  27.050   8.843  0.00  0.00     0.091 C 
ATOM    194  H   SGN d 248      49.746  25.308  15.128  0.00  0.00     0.231 HD
ATOM    195  H   SGN d 248      51.053  25.060   9.504  0.00  0.00     0.210 HD
ATOM    196  H   SGN d 248      50.515  23.611  13.670  0.00  0.00     0.231 HD
ATOM    197  H   SGN d 248      50.002  25.527  12.417  0.00  0.00     0.140 HD
ATOM    198  H   SGN d 248      48.253  24.996   8.561  0.00  0.00     0.091 H 
ATOM    199  H   SGN d 248      47.304  27.960   6.926  0.00  0.00     0.080 H 
ATOM    200  H   SGN d 248      45.833  27.480   7.737  0.00  0.00     0.080 H 
ATOM    201  H   SGN d 248      46.711  24.700  13.611  0.00  0.00     0.231 HD
ATOM    202  H   SGN d 248      47.893  24.616  11.084  0.00  0.00     0.076 H 
ATOM    203  H   SGN d 248      49.857  26.824  10.383  0.00  0.00     0.089 H 
ATOM    204  H   SGN d 248      46.503  26.490  11.928  0.00  0.00     0.131 H 
ATOM    205  H   SGN d 248      48.143  27.967   9.022  0.00  0.00     0.090 H 
ENDROOT
TORSDOF 64
ENDMDL
MODEL 27
REMARK VINA RESULT:       0.5      3.307      6.463
REMARK  0 active torsions:
REMARK  status: ('A' for Active; 'I' for Inactive)
REMARK       I    between atoms: C5_1  and  C6_97 
REMARK       I    between atoms: O2_2  and  C2_107 
REMARK       I    between atoms: O2_2  and  S_88 
REMARK       I    between atoms: O3_4  and  C3_95 
REMARK       I    between atoms: C1_5  and  O1_40 
REMARK       I    between atoms: C3_6  and  C2_70 
REMARK       I    between atoms: C3_6  and  O3_51 
REMARK       I    between atoms: C2_7  and  O2_9 
REMARK       I    between atoms: C2_8  and  O2_75 
REMARK       I    between atoms: O2_9  and  S_23 
REMARK       I    between atoms: S2_14  and  O6_117 
REMARK       I    between atoms: C1_15  and  O1_130 
REMARK       I    between atoms: C4_16  and  O1_59 
REMARK       I    between atoms: S1_17  and  N_128 
REMARK       I    between atoms: S1_17  and  O1S_46 
REMARK       I    between atoms: S1_17  and  O2S_29 
REMARK       I    between atoms: S1_17  and  O3S_24 
REMARK       I    between atoms: C2_18  and  N_86 
REMARK       I    between atoms: S1_19  and  N_86 
REMARK       I    between atoms: S1_19  and  O1S_71 
REMARK       I    between atoms: S1_19  and  O2S_34 
REMARK       I    between atoms: S1_19  and  O3S_81 
REMARK       I    between atoms: O2S_22  and  S1_111 
REMARK       I    between atoms: C1_25  and  O1_58 
REMARK       I    between atoms: C4_27  and  O1_58 
REMARK       I    between atoms: O2S_28  and  S1_48 
REMARK       I    between atoms: O3_32  and  C3_49 
REMARK       I    between atoms: O2_33  and  C2_70 
REMARK       I    between atoms: O2_33  and  S_133 
REMARK       I    between atoms: C5_37  and  C6_84 
REMARK       I    between atoms: C5_41  and  C6_43 
REMARK       I    between atoms: O6_42  and  C6_84 
REMARK       I    between atoms: O6_42  and  S2_77 
REMARK       I    between atoms: C5_44  and  C6_108 
REMARK       I    between atoms: O1_45  and  C1_120 
REMARK       I    between atoms: O1_45  and  C4_114 
REMARK       I    between atoms: S2_47  and  O6_94 
REMARK       I    between atoms: S1_48  and  N_53 
REMARK       I    between atoms: S1_48  and  O1S_52 
REMARK       I    between atoms: S1_48  and  O3S_83 
REMARK       I    between atoms: O3_50  and  C3_119 
REMARK       I    between atoms: N_53  and  C2_89 
REMARK       I    between atoms: S_55  and  O2_75 
REMARK       I    between atoms: O3_56  and  C3_124 
REMARK       I    between atoms: O1_59  and  C1_110 
REMARK       I    between atoms: S2_60  and  O6_132 
REMARK       I    between atoms: O3_61  and  C3_115 
REMARK       I    between atoms: C6_62  and  C5_106 
REMARK       I    between atoms: C6_62  and  O6_94 
REMARK       I    between atoms: C4_63  and  O1_96 
REMARK       I    between atoms: O3_67  and  C3_93 
REMARK       I    between atoms: O1_69  and  C1_113 
REMARK       I    between atoms: O1_69  and  C4_103 
REMARK       I    between atoms: C2_70  and  C1_76 
REMARK       I    between atoms: C5_74  and  C6_90 
REMARK       I    between atoms: C1_76  and  O1_96 
REMARK       I    between atoms: C4_78  and  O1_112 
REMARK       I    between atoms: C6_80  and  C5_134 
REMARK       I    between atoms: C6_80  and  O6_132 
REMARK       I    between atoms: C6_90  and  O6_117 
REMARK       I    between atoms: C2_98  and  N_128 
REMARK       I    between atoms: C1_100  and  O1_112 
REMARK       I    between atoms: S1_111  and  O1S_116 
REMARK       I    between atoms: C4_127  and  O1_130 
ROOT
ATOM      1  C5  IDS d 249      49.156  29.777   9.736  0.00  0.00     0.152 C 
ATOM      2  O2  IDS d 249      45.071  29.905  10.368  0.00  0.00    -0.244 OA
ATOM      3  O1S IDS d 249      44.105  28.505   8.626  0.00  0.00    -0.572 OA
ATOM      4  O5  IDS d 249      48.538  28.819  10.627  0.00  0.00    -0.340 OA
ATOM      5  O1  IDS d 249      47.516  30.075  12.263  0.00  0.00    -0.348 OA
ATOM      6  O62 IDS d 249      51.017  28.245   9.564  0.00  0.00    -0.646 OA
ATOM      7  O3  IDS d 249      46.560  30.668   7.765  0.00  0.00    -0.390 OA
ATOM      8  S   IDS d 249      44.224  28.559  10.074  0.00  0.00     0.252 S 
ATOM      9  C3  IDS d 249      46.803  29.752   8.747  0.00  0.00     0.094 C 
ATOM     10  C6  IDS d 249      50.640  29.404   9.534  0.00  0.00     0.206 C 
ATOM     11  O3S IDS d 249      42.949  28.736  10.734  0.00  0.00    -0.572 OA
ATOM     12  C2  IDS d 249      46.487  30.113  10.180  0.00  0.00     0.134 C 
ATOM     13  C1  IDS d 249      47.301  29.250  11.181  0.00  0.00     0.161 C 
ATOM     14  C4  IDS d 249      48.317  29.784   8.410  0.00  0.00     0.103 C 
ATOM     15  O2S IDS d 249      44.977  27.443  10.591  0.00  0.00    -0.572 OA
ATOM     16  O61 IDS d 249      51.484  30.280   9.342  0.00  0.00    -0.646 OA
ATOM     17  H   IDS d 249      49.154  30.770  10.134  0.00  0.00     0.104 H 
ATOM     18  H   IDS d 249      45.610  30.864   7.734  0.00  0.00     0.210 HD
ATOM     19  H   IDS d 249      46.232  28.847   8.736  0.00  0.00     0.091 H 
ATOM     20  H   IDS d 249      46.755  31.132  10.367  0.00  0.00     0.097 H 
ATOM     21  H   IDS d 249      46.775  28.355  11.441  0.00  0.00     0.133 H 
ATOM     22  H   IDS d 249      48.456  30.596   7.728  0.00  0.00     0.092 H 
ATOM     23  O3  SGN d 246      51.833  17.507   4.334  0.00  0.00    -0.215 OA
ATOM     24  S2  SGN d 246      46.033  16.209   1.545  0.00  0.00     0.251 S 
ATOM     25  O6S SGN d 246      45.706  16.223   2.944  0.00  0.00    -0.572 OA
ATOM     26  O2S SGN d 246      51.292  15.954   7.896  0.00  0.00    -0.294 OA
ATOM     27  C3  SGN d 246      50.563  18.116   4.251  0.00  0.00     0.121 C 
ATOM     28  C2  SGN d 246      49.637  17.561   5.343  0.00  0.00     0.084 C 
ATOM     29  O4S SGN d 246      45.145  17.016   0.749  0.00  0.00    -0.572 OA
ATOM     30  O5S SGN d 246      46.204  14.875   1.027  0.00  0.00    -0.572 OA
ATOM     31  N   SGN d 246      50.210  17.829   6.663  0.00  0.00    -0.208 NA
ATOM     32  C4  SGN d 246      49.950  17.792   2.916  0.00  0.00     0.095 C 
ATOM     33  O1  SGN d 246      48.310  19.644   5.369  0.00  0.00    -0.348 OA
ATOM     34  C5  SGN d 246      48.520  18.473   2.829  0.00  0.00     0.091 C 
ATOM     35  C6  SGN d 246      47.755  18.203   1.510  0.00  0.00     0.067 C 
ATOM     36  S1  SGN d 246      51.625  17.122   7.107  0.00  0.00     0.188 S 
ATOM     37  C1  SGN d 246      48.202  18.240   5.221  0.00  0.00     0.151 C 
ATOM     38  O1S SGN d 246      52.391  18.108   7.846  0.00  0.00    -0.294 OA
ATOM     39  O6  SGN d 246      47.433  16.840   1.429  0.00  0.00    -0.254 OA
ATOM     40  O5  SGN d 246      47.660  17.986   3.926  0.00  0.00    -0.349 OA
ATOM     41  O3S SGN d 246      52.258  16.773   5.854  0.00  0.00    -0.119 OA
ATOM     42  H   SGN d 246      50.871  16.232   8.724  0.00  0.00     0.231 HD
ATOM     43  H   SGN d 246      50.678  19.172   4.375  0.00  0.00     0.095 H 
ATOM     44  H   SGN d 246      49.535  16.503   5.219  0.00  0.00     0.077 H 
ATOM     45  H   SGN d 246      49.512  17.545   7.350  0.00  0.00     0.140 HD
ATOM     46  H   SGN d 246      49.813  16.740   2.778  0.00  0.00     0.091 H 
ATOM     47  H   SGN d 246      48.716  19.523   2.890  0.00  0.00     0.090 H 
ATOM     48  H   SGN d 246      48.371  18.475   0.678  0.00  0.00     0.080 H 
ATOM     49  H   SGN d 246      46.856  18.784   1.493  0.00  0.00     0.080 H 
ATOM     50  H   SGN d 246      47.573  17.832   5.984  0.00  0.00     0.131 H 
ATOM     51  H   SGN d 246      51.936  18.315   8.677  0.00  0.00     0.231 HD
ATOM     52  O3  SGN d 250      50.059  30.122  13.470  0.00  0.00    -0.391 OA
ATOM     53  O5S SGN d 250      42.242  29.120  15.537  0.00  0.00    -0.572 OA
ATOM     54  C4  SGN d 250      47.721  29.505  13.543  0.00  0.00     0.095 C 
ATOM     55  S1  SGN d 250      51.748  30.017  16.319  0.00  0.00     0.156 S 
ATOM     56  O3S SGN d 250      52.079  29.833  17.727  0.00  0.00    -0.296 OA
ATOM     57  C1  SGN d 250      47.692  29.940  16.396  0.00  0.00     0.150 C 
ATOM     58  O2S SGN d 250      52.500  31.125  15.707  0.00  0.00    -0.296 OA
ATOM     59  C5  SGN d 250      46.412  29.649  14.391  0.00  0.00     0.091 C 
ATOM     60  O6  SGN d 250      44.043  29.570  14.058  0.00  0.00    -0.254 OA
ATOM     61  O1S SGN d 250      51.848  28.767  15.582  0.00  0.00    -0.296 OA
ATOM     62  O1  SGN d 250      47.312  31.275  16.119  0.00  0.00    -0.348 OA
ATOM     63  S2  SGN d 250      42.614  28.948  14.158  0.00  0.00     0.251 S 
ATOM     64  C6  SGN d 250      45.227  28.876  13.801  0.00  0.00     0.067 C 
ATOM     65  C3  SGN d 250      48.867  30.279  14.228  0.00  0.00     0.083 C 
ATOM     66  C2  SGN d 250      49.073  29.717  15.663  0.00  0.00     0.081 C 
ATOM     67  O6S SGN d 250      41.775  29.729  13.261  0.00  0.00    -0.572 OA
ATOM     68  O5  SGN d 250      46.668  29.155  15.762  0.00  0.00    -0.349 OA
ATOM     69  O4S SGN d 250      42.724  27.548  13.777  0.00  0.00    -0.572 OA
ATOM     70  N   SGN d 250      50.156  30.506  16.336  0.00  0.00    -0.210 NA
ATOM     71  H   SGN d 250      49.924  30.474  12.577  0.00  0.00     0.210 HD
ATOM     72  H   SGN d 250      47.968  28.466  13.458  0.00  0.00     0.091 H 
ATOM     73  H   SGN d 250      51.561  29.096  18.086  0.00  0.00     0.231 HD
ATOM     74  H   SGN d 250      47.793  29.698  17.434  0.00  0.00     0.131 H 
ATOM     75  H   SGN d 250      52.248  31.211  14.774  0.00  0.00     0.231 HD
ATOM     76  H   SGN d 250      46.150  30.687  14.393  0.00  0.00     0.090 H 
ATOM     77  H   SGN d 250      51.623  28.921  14.652  0.00  0.00     0.231 HD
ATOM     78  H   SGN d 250      45.175  27.906  14.248  0.00  0.00     0.080 H 
ATOM     79  H   SGN d 250      45.358  28.774  12.744  0.00  0.00     0.080 H 
ATOM     80  H   SGN d 250      48.623  31.320  14.285  0.00  0.00     0.089 H 
ATOM     81  H   SGN d 250      49.357  28.686  15.673  0.00  0.00     0.076 H 
ATOM     82  H   SGN d 250      50.137  31.434  15.913  0.00  0.00     0.140 HD
ATOM     83  C1  SGN d 252      42.901  38.164  15.778  0.00  0.00     0.147 C 
ATOM     84  C2  SGN d 252      42.972  36.769  15.115  0.00  0.00     0.081 C 
ATOM     85  S1  SGN d 252      40.545  36.012  14.161  0.00  0.00     0.156 S 
ATOM     86  O3  SGN d 252      44.206  34.765  15.133  0.00  0.00    -0.391 OA
ATOM     87  O2S SGN d 252      41.027  35.078  13.165  0.00  0.00    -0.296 OA
ATOM     88  O1  SGN d 252      42.659  38.001  17.190  0.00  0.00    -0.369 OA
ATOM     89  S2  SGN d 252      47.647  39.734  13.430  0.00  0.00     0.251 S 
ATOM     90  C3  SGN d 252      44.148  36.016  15.729  0.00  0.00     0.083 C 
ATOM     91  C6  SGN d 252      46.504  39.173  15.801  0.00  0.00     0.067 C 
ATOM     92  O6S SGN d 252      46.801  40.923  13.468  0.00  0.00    -0.572 OA
ATOM     93  O1S SGN d 252      40.412  37.364  13.653  0.00  0.00    -0.296 OA
ATOM     94  O3S SGN d 252      39.317  35.546  14.803  0.00  0.00    -0.296 OA
ATOM     95  N   SGN d 252      41.694  36.040  15.361  0.00  0.00    -0.210 NA
ATOM     96  O5  SGN d 252      44.144  38.888  15.551  0.00  0.00    -0.350 OA
ATOM     97  O6  SGN d 252      47.145  38.793  14.602  0.00  0.00    -0.254 OA
ATOM     98  O5S SGN d 252      47.436  38.938  12.227  0.00  0.00    -0.572 OA
ATOM     99  C5  SGN d 252      45.324  38.229  16.061  0.00  0.00     0.091 C 
ATOM    100  C4  SGN d 252      45.470  36.811  15.422  0.00  0.00     0.095 C 
ATOM    101  O4S SGN d 252      49.053  40.026  13.679  0.00  0.00    -0.572 OA
ATOM    102  H   SGN d 252      42.101  38.730  15.347  0.00  0.00     0.131 H 
ATOM    103  H   SGN d 252      43.112  36.854  14.057  0.00  0.00     0.076 H 
ATOM    104  H   SGN d 252      43.389  34.277  15.325  0.00  0.00     0.210 HD
ATOM    105  H   SGN d 252      41.840  35.424  12.765  0.00  0.00     0.231 HD
ATOM    106  H   SGN d 252      43.382  37.488  17.584  0.00  0.00     0.212 HD
ATOM    107  H   SGN d 252      44.034  35.916  16.788  0.00  0.00     0.089 H 
ATOM    108  H   SGN d 252      47.198  39.111  16.614  0.00  0.00     0.080 H 
ATOM    109  H   SGN d 252      46.150  40.179  15.718  0.00  0.00     0.080 H 
ATOM    110  H   SGN d 252      41.245  37.637  13.235  0.00  0.00     0.231 HD
ATOM    111  H   SGN d 252      39.028  36.198  15.460  0.00  0.00     0.231 HD
ATOM    112  H   SGN d 252      41.260  36.464  16.181  0.00  0.00     0.140 HD
ATOM    113  H   SGN d 252      45.272  38.043  17.113  0.00  0.00     0.090 H 
ATOM    114  H   SGN d 252      45.621  36.858  14.364  0.00  0.00     0.091 H 
ATOM    115  C3  IDS d 245      51.649  16.258  -0.993  0.00  0.00     0.044 C 
ATOM    116  O2S IDS d 245      49.349  20.221  -1.066  0.00  0.00    -0.572 OA
ATOM    117  O2  IDS d 245      50.005  17.916  -0.577  0.00  0.00    -0.247 OA
ATOM    118  O3S IDS d 245      50.323  18.822  -2.789  0.00  0.00    -0.572 OA
ATOM    119  O3  IDS d 245      51.534  16.444  -2.384  0.00  0.00    -0.398 OA
ATOM    120  C2  IDS d 245      51.355  17.551  -0.292  0.00  0.00     0.100 C 
ATOM    121  C1  IDS d 245      51.516  17.284   1.182  0.00  0.00     0.048 C 
ATOM    122  O1  IDS d 245      50.842  18.281   1.907  0.00  0.00    -0.378 OA
ATOM    123  O1S IDS d 245      48.104  18.356  -1.954  0.00  0.00    -0.572 OA
ATOM    124  S   IDS d 245      49.424  18.898  -1.661  0.00  0.00     0.252 S 
ATOM    125  H   IDS d 245      50.951  15.513  -0.674  0.00  0.00     0.078 H 
ATOM    126  H   IDS d 245      52.642  15.941  -0.756  0.00  0.00     0.078 H 
ATOM    127  H   IDS d 245      50.633  16.732  -2.599  0.00  0.00     0.209 HD
ATOM    128  H   IDS d 245      52.004  18.341  -0.606  0.00  0.00     0.092 H 
ATOM    129  H   IDS d 245      52.556  17.297   1.437  0.00  0.00     0.078 H 
ATOM    130  H   IDS d 245      51.107  16.325   1.421  0.00  0.00     0.078 H 
ATOM    131  C2  IDS d 247      49.374  21.766   8.061  0.00  0.00     0.134 C 
ATOM    132  O2  IDS d 247      50.616  21.718   8.796  0.00  0.00    -0.244 OA
ATOM    133  S   IDS d 247      50.866  21.303  10.348  0.00  0.00     0.252 S 
ATOM    134  C5  IDS d 247      47.447  21.757   6.120  0.00  0.00     0.152 C 
ATOM    135  O1S IDS d 247      49.587  21.541  10.988  0.00  0.00    -0.572 OA
ATOM    136  O3  IDS d 247      49.005  19.445   8.539  0.00  0.00    -0.390 OA
ATOM    137  O3S IDS d 247      51.920  22.182  10.862  0.00  0.00    -0.572 OA
ATOM    138  O62 IDS d 247      46.876  22.298   3.844  0.00  0.00    -0.646 OA
ATOM    139  O61 IDS d 247      45.419  21.265   4.920  0.00  0.00    -0.646 OA
ATOM    140  O5  IDS d 247      48.639  22.530   5.829  0.00  0.00    -0.340 OA
ATOM    141  O2S IDS d 247      51.233  19.903  10.375  0.00  0.00    -0.572 OA
ATOM    142  C1  IDS d 247      49.469  22.835   6.953  0.00  0.00     0.161 C 
ATOM    143  C4  IDS d 247      47.886  20.303   6.559  0.00  0.00     0.103 C 
ATOM    144  C6  IDS d 247      46.525  21.780   4.886  0.00  0.00     0.206 C 
ATOM    145  O1  IDS d 247      49.105  24.028   7.548  0.00  0.00    -0.348 OA
ATOM    146  C3  IDS d 247      49.132  20.385   7.478  0.00  0.00     0.094 C 
ATOM    147  H   IDS d 247      48.556  22.036   8.698  0.00  0.00     0.097 H 
ATOM    148  H   IDS d 247      46.886  22.174   6.931  0.00  0.00     0.104 H 
ATOM    149  H   IDS d 247      49.785  19.498   9.114  0.00  0.00     0.210 HD
ATOM    150  H   IDS d 247      50.461  22.880   6.556  0.00  0.00     0.133 H 
ATOM    151  H   IDS d 247      47.084  19.807   7.064  0.00  0.00     0.092 H 
ATOM    152  H   IDS d 247      49.976  20.159   6.861  0.00  0.00     0.091 H 
ATOM    153  C2  IDS d 251      48.451  34.637  16.410  0.00  0.00     0.134 C 
ATOM    154  C1  IDS d 251      47.252  34.976  15.480  0.00  0.00     0.161 C 
ATOM    155  O62 IDS d 251      44.323  31.843  17.647  0.00  0.00    -0.646 OA
ATOM    156  C4  IDS d 251      47.426  32.322  16.996  0.00  0.00     0.103 C 
ATOM    157  C5  IDS d 251      46.147  33.165  16.710  0.00  0.00     0.152 C 
ATOM    158  C6  IDS d 251      44.837  32.308  16.644  0.00  0.00     0.206 C 
ATOM    159  S   IDS d 251      50.227  35.124  14.364  0.00  0.00     0.252 S 
ATOM    160  O3  IDS d 251      49.738  32.877  17.432  0.00  0.00    -0.390 OA
ATOM    161  O61 IDS d 251      44.292  32.072  15.561  0.00  0.00    -0.646 OA
ATOM    162  O3S IDS d 251      51.338  36.045  14.353  0.00  0.00    -0.572 OA
ATOM    163  O2  IDS d 251      49.664  35.179  15.881  0.00  0.00    -0.244 OA
ATOM    164  O2S IDS d 251      49.156  35.512  13.464  0.00  0.00    -0.572 OA
ATOM    165  O5  IDS d 251      46.352  33.856  15.426  0.00  0.00    -0.340 OA
ATOM    166  C3  IDS d 251      48.669  33.123  16.537  0.00  0.00     0.094 C 
ATOM    167  O1S IDS d 251      50.636  33.740  14.162  0.00  0.00    -0.572 OA
ATOM    168  O1  IDS d 251      46.637  36.149  16.044  0.00  0.00    -0.348 OA
ATOM    169  H   IDS d 251      48.214  35.058  17.364  0.00  0.00     0.097 H 
ATOM    170  H   IDS d 251      47.551  35.169  14.472  0.00  0.00     0.133 H 
ATOM    171  H   IDS d 251      47.519  32.051  18.027  0.00  0.00     0.092 H 
ATOM    172  H   IDS d 251      46.010  33.852  17.519  0.00  0.00     0.104 H 
ATOM    173  H   IDS d 251      50.519  33.377  17.147  0.00  0.00     0.210 HD
ATOM    174  H   IDS d 251      48.892  32.777  15.549  0.00  0.00     0.091 H 
ATOM    175  O5S SGN d 248      50.564  23.788   4.775  0.00  0.00    -0.572 OA
ATOM    176  O4S SGN d 248      52.748  24.700   4.268  0.00  0.00    -0.572 OA
ATOM    177  O2S SGN d 248      45.356  29.808   5.097  0.00  0.00    -0.296 OA
ATOM    178  O1  SGN d 248      48.766  28.309   7.980  0.00  0.00    -0.348 OA
ATOM    179  S1  SGN d 248      46.112  28.655   4.626  0.00  0.00     0.156 S 
ATOM    180  O3  SGN d 248      46.943  25.107   6.151  0.00  0.00    -0.391 OA
ATOM    181  O1S SGN d 248      45.302  27.663   3.952  0.00  0.00    -0.296 OA
ATOM    182  N   SGN d 248      46.740  27.963   5.993  0.00  0.00    -0.210 NA
ATOM    183  S2  SGN d 248      51.525  24.846   5.035  0.00  0.00     0.251 S 
ATOM    184  C4  SGN d 248      49.263  25.221   6.793  0.00  0.00     0.095 C 
ATOM    185  C6  SGN d 248      51.726  25.578   7.553  0.00  0.00     0.067 C 
ATOM    186  O6S SGN d 248      50.943  26.170   4.937  0.00  0.00    -0.572 OA
ATOM    187  O3S SGN d 248      47.250  29.042   3.815  0.00  0.00    -0.296 OA
ATOM    188  O5  SGN d 248      50.394  27.423   6.714  0.00  0.00    -0.349 OA
ATOM    189  C2  SGN d 248      48.047  27.247   5.983  0.00  0.00     0.081 C 
ATOM    190  C3  SGN d 248      47.911  25.937   6.774  0.00  0.00     0.083 C 
ATOM    191  C1  SGN d 248      49.150  28.116   6.678  0.00  0.00     0.150 C 
ATOM    192  O6  SGN d 248      51.896  24.649   6.529  0.00  0.00    -0.254 OA
ATOM    193  C5  SGN d 248      50.309  26.169   7.475  0.00  0.00     0.091 C 
ATOM    194  H   SGN d 248      44.606  29.506   5.634  0.00  0.00     0.231 HD
ATOM    195  H   SGN d 248      46.857  24.281   6.651  0.00  0.00     0.210 HD
ATOM    196  H   SGN d 248      44.550  27.422   4.515  0.00  0.00     0.231 HD
ATOM    197  H   SGN d 248      46.047  27.288   6.318  0.00  0.00     0.140 HD
ATOM    198  H   SGN d 248      49.601  24.981   5.808  0.00  0.00     0.091 H 
ATOM    199  H   SGN d 248      51.859  25.096   8.499  0.00  0.00     0.080 H 
ATOM    200  H   SGN d 248      52.447  26.362   7.450  0.00  0.00     0.080 H 
ATOM    201  H   SGN d 248      47.774  29.706   4.290  0.00  0.00     0.231 HD
ATOM    202  H   SGN d 248      48.323  27.055   4.967  0.00  0.00     0.076 H 
ATOM    203  H   SGN d 248      47.602  26.150   7.775  0.00  0.00     0.089 H 
ATOM    204  H   SGN d 248      49.262  29.031   6.136  0.00  0.00     0.131 H 
ATOM    205  H   SGN d 248      49.963  26.320   8.477  0.00  0.00     0.090 H 
ENDROOT
TORSDOF 64
ENDMDL
MODEL 28
REMARK VINA RESULT:       0.6      3.386     17.704
REMARK  0 active torsions:
REMARK  status: ('A' for Active; 'I' for Inactive)
REMARK       I    between atoms: C5_1  and  C6_97 
REMARK       I    between atoms: O2_2  and  C2_107 
REMARK       I    between atoms: O2_2  and  S_88 
REMARK       I    between atoms: O3_4  and  C3_95 
REMARK       I    between atoms: C1_5  and  O1_40 
REMARK       I    between atoms: C3_6  and  C2_70 
REMARK       I    between atoms: C3_6  and  O3_51 
REMARK       I    between atoms: C2_7  and  O2_9 
REMARK       I    between atoms: C2_8  and  O2_75 
REMARK       I    between atoms: O2_9  and  S_23 
REMARK       I    between atoms: S2_14  and  O6_117 
REMARK       I    between atoms: C1_15  and  O1_130 
REMARK       I    between atoms: C4_16  and  O1_59 
REMARK       I    between atoms: S1_17  and  N_128 
REMARK       I    between atoms: S1_17  and  O1S_46 
REMARK       I    between atoms: S1_17  and  O2S_29 
REMARK       I    between atoms: S1_17  and  O3S_24 
REMARK       I    between atoms: C2_18  and  N_86 
REMARK       I    between atoms: S1_19  and  N_86 
REMARK       I    between atoms: S1_19  and  O1S_71 
REMARK       I    between atoms: S1_19  and  O2S_34 
REMARK       I    between atoms: S1_19  and  O3S_81 
REMARK       I    between atoms: O2S_22  and  S1_111 
REMARK       I    between atoms: C1_25  and  O1_58 
REMARK       I    between atoms: C4_27  and  O1_58 
REMARK       I    between atoms: O2S_28  and  S1_48 
REMARK       I    between atoms: O3_32  and  C3_49 
REMARK       I    between atoms: O2_33  and  C2_70 
REMARK       I    between atoms: O2_33  and  S_133 
REMARK       I    between atoms: C5_37  and  C6_84 
REMARK       I    between atoms: C5_41  and  C6_43 
REMARK       I    between atoms: O6_42  and  C6_84 
REMARK       I    between atoms: O6_42  and  S2_77 
REMARK       I    between atoms: C5_44  and  C6_108 
REMARK       I    between atoms: O1_45  and  C1_120 
REMARK       I    between atoms: O1_45  and  C4_114 
REMARK       I    between atoms: S2_47  and  O6_94 
REMARK       I    between atoms: S1_48  and  N_53 
REMARK       I    between atoms: S1_48  and  O1S_52 
REMARK       I    between atoms: S1_48  and  O3S_83 
REMARK       I    between atoms: O3_50  and  C3_119 
REMARK       I    between atoms: N_53  and  C2_89 
REMARK       I    between atoms: S_55  and  O2_75 
REMARK       I    between atoms: O3_56  and  C3_124 
REMARK       I    between atoms: O1_59  and  C1_110 
REMARK       I    between atoms: S2_60  and  O6_132 
REMARK       I    between atoms: O3_61  and  C3_115 
REMARK       I    between atoms: C6_62  and  C5_106 
REMARK       I    between atoms: C6_62  and  O6_94 
REMARK       I    between atoms: C4_63  and  O1_96 
REMARK       I    between atoms: O3_67  and  C3_93 
REMARK       I    between atoms: O1_69  and  C1_113 
REMARK       I    between atoms: O1_69  and  C4_103 
REMARK       I    between atoms: C2_70  and  C1_76 
REMARK       I    between atoms: C5_74  and  C6_90 
REMARK       I    between atoms: C1_76  and  O1_96 
REMARK       I    between atoms: C4_78  and  O1_112 
REMARK       I    between atoms: C6_80  and  C5_134 
REMARK       I    between atoms: C6_80  and  O6_132 
REMARK       I    between atoms: C6_90  and  O6_117 
REMARK       I    between atoms: C2_98  and  N_128 
REMARK       I    between atoms: C1_100  and  O1_112 
REMARK       I    between atoms: S1_111  and  O1S_116 
REMARK       I    between atoms: C4_127  and  O1_130 
ROOT
ATOM      1  C5  IDS d 249      49.885  26.920   5.025  0.00  0.00     0.152 C 
ATOM      2  O2  IDS d 249      46.449  24.638   4.741  0.00  0.00    -0.244 OA
ATOM      3  O1S IDS d 249      45.703  24.308   7.035  0.00  0.00    -0.572 OA
ATOM      4  O5  IDS d 249      48.604  27.572   4.869  0.00  0.00    -0.340 OA
ATOM      5  O1  IDS d 249      47.741  26.764   2.894  0.00  0.00    -0.348 OA
ATOM      6  O62 IDS d 249      50.721  29.020   5.880  0.00  0.00    -0.646 OA
ATOM      7  O3  IDS d 249      48.997  23.943   6.353  0.00  0.00    -0.390 OA
ATOM      8  S   IDS d 249      45.263  24.934   5.799  0.00  0.00     0.252 S 
ATOM      9  C3  IDS d 249      48.384  25.121   6.034  0.00  0.00     0.094 C 
ATOM     10  C6  IDS d 249      50.972  27.986   5.287  0.00  0.00     0.206 C 
ATOM     11  O3S IDS d 249      44.074  24.316   5.251  0.00  0.00    -0.572 OA
ATOM     12  C2  IDS d 249      47.746  25.268   4.673  0.00  0.00     0.134 C 
ATOM     13  C1  IDS d 249      47.605  26.760   4.265  0.00  0.00     0.161 C 
ATOM     14  C4  IDS d 249      49.735  25.870   6.181  0.00  0.00     0.103 C 
ATOM     15  O2S IDS d 249      45.142  26.365   5.937  0.00  0.00    -0.572 OA
ATOM     16  O61 IDS d 249      52.125  27.812   4.893  0.00  0.00    -0.646 OA
ATOM     17  H   IDS d 249      50.192  26.400   4.142  0.00  0.00     0.104 H 
ATOM     18  H   IDS d 249      48.344  23.226   6.342  0.00  0.00     0.210 HD
ATOM     19  H   IDS d 249      47.513  25.395   6.592  0.00  0.00     0.091 H 
ATOM     20  H   IDS d 249      48.361  24.806   3.929  0.00  0.00     0.097 H 
ATOM     21  H   IDS d 249      46.669  27.165   4.589  0.00  0.00     0.133 H 
ATOM     22  H   IDS d 249      50.487  25.117   6.281  0.00  0.00     0.092 H 
ATOM     23  O3  SGN d 246      48.399  34.752  16.131  0.00  0.00    -0.215 OA
ATOM     24  S2  SGN d 246      44.257  31.021  19.600  0.00  0.00     0.251 S 
ATOM     25  O6S SGN d 246      43.462  31.387  18.461  0.00  0.00    -0.572 OA
ATOM     26  O2S SGN d 246      45.866  36.950  14.095  0.00  0.00    -0.294 OA
ATOM     27  C3  SGN d 246      47.703  33.538  15.957  0.00  0.00     0.121 C 
ATOM     28  C2  SGN d 246      46.285  33.809  15.434  0.00  0.00     0.084 C 
ATOM     29  O4S SGN d 246      44.235  29.608  19.875  0.00  0.00    -0.572 OA
ATOM     30  O5S SGN d 246      43.973  31.829  20.759  0.00  0.00    -0.572 OA
ATOM     31  N   SGN d 246      46.355  34.508  14.150  0.00  0.00    -0.208 NA
ATOM     32  C4  SGN d 246      47.581  32.846  17.287  0.00  0.00     0.095 C 
ATOM     33  O1  SGN d 246      46.188  31.592  14.351  0.00  0.00    -0.348 OA
ATOM     34  C5  SGN d 246      46.793  31.484  17.087  0.00  0.00     0.091 C 
ATOM     35  C6  SGN d 246      46.569  30.671  18.386  0.00  0.00     0.067 C 
ATOM     36  S1  SGN d 246      46.981  36.025  14.070  0.00  0.00     0.188 S 
ATOM     37  C1  SGN d 246      45.506  32.431  15.265  0.00  0.00     0.151 C 
ATOM     38  O1S SGN d 246      47.763  36.110  12.851  0.00  0.00    -0.294 OA
ATOM     39  O6  SGN d 246      45.711  31.381  19.237  0.00  0.00    -0.254 OA
ATOM     40  O5  SGN d 246      45.458  31.750  16.518  0.00  0.00    -0.349 OA
ATOM     41  O3S SGN d 246      47.807  36.133  15.252  0.00  0.00    -0.119 OA
ATOM     42  H   SGN d 246      45.340  36.845  13.287  0.00  0.00     0.231 HD
ATOM     43  H   SGN d 246      48.239  32.931  15.256  0.00  0.00     0.095 H 
ATOM     44  H   SGN d 246      45.760  34.424  16.135  0.00  0.00     0.077 H 
ATOM     45  H   SGN d 246      45.401  34.565  13.794  0.00  0.00     0.140 HD
ATOM     46  H   SGN d 246      47.036  33.430  17.998  0.00  0.00     0.091 H 
ATOM     47  H   SGN d 246      47.415  30.906  16.436  0.00  0.00     0.090 H 
ATOM     48  H   SGN d 246      47.508  30.514  18.875  0.00  0.00     0.080 H 
ATOM     49  H   SGN d 246      46.131  29.725  18.144  0.00  0.00     0.080 H 
ATOM     50  H   SGN d 246      44.520  32.646  14.909  0.00  0.00     0.131 H 
ATOM     51  H   SGN d 246      47.175  36.034  12.083  0.00  0.00     0.231 HD
ATOM     52  O3  SGN d 250      49.320  28.753   1.678  0.00  0.00    -0.391 OA
ATOM     53  O5S SGN d 250      41.831  25.592   1.121  0.00  0.00    -0.572 OA
ATOM     54  C4  SGN d 250      47.143  27.802   2.140  0.00  0.00     0.095 C 
ATOM     55  S1  SGN d 250      49.512  31.002  -0.746  0.00  0.00     0.156 S 
ATOM     56  O3S SGN d 250      49.145  31.904  -1.832  0.00  0.00    -0.296 OA
ATOM     57  C1  SGN d 250      46.218  28.652  -0.459  0.00  0.00     0.150 C 
ATOM     58  O2S SGN d 250      50.864  30.443  -0.916  0.00  0.00    -0.296 OA
ATOM     59  C5  SGN d 250      45.840  27.263   1.457  0.00  0.00     0.091 C 
ATOM     60  O6  SGN d 250      44.047  25.759   1.956  0.00  0.00    -0.254 OA
ATOM     61  O1S SGN d 250      49.295  31.621   0.552  0.00  0.00    -0.296 OA
ATOM     62  O1  SGN d 250      46.643  27.393  -0.946  0.00  0.00    -0.348 OA
ATOM     63  S2  SGN d 250      42.581  25.369   2.329  0.00  0.00     0.251 S 
ATOM     64  C6  SGN d 250      44.765  26.842   2.466  0.00  0.00     0.067 C 
ATOM     65  C3  SGN d 250      48.151  28.238   1.054  0.00  0.00     0.083 C 
ATOM     66  C2  SGN d 250      47.497  29.335   0.166  0.00  0.00     0.081 C 
ATOM     67  O6S SGN d 250      42.624  23.962   2.698  0.00  0.00    -0.572 OA
ATOM     68  O5  SGN d 250      45.283  28.317   0.581  0.00  0.00    -0.349 OA
ATOM     69  O4S SGN d 250      42.164  26.241   3.416  0.00  0.00    -0.572 OA
ATOM     70  N   SGN d 250      48.465  29.718  -0.912  0.00  0.00    -0.210 NA
ATOM     71  H   SGN d 250      49.722  28.064   2.230  0.00  0.00     0.210 HD
ATOM     72  H   SGN d 250      46.890  28.629   2.770  0.00  0.00     0.091 H 
ATOM     73  H   SGN d 250      48.251  32.246  -1.679  0.00  0.00     0.231 HD
ATOM     74  H   SGN d 250      45.784  29.302  -1.190  0.00  0.00     0.131 H 
ATOM     75  H   SGN d 250      51.064  29.852  -0.173  0.00  0.00     0.231 HD
ATOM     76  H   SGN d 250      46.113  26.393   0.897  0.00  0.00     0.090 H 
ATOM     77  H   SGN d 250      49.548  30.999   1.253  0.00  0.00     0.231 HD
ATOM     78  H   SGN d 250      44.100  27.661   2.641  0.00  0.00     0.080 H 
ATOM     79  H   SGN d 250      45.232  26.558   3.386  0.00  0.00     0.080 H 
ATOM     80  H   SGN d 250      48.418  27.400   0.445  0.00  0.00     0.089 H 
ATOM     81  H   SGN d 250      47.240  30.218   0.711  0.00  0.00     0.076 H 
ATOM     82  H   SGN d 250      49.046  28.896  -1.079  0.00  0.00     0.140 HD
ATOM     83  C1  SGN d 252      46.470  19.870  -4.173  0.00  0.00     0.147 C 
ATOM     84  C2  SGN d 252      46.135  20.600  -2.852  0.00  0.00     0.081 C 
ATOM     85  S1  SGN d 252      44.219  19.273  -1.457  0.00  0.00     0.156 S 
ATOM     86  O3  SGN d 252      46.177  22.726  -1.843  0.00  0.00    -0.391 OA
ATOM     87  O2S SGN d 252      44.554  19.797  -0.149  0.00  0.00    -0.296 OA
ATOM     88  O1  SGN d 252      45.655  20.414  -5.230  0.00  0.00    -0.369 OA
ATOM     89  S2  SGN d 252      51.888  20.681  -3.469  0.00  0.00     0.251 S 
ATOM     90  C3  SGN d 252      46.483  22.075  -3.029  0.00  0.00     0.083 C 
ATOM     91  C6  SGN d 252      49.799  21.350  -5.029  0.00  0.00     0.067 C 
ATOM     92  O6S SGN d 252      51.753  19.371  -4.099  0.00  0.00    -0.572 OA
ATOM     93  O1S SGN d 252      44.940  18.056  -1.782  0.00  0.00    -0.296 OA
ATOM     94  O3S SGN d 252      42.777  19.118  -1.635  0.00  0.00    -0.296 OA
ATOM     95  N   SGN d 252      44.682  20.434  -2.552  0.00  0.00    -0.210 NA
ATOM     96  O5  SGN d 252      47.884  20.026  -4.484  0.00  0.00    -0.350 OA
ATOM     97  O6  SGN d 252      50.596  21.506  -3.874  0.00  0.00    -0.254 OA
ATOM     98  O5S SGN d 252      51.815  20.611  -2.014  0.00  0.00    -0.572 OA
ATOM     99  C5  SGN d 252      48.320  21.396  -4.626  0.00  0.00     0.091 C 
ATOM    100  C4  SGN d 252      48.024  22.197  -3.319  0.00  0.00     0.095 C 
ATOM    101  O4S SGN d 252      53.046  21.426  -3.943  0.00  0.00    -0.572 OA
ATOM    102  H   SGN d 252      46.264  18.825  -4.072  0.00  0.00     0.131 H 
ATOM    103  H   SGN d 252      46.695  20.193  -2.036  0.00  0.00     0.076 H 
ATOM    104  H   SGN d 252      45.226  22.649  -1.667  0.00  0.00     0.210 HD
ATOM    105  H   SGN d 252      45.517  19.885  -0.073  0.00  0.00     0.231 HD
ATOM    106  H   SGN d 252      45.839  21.362  -5.325  0.00  0.00     0.212 HD
ATOM    107  H   SGN d 252      45.935  22.508  -3.840  0.00  0.00     0.089 H 
ATOM    108  H   SGN d 252      50.008  22.141  -5.718  0.00  0.00     0.080 H 
ATOM    109  H   SGN d 252      50.017  20.412  -5.494  0.00  0.00     0.080 H 
ATOM    110  H   SGN d 252      45.891  18.198  -1.652  0.00  0.00     0.231 HD
ATOM    111  H   SGN d 252      42.596  18.765  -2.520  0.00  0.00     0.231 HD
ATOM    112  H   SGN d 252      44.217  20.218  -3.433  0.00  0.00     0.140 HD
ATOM    113  H   SGN d 252      47.784  21.922  -5.389  0.00  0.00     0.090 H 
ATOM    114  H   SGN d 252      48.575  21.822  -2.482  0.00  0.00     0.091 H 
ATOM    115  C3  IDS d 245      49.733  33.322  21.244  0.00  0.00     0.044 C 
ATOM    116  O2S IDS d 245      49.775  29.188  19.269  0.00  0.00    -0.572 OA
ATOM    117  O2  IDS d 245      49.035  31.367  20.100  0.00  0.00    -0.247 OA
ATOM    118  O3S IDS d 245      50.566  30.030  21.399  0.00  0.00    -0.572 OA
ATOM    119  O3  IDS d 245      50.267  32.557  22.299  0.00  0.00    -0.398 OA
ATOM    120  C2  IDS d 245      49.830  32.544  19.966  0.00  0.00     0.100 C 
ATOM    121  C1  IDS d 245      49.263  33.427  18.884  0.00  0.00     0.048 C 
ATOM    122  O1  IDS d 245      48.909  32.633  17.781  0.00  0.00    -0.378 OA
ATOM    123  O1S IDS d 245      48.259  29.360  21.137  0.00  0.00    -0.572 OA
ATOM    124  S   IDS d 245      49.449  29.899  20.493  0.00  0.00     0.252 S 
ATOM    125  H   IDS d 245      48.707  33.547  21.449  0.00  0.00     0.078 H 
ATOM    126  H   IDS d 245      50.284  34.234  21.150  0.00  0.00     0.078 H 
ATOM    127  H   IDS d 245      49.767  31.731  22.384  0.00  0.00     0.209 HD
ATOM    128  H   IDS d 245      50.835  32.262  19.736  0.00  0.00     0.092 H 
ATOM    129  H   IDS d 245      49.998  34.147  18.587  0.00  0.00     0.078 H 
ATOM    130  H   IDS d 245      48.398  33.939  19.253  0.00  0.00     0.078 H 
ATOM    131  C2  IDS d 247      46.980  31.872  10.861  0.00  0.00     0.134 C 
ATOM    132  O2  IDS d 247      47.662  32.952  10.187  0.00  0.00    -0.244 OA
ATOM    133  S   IDS d 247      47.066  34.022   9.116  0.00  0.00     0.252 S 
ATOM    134  C5  IDS d 247      46.194  29.928  12.616  0.00  0.00     0.152 C 
ATOM    135  O1S IDS d 247      45.912  33.351   8.552  0.00  0.00    -0.572 OA
ATOM    136  O3  IDS d 247      45.422  33.441  11.789  0.00  0.00    -0.390 OA
ATOM    137  O3S IDS d 247      48.116  34.261   8.121  0.00  0.00    -0.572 OA
ATOM    138  O62 IDS d 247      46.872  28.283  14.239  0.00  0.00    -0.646 OA
ATOM    139  O61 IDS d 247      44.815  28.557  14.037  0.00  0.00    -0.646 OA
ATOM    140  O5  IDS d 247      47.615  29.993  12.336  0.00  0.00    -0.340 OA
ATOM    141  O2S IDS d 247      46.697  35.215   9.848  0.00  0.00    -0.572 OA
ATOM    142  C1  IDS d 247      47.981  30.742  11.174  0.00  0.00     0.161 C 
ATOM    143  C4  IDS d 247      45.697  31.370  13.032  0.00  0.00     0.103 C 
ATOM    144  C6  IDS d 247      45.948  28.854  13.694  0.00  0.00     0.206 C 
ATOM    145  O1  IDS d 247      48.017  29.946  10.044  0.00  0.00    -0.348 OA
ATOM    146  C3  IDS d 247      46.371  32.438  12.132  0.00  0.00     0.094 C 
ATOM    147  H   IDS d 247      46.208  31.456  10.247  0.00  0.00     0.097 H 
ATOM    148  H   IDS d 247      45.627  29.636  11.756  0.00  0.00     0.104 H 
ATOM    149  H   IDS d 247      45.845  34.108  11.225  0.00  0.00     0.210 HD
ATOM    150  H   IDS d 247      48.946  31.144  11.401  0.00  0.00     0.133 H 
ATOM    151  H   IDS d 247      44.632  31.436  12.952  0.00  0.00     0.092 H 
ATOM    152  H   IDS d 247      47.176  32.848  12.704  0.00  0.00     0.091 H 
ATOM    153  C2  IDS d 251      49.002  25.885  -3.149  0.00  0.00     0.134 C 
ATOM    154  C1  IDS d 251      48.565  24.552  -2.479  0.00  0.00     0.161 C 
ATOM    155  O62 IDS d 251      43.937  25.832  -2.299  0.00  0.00    -0.646 OA
ATOM    156  C4  IDS d 251      46.882  27.100  -2.264  0.00  0.00     0.103 C 
ATOM    157  C5  IDS d 251      46.367  25.636  -2.401  0.00  0.00     0.152 C 
ATOM    158  C6  IDS d 251      44.951  25.411  -1.768  0.00  0.00     0.206 C 
ATOM    159  S   IDS d 251      51.434  25.781  -1.864  0.00  0.00     0.252 S 
ATOM    160  O3  IDS d 251      48.813  28.285  -3.109  0.00  0.00    -0.390 OA
ATOM    161  O61 IDS d 251      44.827  24.803  -0.700  0.00  0.00    -0.646 OA
ATOM    162  O3S IDS d 251      52.752  25.811  -2.454  0.00  0.00    -0.572 OA
ATOM    163  O2  IDS d 251      50.425  26.025  -3.106  0.00  0.00    -0.244 OA
ATOM    164  O2S IDS d 251      51.111  24.503  -1.256  0.00  0.00    -0.572 OA
ATOM    165  O5  IDS d 251      47.349  24.760  -1.740  0.00  0.00    -0.340 OA
ATOM    166  C3  IDS d 251      48.422  27.109  -2.426  0.00  0.00     0.094 C 
ATOM    167  O1S IDS d 251      51.195  26.895  -0.956  0.00  0.00    -0.572 OA
ATOM    168  O1  IDS d 251      48.403  23.607  -3.552  0.00  0.00    -0.348 OA
ATOM    169  H   IDS d 251      48.640  25.843  -4.154  0.00  0.00     0.097 H 
ATOM    170  H   IDS d 251      49.284  24.187  -1.775  0.00  0.00     0.133 H 
ATOM    171  H   IDS d 251      46.431  27.764  -2.972  0.00  0.00     0.092 H 
ATOM    172  H   IDS d 251      46.264  25.412  -3.442  0.00  0.00     0.104 H 
ATOM    173  H   IDS d 251      49.777  28.294  -3.212  0.00  0.00     0.210 HD
ATOM    174  H   IDS d 251      48.821  27.076  -1.433  0.00  0.00     0.091 H 
ATOM    175  O5S SGN d 248      50.140  29.854  12.359  0.00  0.00    -0.572 OA
ATOM    176  O4S SGN d 248      52.499  30.332  12.103  0.00  0.00    -0.572 OA
ATOM    177  O2S SGN d 248      48.671  22.721   9.129  0.00  0.00    -0.296 OA
ATOM    178  O1  SGN d 248      49.572  26.977   7.324  0.00  0.00    -0.348 OA
ATOM    179  S1  SGN d 248      48.919  23.775  10.105  0.00  0.00     0.156 S 
ATOM    180  O3  SGN d 248      47.339  27.335  10.760  0.00  0.00    -0.391 OA
ATOM    181  O1S SGN d 248      48.073  23.695  11.277  0.00  0.00    -0.296 OA
ATOM    182  N   SGN d 248      48.568  25.187   9.313  0.00  0.00    -0.210 NA
ATOM    183  S2  SGN d 248      51.297  29.810  11.481  0.00  0.00     0.251 S 
ATOM    184  C4  SGN d 248      48.990  28.913   9.990  0.00  0.00     0.095 C 
ATOM    185  C6  SGN d 248      50.823  30.457   8.976  0.00  0.00     0.067 C 
ATOM    186  O6S SGN d 248      51.488  28.512  10.867  0.00  0.00    -0.572 OA
ATOM    187  O3S SGN d 248      50.319  23.861  10.473  0.00  0.00    -0.296 OA
ATOM    188  O5  SGN d 248      50.945  28.047   8.741  0.00  0.00    -0.349 OA
ATOM    189  C2  SGN d 248      49.279  26.460   9.622  0.00  0.00     0.081 C 
ATOM    190  C3  SGN d 248      48.255  27.601   9.710  0.00  0.00     0.083 C 
ATOM    191  C1  SGN d 248      50.292  26.808   8.480  0.00  0.00     0.150 C 
ATOM    192  O6  SGN d 248      50.923  30.779  10.328  0.00  0.00    -0.254 OA
ATOM    193  C5  SGN d 248      50.001  29.168   8.818  0.00  0.00     0.091 C 
ATOM    194  H   SGN d 248      47.726  22.698   8.911  0.00  0.00     0.231 HD
ATOM    195  H   SGN d 248      46.692  28.056  10.815  0.00  0.00     0.210 HD
ATOM    196  H   SGN d 248      47.145  23.639  11.003  0.00  0.00     0.231 HD
ATOM    197  H   SGN d 248      47.576  25.367   9.475  0.00  0.00     0.140 HD
ATOM    198  H   SGN d 248      49.529  28.878  10.913  0.00  0.00     0.091 H 
ATOM    199  H   SGN d 248      50.338  31.255   8.454  0.00  0.00     0.080 H 
ATOM    200  H   SGN d 248      51.801  30.309   8.570  0.00  0.00     0.080 H 
ATOM    201  H   SGN d 248      50.861  23.914   9.671  0.00  0.00     0.231 HD
ATOM    202  H   SGN d 248      49.803  26.342  10.548  0.00  0.00     0.076 H 
ATOM    203  H   SGN d 248      47.720  27.679   8.787  0.00  0.00     0.089 H 
ATOM    204  H   SGN d 248      51.017  26.026   8.408  0.00  0.00     0.131 H 
ATOM    205  H   SGN d 248      49.408  29.266   7.933  0.00  0.00     0.090 H 
ENDROOT
TORSDOF 64
ENDMDL
MODEL 29
REMARK VINA RESULT:       0.7      2.945      4.835
REMARK  0 active torsions:
REMARK  status: ('A' for Active; 'I' for Inactive)
REMARK       I    between atoms: C5_1  and  C6_97 
REMARK       I    between atoms: O2_2  and  C2_107 
REMARK       I    between atoms: O2_2  and  S_88 
REMARK       I    between atoms: O3_4  and  C3_95 
REMARK       I    between atoms: C1_5  and  O1_40 
REMARK       I    between atoms: C3_6  and  C2_70 
REMARK       I    between atoms: C3_6  and  O3_51 
REMARK       I    between atoms: C2_7  and  O2_9 
REMARK       I    between atoms: C2_8  and  O2_75 
REMARK       I    between atoms: O2_9  and  S_23 
REMARK       I    between atoms: S2_14  and  O6_117 
REMARK       I    between atoms: C1_15  and  O1_130 
REMARK       I    between atoms: C4_16  and  O1_59 
REMARK       I    between atoms: S1_17  and  N_128 
REMARK       I    between atoms: S1_17  and  O1S_46 
REMARK       I    between atoms: S1_17  and  O2S_29 
REMARK       I    between atoms: S1_17  and  O3S_24 
REMARK       I    between atoms: C2_18  and  N_86 
REMARK       I    between atoms: S1_19  and  N_86 
REMARK       I    between atoms: S1_19  and  O1S_71 
REMARK       I    between atoms: S1_19  and  O2S_34 
REMARK       I    between atoms: S1_19  and  O3S_81 
REMARK       I    between atoms: O2S_22  and  S1_111 
REMARK       I    between atoms: C1_25  and  O1_58 
REMARK       I    between atoms: C4_27  and  O1_58 
REMARK       I    between atoms: O2S_28  and  S1_48 
REMARK       I    between atoms: O3_32  and  C3_49 
REMARK       I    between atoms: O2_33  and  C2_70 
REMARK       I    between atoms: O2_33  and  S_133 
REMARK       I    between atoms: C5_37  and  C6_84 
REMARK       I    between atoms: C5_41  and  C6_43 
REMARK       I    between atoms: O6_42  and  C6_84 
REMARK       I    between atoms: O6_42  and  S2_77 
REMARK       I    between atoms: C5_44  and  C6_108 
REMARK       I    between atoms: O1_45  and  C1_120 
REMARK       I    between atoms: O1_45  and  C4_114 
REMARK       I    between atoms: S2_47  and  O6_94 
REMARK       I    between atoms: S1_48  and  N_53 
REMARK       I    between atoms: S1_48  and  O1S_52 
REMARK       I    between atoms: S1_48  and  O3S_83 
REMARK       I    between atoms: O3_50  and  C3_119 
REMARK       I    between atoms: N_53  and  C2_89 
REMARK       I    between atoms: S_55  and  O2_75 
REMARK       I    between atoms: O3_56  and  C3_124 
REMARK       I    between atoms: O1_59  and  C1_110 
REMARK       I    between atoms: S2_60  and  O6_132 
REMARK       I    between atoms: O3_61  and  C3_115 
REMARK       I    between atoms: C6_62  and  C5_106 
REMARK       I    between atoms: C6_62  and  O6_94 
REMARK       I    between atoms: C4_63  and  O1_96 
REMARK       I    between atoms: O3_67  and  C3_93 
REMARK       I    between atoms: O1_69  and  C1_113 
REMARK       I    between atoms: O1_69  and  C4_103 
REMARK       I    between atoms: C2_70  and  C1_76 
REMARK       I    between atoms: C5_74  and  C6_90 
REMARK       I    between atoms: C1_76  and  O1_96 
REMARK       I    between atoms: C4_78  and  O1_112 
REMARK       I    between atoms: C6_80  and  C5_134 
REMARK       I    between atoms: C6_80  and  O6_132 
REMARK       I    between atoms: C6_90  and  O6_117 
REMARK       I    between atoms: C2_98  and  N_128 
REMARK       I    between atoms: C1_100  and  O1_112 
REMARK       I    between atoms: S1_111  and  O1S_116 
REMARK       I    between atoms: C4_127  and  O1_130 
ROOT
ATOM      1  C5  IDS d 249      45.499  28.288  10.350  0.00  0.00     0.152 C 
ATOM      2  O2  IDS d 249      49.118  29.780  11.681  0.00  0.00    -0.244 OA
ATOM      3  O1S IDS d 249      50.806  28.276  10.777  0.00  0.00    -0.572 OA
ATOM      4  O5  IDS d 249      46.194  29.285   9.566  0.00  0.00    -0.340 OA
ATOM      5  O1  IDS d 249      46.417  31.110  10.952  0.00  0.00    -0.348 OA
ATOM      6  O62 IDS d 249      44.292  27.713   8.337  0.00  0.00    -0.646 OA
ATOM      7  O3  IDS d 249      48.020  26.924  12.138  0.00  0.00    -0.390 OA
ATOM      8  S   IDS d 249      50.388  29.666  10.686  0.00  0.00     0.252 S 
ATOM      9  C3  IDS d 249      47.886  27.825  11.122  0.00  0.00     0.094 C 
ATOM     10  C6  IDS d 249      44.280  27.771   9.554  0.00  0.00     0.206 C 
ATOM     11  O3S IDS d 249      51.382  30.584  11.198  0.00  0.00    -0.572 OA
ATOM     12  C2  IDS d 249      47.778  29.294  11.457  0.00  0.00     0.134 C 
ATOM     13  C1  IDS d 249      47.094  30.093  10.314  0.00  0.00     0.161 C 
ATOM     14  C4  IDS d 249      46.540  27.172  10.711  0.00  0.00     0.103 C 
ATOM     15  O2S IDS d 249      49.939  30.003   9.358  0.00  0.00    -0.572 OA
ATOM     16  O61 IDS d 249      43.260  27.409  10.140  0.00  0.00    -0.646 OA
ATOM     17  H   IDS d 249      45.106  28.684  11.263  0.00  0.00     0.104 H 
ATOM     18  H   IDS d 249      48.845  27.098  12.618  0.00  0.00     0.210 HD
ATOM     19  H   IDS d 249      48.704  27.931  10.440  0.00  0.00     0.091 H 
ATOM     20  H   IDS d 249      47.169  29.427  12.327  0.00  0.00     0.097 H 
ATOM     21  H   IDS d 249      47.812  30.454   9.608  0.00  0.00     0.133 H 
ATOM     22  H   IDS d 249      46.292  26.481  11.489  0.00  0.00     0.092 H 
ATOM     23  O3  SGN d 246      47.979  22.362  -1.717  0.00  0.00    -0.215 OA
ATOM     24  S2  SGN d 246      54.328  20.870  -0.961  0.00  0.00     0.251 S 
ATOM     25  O6S SGN d 246      54.346  22.306  -0.950  0.00  0.00    -0.572 OA
ATOM     26  O2S SGN d 246      48.256  25.948  -3.286  0.00  0.00    -0.294 OA
ATOM     27  C3  SGN d 246      48.981  22.556  -0.744  0.00  0.00     0.121 C 
ATOM     28  C2  SGN d 246      49.796  23.818  -1.065  0.00  0.00     0.084 C 
ATOM     29  O4S SGN d 246      55.056  20.288   0.136  0.00  0.00    -0.572 OA
ATOM     30  O5S SGN d 246      54.695  20.319  -2.241  0.00  0.00    -0.572 OA
ATOM     31  N   SGN d 246      48.914  24.986  -1.084  0.00  0.00    -0.208 NA
ATOM     32  C4  SGN d 246      49.920  21.381  -0.765  0.00  0.00     0.095 C 
ATOM     33  O1  SGN d 246      50.362  24.140   1.317  0.00  0.00    -0.348 OA
ATOM     34  C5  SGN d 246      51.049  21.607   0.328  0.00  0.00     0.091 C 
ATOM     35  C6  SGN d 246      52.108  20.480   0.404  0.00  0.00     0.067 C 
ATOM     36  S1  SGN d 246      47.736  25.113  -2.222  0.00  0.00     0.188 S 
ATOM     37  C1  SGN d 246      50.937  24.010   0.029  0.00  0.00     0.151 C 
ATOM     38  O1S SGN d 246      46.566  25.677  -1.577  0.00  0.00    -0.294 OA
ATOM     39  O6  SGN d 246      52.853  20.461  -0.784  0.00  0.00    -0.254 OA
ATOM     40  O5  SGN d 246      51.779  22.859   0.050  0.00  0.00    -0.349 OA
ATOM     41  O3S SGN d 246      47.512  23.751  -2.656  0.00  0.00    -0.119 OA
ATOM     42  H   SGN d 246      48.392  26.849  -2.954  0.00  0.00     0.231 HD
ATOM     43  H   SGN d 246      48.515  22.659   0.214  0.00  0.00     0.095 H 
ATOM     44  H   SGN d 246      50.250  23.712  -2.029  0.00  0.00     0.077 H 
ATOM     45  H   SGN d 246      49.514  25.805  -1.189  0.00  0.00     0.140 HD
ATOM     46  H   SGN d 246      50.408  21.270  -1.710  0.00  0.00     0.091 H 
ATOM     47  H   SGN d 246      50.522  21.631   1.259  0.00  0.00     0.090 H 
ATOM     48  H   SGN d 246      51.619  19.537   0.533  0.00  0.00     0.080 H 
ATOM     49  H   SGN d 246      52.761  20.659   1.232  0.00  0.00     0.080 H 
ATOM     50  H   SGN d 246      51.495  24.887  -0.221  0.00  0.00     0.131 H 
ATOM     51  H   SGN d 246      46.756  26.588  -1.302  0.00  0.00     0.231 HD
ATOM     52  O3  SGN d 250      43.801  31.745  10.125  0.00  0.00    -0.391 OA
ATOM     53  O5S SGN d 250      50.951  35.430  11.426  0.00  0.00    -0.572 OA
ATOM     54  C4  SGN d 250      46.150  32.312  10.253  0.00  0.00     0.095 C 
ATOM     55  S1  SGN d 250      41.696  34.166   9.298  0.00  0.00     0.156 S 
ATOM     56  O3S SGN d 250      41.165  35.469   8.918  0.00  0.00    -0.296 OA
ATOM     57  C1  SGN d 250      45.465  35.108  10.466  0.00  0.00     0.150 C 
ATOM     58  O2S SGN d 250      40.771  33.414  10.163  0.00  0.00    -0.296 OA
ATOM     59  C5  SGN d 250      47.147  33.422  10.731  0.00  0.00     0.091 C 
ATOM     60  O6  SGN d 250      49.436  33.602  11.409  0.00  0.00    -0.254 OA
ATOM     61  O1S SGN d 250      42.147  33.417   8.135  0.00  0.00    -0.296 OA
ATOM     62  O1  SGN d 250      45.452  34.927  11.869  0.00  0.00    -0.348 OA
ATOM     63  S2  SGN d 250      50.937  34.001  11.250  0.00  0.00     0.251 S 
ATOM     64  C6  SGN d 250      48.609  33.093  10.405  0.00  0.00     0.067 C 
ATOM     65  C3  SGN d 250      44.705  32.741  10.586  0.00  0.00     0.083 C 
ATOM     66  C2  SGN d 250      44.403  34.096   9.884  0.00  0.00     0.081 C 
ATOM     67  O6S SGN d 250      51.649  33.310  12.316  0.00  0.00    -0.572 OA
ATOM     68  O5  SGN d 250      46.791  34.702  10.082  0.00  0.00    -0.349 OA
ATOM     69  O4S SGN d 250      51.355  33.597   9.917  0.00  0.00    -0.572 OA
ATOM     70  N   SGN d 250      43.015  34.526  10.250  0.00  0.00    -0.210 NA
ATOM     71  H   SGN d 250      43.995  30.903  10.566  0.00  0.00     0.210 HD
ATOM     72  H   SGN d 250      46.266  32.170   9.199  0.00  0.00     0.091 H 
ATOM     73  H   SGN d 250      41.805  35.926   8.351  0.00  0.00     0.231 HD
ATOM     74  H   SGN d 250      45.240  36.099  10.130  0.00  0.00     0.131 H 
ATOM     75  H   SGN d 250      41.165  32.557  10.390  0.00  0.00     0.231 HD
ATOM     76  H   SGN d 250      47.062  33.486  11.796  0.00  0.00     0.090 H 
ATOM     77  H   SGN d 250      42.494  32.557   8.419  0.00  0.00     0.231 HD
ATOM     78  H   SGN d 250      48.874  33.536   9.467  0.00  0.00     0.080 H 
ATOM     79  H   SGN d 250      48.732  32.032  10.346  0.00  0.00     0.080 H 
ATOM     80  H   SGN d 250      44.591  32.856  11.644  0.00  0.00     0.089 H 
ATOM     81  H   SGN d 250      44.463  34.038   8.817  0.00  0.00     0.076 H 
ATOM     82  H   SGN d 250      42.824  34.123  11.167  0.00  0.00     0.140 HD
ATOM     83  C1  SGN d 252      47.433  35.580  19.787  0.00  0.00     0.147 C 
ATOM     84  C2  SGN d 252      47.941  34.908  18.491  0.00  0.00     0.081 C 
ATOM     85  S1  SGN d 252      50.623  34.491  18.588  0.00  0.00     0.156 S 
ATOM     86  O3  SGN d 252      47.427  34.650  16.208  0.00  0.00    -0.391 OA
ATOM     87  O2S SGN d 252      50.671  33.409  17.627  0.00  0.00    -0.296 OA
ATOM     88  O1  SGN d 252      47.425  37.010  19.603  0.00  0.00    -0.369 OA
ATOM     89  S2  SGN d 252      43.008  32.282  19.990  0.00  0.00     0.251 S 
ATOM     90  C3  SGN d 252      46.965  35.253  17.369  0.00  0.00     0.083 C 
ATOM     91  C6  SGN d 252      43.768  34.839  19.635  0.00  0.00     0.067 C 
ATOM     92  O6S SGN d 252      43.410  32.507  21.375  0.00  0.00    -0.572 OA
ATOM     93  O1S SGN d 252      50.421  34.032  19.950  0.00  0.00    -0.296 OA
ATOM     94  O3S SGN d 252      51.780  35.377  18.477  0.00  0.00    -0.296 OA
ATOM     95  N   SGN d 252      49.308  35.418  18.173  0.00  0.00    -0.210 NA
ATOM     96  O5  SGN d 252      46.098  35.098  20.108  0.00  0.00    -0.350 OA
ATOM     97  O6  SGN d 252      43.536  33.528  19.165  0.00  0.00    -0.254 OA
ATOM     98  O5S SGN d 252      43.697  31.146  19.387  0.00  0.00    -0.572 OA
ATOM     99  C5  SGN d 252      45.109  35.339  19.082  0.00  0.00     0.091 C 
ATOM    100  C4  SGN d 252      45.550  34.675  17.739  0.00  0.00     0.095 C 
ATOM    101  O4S SGN d 252      41.563  32.226  19.816  0.00  0.00    -0.572 OA
ATOM    102  H   SGN d 252      48.082  35.334  20.601  0.00  0.00     0.131 H 
ATOM    103  H   SGN d 252      47.997  33.846  18.606  0.00  0.00     0.076 H 
ATOM    104  H   SGN d 252      48.300  35.009  15.982  0.00  0.00     0.210 HD
ATOM    105  H   SGN d 252      49.888  32.847  17.734  0.00  0.00     0.231 HD
ATOM    106  H   SGN d 252      46.838  37.238  18.865  0.00  0.00     0.212 HD
ATOM    107  H   SGN d 252      46.890  36.311  17.232  0.00  0.00     0.089 H 
ATOM    108  H   SGN d 252      42.981  35.483  19.303  0.00  0.00     0.080 H 
ATOM    109  H   SGN d 252      43.796  34.839  20.704  0.00  0.00     0.080 H 
ATOM    110  H   SGN d 252      49.647  33.447  19.982  0.00  0.00     0.231 HD
ATOM    111  H   SGN d 252      51.709  36.085  19.136  0.00  0.00     0.231 HD
ATOM    112  H   SGN d 252      49.411  36.315  18.649  0.00  0.00     0.140 HD
ATOM    113  H   SGN d 252      45.005  36.377  18.845  0.00  0.00     0.090 H 
ATOM    114  H   SGN d 252      45.608  33.609  17.816  0.00  0.00     0.091 H 
ATOM    115  C3  IDS d 245      49.615  17.190  -2.455  0.00  0.00     0.044 C 
ATOM    116  O2S IDS d 245      50.510  17.635   2.017  0.00  0.00    -0.572 OA
ATOM    117  O2  IDS d 245      50.532  17.958  -0.408  0.00  0.00    -0.247 OA
ATOM    118  O3S IDS d 245      50.395  15.735   0.517  0.00  0.00    -0.572 OA
ATOM    119  O3  IDS d 245      49.943  15.857  -2.141  0.00  0.00    -0.398 OA
ATOM    120  C2  IDS d 245      49.338  17.946  -1.190  0.00  0.00     0.100 C 
ATOM    121  C1  IDS d 245      48.977  19.350  -1.601  0.00  0.00     0.048 C 
ATOM    122  O1  IDS d 245      49.142  20.208  -0.501  0.00  0.00    -0.378 OA
ATOM    123  O1S IDS d 245      52.433  17.023   0.695  0.00  0.00    -0.572 OA
ATOM    124  S   IDS d 245      50.978  17.030   0.783  0.00  0.00     0.252 S 
ATOM    125  H   IDS d 245      50.434  17.647  -2.971  0.00  0.00     0.078 H 
ATOM    126  H   IDS d 245      48.747  17.208  -3.079  0.00  0.00     0.078 H 
ATOM    127  H   IDS d 245      50.730  15.842  -1.575  0.00  0.00     0.209 HD
ATOM    128  H   IDS d 245      48.550  17.505  -0.616  0.00  0.00     0.092 H 
ATOM    129  H   IDS d 245      47.958  19.377  -1.927  0.00  0.00     0.078 H 
ATOM    130  H   IDS d 245      49.611  19.665  -2.402  0.00  0.00     0.078 H 
ATOM    131  C2  IDS d 247      48.164  26.556   2.806  0.00  0.00     0.134 C 
ATOM    132  O2  IDS d 247      46.881  27.007   2.324  0.00  0.00    -0.244 OA
ATOM    133  S   IDS d 247      46.468  28.468   1.739  0.00  0.00     0.252 S 
ATOM    134  C5  IDS d 247      50.344  25.072   3.532  0.00  0.00     0.152 C 
ATOM    135  O1S IDS d 247      47.450  29.368   2.312  0.00  0.00    -0.572 OA
ATOM    136  O3  IDS d 247      49.144  27.087   0.682  0.00  0.00    -0.390 OA
ATOM    137  O3S IDS d 247      45.109  28.750   2.211  0.00  0.00    -0.572 OA
ATOM    138  O62 IDS d 247      51.160  22.974   4.388  0.00  0.00    -0.646 OA
ATOM    139  O61 IDS d 247      52.621  24.330   3.777  0.00  0.00    -0.646 OA
ATOM    140  O5  IDS d 247      49.052  24.537   3.920  0.00  0.00    -0.340 OA
ATOM    141  O2S IDS d 247      46.565  28.407   0.296  0.00  0.00    -0.572 OA
ATOM    142  C1  IDS d 247      47.961  25.460   3.871  0.00  0.00     0.161 C 
ATOM    143  C4  IDS d 247      50.308  25.397   1.985  0.00  0.00     0.103 C 
ATOM    144  C6  IDS d 247      51.440  24.063   3.928  0.00  0.00     0.206 C 
ATOM    145  O1  IDS d 247      47.802  26.126   5.072  0.00  0.00    -0.348 OA
ATOM    146  C3  IDS d 247      48.942  26.029   1.613  0.00  0.00     0.094 C 
ATOM    147  H   IDS d 247      48.709  27.354   3.266  0.00  0.00     0.097 H 
ATOM    148  H   IDS d 247      50.569  25.986   4.041  0.00  0.00     0.104 H 
ATOM    149  H   IDS d 247      48.288  27.482   0.450  0.00  0.00     0.210 HD
ATOM    150  H   IDS d 247      47.107  24.860   3.639  0.00  0.00     0.133 H 
ATOM    151  H   IDS d 247      51.107  26.059   1.724  0.00  0.00     0.092 H 
ATOM    152  H   IDS d 247      48.355  25.244   1.184  0.00  0.00     0.091 H 
ATOM    153  C2  IDS d 251      43.275  34.989  14.688  0.00  0.00     0.134 C 
ATOM    154  C1  IDS d 251      44.466  34.339  15.446  0.00  0.00     0.161 C 
ATOM    155  O62 IDS d 251      47.736  37.063  13.215  0.00  0.00    -0.646 OA
ATOM    156  C4  IDS d 251      44.839  35.766  12.763  0.00  0.00     0.103 C 
ATOM    157  C5  IDS d 251      45.816  35.765  13.978  0.00  0.00     0.152 C 
ATOM    158  C6  IDS d 251      47.315  35.975  13.572  0.00  0.00     0.206 C 
ATOM    159  S   IDS d 251      41.886  32.613  14.754  0.00  0.00     0.252 S 
ATOM    160  O3  IDS d 251      42.432  35.700  12.548  0.00  0.00    -0.390 OA
ATOM    161  O61 IDS d 251      48.113  35.033  13.596  0.00  0.00    -0.646 OA
ATOM    162  O3S IDS d 251      40.566  32.371  15.287  0.00  0.00    -0.572 OA
ATOM    163  O2  IDS d 251      42.085  34.216  14.868  0.00  0.00    -0.244 OA
ATOM    164  O2S IDS d 251      42.936  31.966  15.517  0.00  0.00    -0.572 OA
ATOM    165  O5  IDS d 251      45.666  34.472  14.664  0.00  0.00    -0.340 OA
ATOM    166  C3  IDS d 251      43.525  35.057  13.175  0.00  0.00     0.094 C 
ATOM    167  O1S IDS d 251      41.984  32.320  13.330  0.00  0.00    -0.572 OA
ATOM    168  O1  IDS d 251      44.553  35.029  16.707  0.00  0.00    -0.348 OA
ATOM    169  H   IDS d 251      43.170  35.974  15.090  0.00  0.00     0.097 H 
ATOM    170  H   IDS d 251      44.331  33.291  15.612  0.00  0.00     0.133 H 
ATOM    171  H   IDS d 251      44.631  36.752  12.402  0.00  0.00     0.092 H 
ATOM    172  H   IDS d 251      45.564  36.589  14.612  0.00  0.00     0.104 H 
ATOM    173  H   IDS d 251      41.607  35.258  12.803  0.00  0.00     0.210 HD
ATOM    174  H   IDS d 251      43.627  34.042  12.851  0.00  0.00     0.091 H 
ATOM    175  O5S SGN d 248      47.082  23.104   4.599  0.00  0.00    -0.572 OA
ATOM    176  O4S SGN d 248      44.871  22.147   4.830  0.00  0.00    -0.572 OA
ATOM    177  O2S SGN d 248      49.944  24.570  11.888  0.00  0.00    -0.296 OA
ATOM    178  O1  SGN d 248      46.676  26.647   9.206  0.00  0.00    -0.348 OA
ATOM    179  S1  SGN d 248      49.702  23.940  10.596  0.00  0.00     0.156 S 
ATOM    180  O3  SGN d 248      49.746  25.230   6.863  0.00  0.00    -0.391 OA
ATOM    181  O1S SGN d 248      50.902  23.449   9.954  0.00  0.00    -0.296 OA
ATOM    182  N   SGN d 248      49.064  25.137   9.646  0.00  0.00    -0.210 NA
ATOM    183  S2  SGN d 248      45.805  23.159   5.288  0.00  0.00     0.251 S 
ATOM    184  C4  SGN d 248      47.430  25.363   6.211  0.00  0.00     0.095 C 
ATOM    185  C6  SGN d 248      44.881  25.580   5.737  0.00  0.00     0.067 C 
ATOM    186  O6S SGN d 248      45.945  23.196   6.730  0.00  0.00    -0.572 OA
ATOM    187  O3S SGN d 248      48.688  22.907  10.673  0.00  0.00    -0.296 OA
ATOM    188  O5  SGN d 248      45.702  25.057   7.957  0.00  0.00    -0.349 OA
ATOM    189  C2  SGN d 248      48.080  24.843   8.566  0.00  0.00     0.081 C 
ATOM    190  C3  SGN d 248      48.462  25.637   7.307  0.00  0.00     0.083 C 
ATOM    191  C1  SGN d 248      46.644  25.292   9.000  0.00  0.00     0.150 C 
ATOM    192  O6  SGN d 248      45.223  24.537   4.878  0.00  0.00    -0.254 OA
ATOM    193  C5  SGN d 248      46.023  25.810   6.739  0.00  0.00     0.091 C 
ATOM    194  H   SGN d 248      50.627  25.253  11.793  0.00  0.00     0.231 HD
ATOM    195  H   SGN d 248      49.987  25.732   6.069  0.00  0.00     0.210 HD
ATOM    196  H   SGN d 248      51.562  24.158   9.915  0.00  0.00     0.231 HD
ATOM    197  H   SGN d 248      49.855  25.598   9.195  0.00  0.00     0.140 HD
ATOM    198  H   SGN d 248      47.391  24.326   5.951  0.00  0.00     0.091 H 
ATOM    199  H   SGN d 248      44.720  26.472   5.168  0.00  0.00     0.080 H 
ATOM    200  H   SGN d 248      43.986  25.330   6.266  0.00  0.00     0.080 H 
ATOM    201  H   SGN d 248      47.896  23.263  11.107  0.00  0.00     0.231 HD
ATOM    202  H   SGN d 248      48.089  23.791   8.373  0.00  0.00     0.076 H 
ATOM    203  H   SGN d 248      48.480  26.683   7.530  0.00  0.00     0.089 H 
ATOM    204  H   SGN d 248      46.359  24.744   9.874  0.00  0.00     0.131 H 
ATOM    205  H   SGN d 248      46.095  26.864   6.915  0.00  0.00     0.090 H 
ENDROOT
TORSDOF 64
ENDMDL
MODEL 30
REMARK VINA RESULT:       1.0      3.542     18.597
REMARK  0 active torsions:
REMARK  status: ('A' for Active; 'I' for Inactive)
REMARK       I    between atoms: C5_1  and  C6_97 
REMARK       I    between atoms: O2_2  and  C2_107 
REMARK       I    between atoms: O2_2  and  S_88 
REMARK       I    between atoms: O3_4  and  C3_95 
REMARK       I    between atoms: C1_5  and  O1_40 
REMARK       I    between atoms: C3_6  and  C2_70 
REMARK       I    between atoms: C3_6  and  O3_51 
REMARK       I    between atoms: C2_7  and  O2_9 
REMARK       I    between atoms: C2_8  and  O2_75 
REMARK       I    between atoms: O2_9  and  S_23 
REMARK       I    between atoms: S2_14  and  O6_117 
REMARK       I    between atoms: C1_15  and  O1_130 
REMARK       I    between atoms: C4_16  and  O1_59 
REMARK       I    between atoms: S1_17  and  N_128 
REMARK       I    between atoms: S1_17  and  O1S_46 
REMARK       I    between atoms: S1_17  and  O2S_29 
REMARK       I    between atoms: S1_17  and  O3S_24 
REMARK       I    between atoms: C2_18  and  N_86 
REMARK       I    between atoms: S1_19  and  N_86 
REMARK       I    between atoms: S1_19  and  O1S_71 
REMARK       I    between atoms: S1_19  and  O2S_34 
REMARK       I    between atoms: S1_19  and  O3S_81 
REMARK       I    between atoms: O2S_22  and  S1_111 
REMARK       I    between atoms: C1_25  and  O1_58 
REMARK       I    between atoms: C4_27  and  O1_58 
REMARK       I    between atoms: O2S_28  and  S1_48 
REMARK       I    between atoms: O3_32  and  C3_49 
REMARK       I    between atoms: O2_33  and  C2_70 
REMARK       I    between atoms: O2_33  and  S_133 
REMARK       I    between atoms: C5_37  and  C6_84 
REMARK       I    between atoms: C5_41  and  C6_43 
REMARK       I    between atoms: O6_42  and  C6_84 
REMARK       I    between atoms: O6_42  and  S2_77 
REMARK       I    between atoms: C5_44  and  C6_108 
REMARK       I    between atoms: O1_45  and  C1_120 
REMARK       I    between atoms: O1_45  and  C4_114 
REMARK       I    between atoms: S2_47  and  O6_94 
REMARK       I    between atoms: S1_48  and  N_53 
REMARK       I    between atoms: S1_48  and  O1S_52 
REMARK       I    between atoms: S1_48  and  O3S_83 
REMARK       I    between atoms: O3_50  and  C3_119 
REMARK       I    between atoms: N_53  and  C2_89 
REMARK       I    between atoms: S_55  and  O2_75 
REMARK       I    between atoms: O3_56  and  C3_124 
REMARK       I    between atoms: O1_59  and  C1_110 
REMARK       I    between atoms: S2_60  and  O6_132 
REMARK       I    between atoms: O3_61  and  C3_115 
REMARK       I    between atoms: C6_62  and  C5_106 
REMARK       I    between atoms: C6_62  and  O6_94 
REMARK       I    between atoms: C4_63  and  O1_96 
REMARK       I    between atoms: O3_67  and  C3_93 
REMARK       I    between atoms: O1_69  and  C1_113 
REMARK       I    between atoms: O1_69  and  C4_103 
REMARK       I    between atoms: C2_70  and  C1_76 
REMARK       I    between atoms: C5_74  and  C6_90 
REMARK       I    between atoms: C1_76  and  O1_96 
REMARK       I    between atoms: C4_78  and  O1_112 
REMARK       I    between atoms: C6_80  and  C5_134 
REMARK       I    between atoms: C6_80  and  O6_132 
REMARK       I    between atoms: C6_90  and  O6_117 
REMARK       I    between atoms: C2_98  and  N_128 
REMARK       I    between atoms: C1_100  and  O1_112 
REMARK       I    between atoms: S1_111  and  O1S_116 
REMARK       I    between atoms: C4_127  and  O1_130 
ROOT
ATOM      1  C5  IDS d 249      48.555  22.826   6.517  0.00  0.00     0.152 C 
ATOM      2  O2  IDS d 249      49.787  25.028   3.241  0.00  0.00    -0.244 OA
ATOM      3  O1S IDS d 249      49.216  27.336   3.765  0.00  0.00    -0.572 OA
ATOM      4  O5  IDS d 249      49.907  23.339   6.466  0.00  0.00    -0.340 OA
ATOM      5  O1  IDS d 249      50.835  22.431   4.565  0.00  0.00    -0.348 OA
ATOM      6  O62 IDS d 249      48.840  22.634   8.909  0.00  0.00    -0.646 OA
ATOM      7  O3  IDS d 249      46.933  24.930   4.430  0.00  0.00    -0.390 OA
ATOM      8  S   IDS d 249      50.383  26.507   3.513  0.00  0.00     0.252 S 
ATOM      9  C3  IDS d 249      48.178  24.827   4.979  0.00  0.00     0.094 C 
ATOM     10  C6  IDS d 249      48.297  22.204   7.907  0.00  0.00     0.206 C 
ATOM     11  O3S IDS d 249      51.087  26.883   2.306  0.00  0.00    -0.572 OA
ATOM     12  C2  IDS d 249      49.258  24.100   4.212  0.00  0.00     0.134 C 
ATOM     13  C1  IDS d 249      50.385  23.594   5.152  0.00  0.00     0.161 C 
ATOM     14  C4  IDS d 249      47.594  24.015   6.166  0.00  0.00     0.103 C 
ATOM     15  O2S IDS d 249      51.244  26.430   4.668  0.00  0.00    -0.572 OA
ATOM     16  O61 IDS d 249      47.532  21.247   8.030  0.00  0.00    -0.646 OA
ATOM     17  H   IDS d 249      48.385  22.042   5.809  0.00  0.00     0.104 H 
ATOM     18  H   IDS d 249      46.985  25.433   3.602  0.00  0.00     0.210 HD
ATOM     19  H   IDS d 249      48.736  25.729   5.121  0.00  0.00     0.091 H 
ATOM     20  H   IDS d 249      48.847  23.235   3.735  0.00  0.00     0.097 H 
ATOM     21  H   IDS d 249      51.158  24.326   5.263  0.00  0.00     0.133 H 
ATOM     22  H   IDS d 249      46.582  23.788   5.905  0.00  0.00     0.092 H 
ATOM     23  O3  SGN d 246      49.748  31.061  17.364  0.00  0.00    -0.215 OA
ATOM     24  S2  SGN d 246      49.151  36.901  14.421  0.00  0.00     0.251 S 
ATOM     25  O6S SGN d 246      50.381  36.402  13.871  0.00  0.00    -0.572 OA
ATOM     26  O2S SGN d 246      53.633  30.546  17.177  0.00  0.00    -0.294 OA
ATOM     27  C3  SGN d 246      49.607  31.550  16.048  0.00  0.00     0.121 C 
ATOM     28  C2  SGN d 246      50.981  31.921  15.470  0.00  0.00     0.084 C 
ATOM     29  O4S SGN d 246      48.239  37.384  13.419  0.00  0.00    -0.572 OA
ATOM     30  O5S SGN d 246      49.362  37.838  15.496  0.00  0.00    -0.572 OA
ATOM     31  N   SGN d 246      51.846  30.741  15.452  0.00  0.00    -0.208 NA
ATOM     32  C4  SGN d 246      48.765  32.796  16.074  0.00  0.00     0.095 C 
ATOM     33  O1  SGN d 246      50.193  31.521  13.164  0.00  0.00    -0.348 OA
ATOM     34  C5  SGN d 246      48.614  33.345  14.593  0.00  0.00     0.091 C 
ATOM     35  C6  SGN d 246      47.786  34.648  14.469  0.00  0.00     0.067 C 
ATOM     36  S1  SGN d 246      52.314  30.038  16.861  0.00  0.00     0.188 S 
ATOM     37  C1  SGN d 246      50.803  32.493  13.995  0.00  0.00     0.151 C 
ATOM     38  O1S SGN d 246      52.290  28.602  16.661  0.00  0.00    -0.294 OA
ATOM     39  O6  SGN d 246      48.471  35.696  15.100  0.00  0.00    -0.254 OA
ATOM     40  O5  SGN d 246      49.944  33.632  14.022  0.00  0.00    -0.349 OA
ATOM     41  O3S SGN d 246      51.319  30.468  17.821  0.00  0.00    -0.119 OA
ATOM     42  H   SGN d 246      54.267  30.236  16.512  0.00  0.00     0.231 HD
ATOM     43  H   SGN d 246      49.153  30.791  15.445  0.00  0.00     0.095 H 
ATOM     44  H   SGN d 246      51.433  32.672  16.084  0.00  0.00     0.077 H 
ATOM     45  H   SGN d 246      52.699  31.009  14.961  0.00  0.00     0.140 HD
ATOM     46  H   SGN d 246      49.209  33.573  16.661  0.00  0.00     0.091 H 
ATOM     47  H   SGN d 246      48.095  32.570  14.070  0.00  0.00     0.090 H 
ATOM     48  H   SGN d 246      46.833  34.511  14.937  0.00  0.00     0.080 H 
ATOM     49  H   SGN d 246      47.645  34.884  13.435  0.00  0.00     0.080 H 
ATOM     50  H   SGN d 246      51.770  32.752  13.617  0.00  0.00     0.131 H 
ATOM     51  H   SGN d 246      52.969  28.354  16.014  0.00  0.00     0.231 HD
ATOM     52  O3  SGN d 250      51.349  20.187   6.187  0.00  0.00    -0.391 OA
ATOM     53  O5S SGN d 250      55.062  24.710   0.518  0.00  0.00    -0.572 OA
ATOM     54  C4  SGN d 250      52.162  22.000   4.806  0.00  0.00     0.095 C 
ATOM     55  S1  SGN d 250      53.480  17.757   6.914  0.00  0.00     0.156 S 
ATOM     56  O3S SGN d 250      54.695  16.953   6.980  0.00  0.00    -0.296 OA
ATOM     57  C1  SGN d 250      54.345  20.338   3.907  0.00  0.00     0.150 C 
ATOM     58  O2S SGN d 250      52.261  16.930   6.913  0.00  0.00    -0.296 OA
ATOM     59  C5  SGN d 250      53.048  22.322   3.554  0.00  0.00     0.091 C 
ATOM     60  O6  SGN d 250      53.251  24.039   1.899  0.00  0.00    -0.254 OA
ATOM     61  O1S SGN d 250      53.478  18.798   7.929  0.00  0.00    -0.296 OA
ATOM     62  O1  SGN d 250      53.505  19.930   2.843  0.00  0.00    -0.348 OA
ATOM     63  S2  SGN d 250      53.920  25.264   1.197  0.00  0.00     0.251 S 
ATOM     64  C6  SGN d 250      53.166  23.825   3.276  0.00  0.00     0.067 C 
ATOM     65  C3  SGN d 250      52.129  20.473   5.034  0.00  0.00     0.083 C 
ATOM     66  C2  SGN d 250      53.583  19.959   5.236  0.00  0.00     0.081 C 
ATOM     67  O6S SGN d 250      52.927  25.782   0.268  0.00  0.00    -0.572 OA
ATOM     68  O5  SGN d 250      54.403  21.768   3.766  0.00  0.00    -0.349 OA
ATOM     69  O4S SGN d 250      54.291  26.210   2.237  0.00  0.00    -0.572 OA
ATOM     70  N   SGN d 250      53.545  18.470   5.411  0.00  0.00    -0.210 NA
ATOM     71  H   SGN d 250      50.445  20.511   6.054  0.00  0.00     0.210 HD
ATOM     72  H   SGN d 250      52.573  22.497   5.660  0.00  0.00     0.091 H 
ATOM     73  H   SGN d 250      55.469  17.538   6.978  0.00  0.00     0.231 HD
ATOM     74  H   SGN d 250      55.321  19.900   3.913  0.00  0.00     0.131 H 
ATOM     75  H   SGN d 250      51.481  17.504   6.868  0.00  0.00     0.231 HD
ATOM     76  H   SGN d 250      52.571  21.876   2.707  0.00  0.00     0.090 H 
ATOM     77  H   SGN d 250      52.660  19.314   7.861  0.00  0.00     0.231 HD
ATOM     78  H   SGN d 250      54.046  24.207   3.751  0.00  0.00     0.080 H 
ATOM     79  H   SGN d 250      52.305  24.329   3.662  0.00  0.00     0.080 H 
ATOM     80  H   SGN d 250      51.695  19.985   4.186  0.00  0.00     0.089 H 
ATOM     81  H   SGN d 250      54.062  20.382   6.094  0.00  0.00     0.076 H 
ATOM     82  H   SGN d 250      52.721  18.145   4.905  0.00  0.00     0.140 HD
ATOM     83  C1  SGN d 252      50.544  18.834  -4.711  0.00  0.00     0.147 C 
ATOM     84  C2  SGN d 252      50.682  19.942  -3.643  0.00  0.00     0.081 C 
ATOM     85  S1  SGN d 252      50.721  22.406  -4.785  0.00  0.00     0.156 S 
ATOM     86  O3  SGN d 252      51.485  20.333  -1.464  0.00  0.00    -0.391 OA
ATOM     87  O2S SGN d 252      50.267  23.148  -3.626  0.00  0.00    -0.296 OA
ATOM     88  O1  SGN d 252      51.860  18.380  -5.089  0.00  0.00    -0.369 OA
ATOM     89  S2  SGN d 252      46.883  16.064  -1.641  0.00  0.00     0.251 S 
ATOM     90  C3  SGN d 252      51.361  19.334  -2.419  0.00  0.00     0.083 C 
ATOM     91  C6  SGN d 252      49.375  15.939  -2.648  0.00  0.00     0.067 C 
ATOM     92  O6S SGN d 252      46.469  15.881  -3.029  0.00  0.00    -0.572 OA
ATOM     93  O1S SGN d 252      49.631  21.945  -5.625  0.00  0.00    -0.296 OA
ATOM     94  O3S SGN d 252      51.727  23.141  -5.549  0.00  0.00    -0.296 OA
ATOM     95  N   SGN d 252      51.500  21.062  -4.196  0.00  0.00    -0.210 NA
ATOM     96  O5  SGN d 252      49.753  17.731  -4.185  0.00  0.00    -0.350 OA
ATOM     97  O6  SGN d 252      48.440  16.355  -1.676  0.00  0.00    -0.254 OA
ATOM     98  O5S SGN d 252      46.315  17.268  -1.044  0.00  0.00    -0.572 OA
ATOM     99  C5  SGN d 252      50.295  17.117  -2.995  0.00  0.00     0.091 C 
ATOM    100  C4  SGN d 252      50.451  18.179  -1.862  0.00  0.00     0.095 C 
ATOM    101  O4S SGN d 252      46.680  14.876  -0.823  0.00  0.00    -0.572 OA
ATOM    102  H   SGN d 252      50.044  19.222  -5.574  0.00  0.00     0.131 H 
ATOM    103  H   SGN d 252      49.724  20.331  -3.367  0.00  0.00     0.076 H 
ATOM    104  H   SGN d 252      52.047  21.044  -1.811  0.00  0.00     0.210 HD
ATOM    105  H   SGN d 252      49.603  22.627  -3.149  0.00  0.00     0.231 HD
ATOM    106  H   SGN d 252      52.316  18.027  -4.309  0.00  0.00     0.212 HD
ATOM    107  H   SGN d 252      52.323  18.938  -2.667  0.00  0.00     0.089 H 
ATOM    108  H   SGN d 252      49.959  15.130  -2.261  0.00  0.00     0.080 H 
ATOM    109  H   SGN d 252      48.860  15.612  -3.527  0.00  0.00     0.080 H 
ATOM    110  H   SGN d 252      48.986  21.464  -5.083  0.00  0.00     0.231 HD
ATOM    111  H   SGN d 252      52.002  22.611  -6.314  0.00  0.00     0.231 HD
ATOM    112  H   SGN d 252      52.055  20.678  -4.960  0.00  0.00     0.140 HD
ATOM    113  H   SGN d 252      51.283  16.735  -3.141  0.00  0.00     0.090 H 
ATOM    114  H   SGN d 252      49.509  18.583  -1.554  0.00  0.00     0.091 H 
ATOM    115  C3  IDS d 245      45.940  34.572  19.138  0.00  0.00     0.044 C 
ATOM    116  O2S IDS d 245      44.295  33.729  14.945  0.00  0.00    -0.572 OA
ATOM    117  O2  IDS d 245      45.756  34.429  16.778  0.00  0.00    -0.247 OA
ATOM    118  O3S IDS d 245      43.376  34.795  16.917  0.00  0.00    -0.572 OA
ATOM    119  O3  IDS d 245      44.698  35.228  19.230  0.00  0.00    -0.398 OA
ATOM    120  C2  IDS d 245      45.927  33.646  17.959  0.00  0.00     0.100 C 
ATOM    121  C1  IDS d 245      47.272  32.966  17.934  0.00  0.00     0.048 C 
ATOM    122  O1  IDS d 245      47.501  32.444  16.650  0.00  0.00    -0.378 OA
ATOM    123  O1S IDS d 245      44.732  36.063  15.369  0.00  0.00    -0.572 OA
ATOM    124  S   IDS d 245      44.454  34.759  15.956  0.00  0.00     0.252 S 
ATOM    125  H   IDS d 245      46.718  35.295  19.015  0.00  0.00     0.078 H 
ATOM    126  H   IDS d 245      46.115  34.010  20.031  0.00  0.00     0.078 H 
ATOM    127  H   IDS d 245      44.540  35.737  18.420  0.00  0.00     0.209 HD
ATOM    128  H   IDS d 245      45.140  32.924  18.016  0.00  0.00     0.092 H 
ATOM    129  H   IDS d 245      47.285  32.171  18.651  0.00  0.00     0.078 H 
ATOM    130  H   IDS d 245      48.037  33.672  18.179  0.00  0.00     0.078 H 
ATOM    131  C2  IDS d 247      51.178  28.251  12.059  0.00  0.00     0.134 C 
ATOM    132  O2  IDS d 247      51.587  27.125  12.865  0.00  0.00    -0.244 OA
ATOM    133  S   IDS d 247      53.056  26.437  12.984  0.00  0.00     0.252 S 
ATOM    134  C5  IDS d 247      49.912  30.447  11.032  0.00  0.00     0.152 C 
ATOM    135  O1S IDS d 247      53.713  26.789  11.740  0.00  0.00    -0.572 OA
ATOM    136  O3  IDS d 247      52.828  29.616  13.137  0.00  0.00    -0.390 OA
ATOM    137  O3S IDS d 247      52.844  24.992  13.114  0.00  0.00    -0.572 OA
ATOM    138  O62 IDS d 247      47.832  31.625  10.747  0.00  0.00    -0.646 OA
ATOM    139  O61 IDS d 247      49.534  32.624  10.075  0.00  0.00    -0.646 OA
ATOM    140  O5  IDS d 247      49.051  29.379  11.503  0.00  0.00    -0.340 OA
ATOM    141  O2S IDS d 247      53.721  27.017  14.131  0.00  0.00    -0.572 OA
ATOM    142  C1  IDS d 247      49.686  28.112  11.695  0.00  0.00     0.161 C 
ATOM    143  C4  IDS d 247      50.938  30.808  12.180  0.00  0.00     0.103 C 
ATOM    144  C6  IDS d 247      49.036  31.634  10.589  0.00  0.00     0.206 C 
ATOM    145  O1  IDS d 247      49.647  27.342  10.548  0.00  0.00    -0.348 OA
ATOM    146  C3  IDS d 247      51.435  29.510  12.868  0.00  0.00     0.094 C 
ATOM    147  H   IDS d 247      51.729  28.293  11.143  0.00  0.00     0.097 H 
ATOM    148  H   IDS d 247      50.487  30.153  10.179  0.00  0.00     0.104 H 
ATOM    149  H   IDS d 247      53.138  28.803  13.567  0.00  0.00     0.210 HD
ATOM    150  H   IDS d 247      49.143  27.654  12.495  0.00  0.00     0.133 H 
ATOM    151  H   IDS d 247      51.765  31.358  11.784  0.00  0.00     0.092 H 
ATOM    152  H   IDS d 247      50.873  29.415  13.773  0.00  0.00     0.091 H 
ATOM    153  C2  IDS d 251      51.827  17.077   1.526  0.00  0.00     0.134 C 
ATOM    154  C1  IDS d 251      51.098  18.102   0.612  0.00  0.00     0.161 C 
ATOM    155  O62 IDS d 251      55.061  20.730  -0.077  0.00  0.00    -0.646 OA
ATOM    156  C4  IDS d 251      53.689  18.802   2.086  0.00  0.00     0.103 C 
ATOM    157  C5  IDS d 251      53.259  19.259   0.659  0.00  0.00     0.152 C 
ATOM    158  C6  IDS d 251      53.885  20.630   0.229  0.00  0.00     0.206 C 
ATOM    159  S   IDS d 251      49.527  16.683   2.986  0.00  0.00     0.252 S 
ATOM    160  O3  IDS d 251      53.339  16.789   3.379  0.00  0.00    -0.390 OA
ATOM    161  O61 IDS d 251      53.197  21.655   0.198  0.00  0.00    -0.646 OA
ATOM    162  O3S IDS d 251      48.841  15.438   3.244  0.00  0.00    -0.572 OA
ATOM    163  O2  IDS d 251      50.880  16.251   2.208  0.00  0.00    -0.244 OA
ATOM    164  O2S IDS d 251      48.774  17.582   2.131  0.00  0.00    -0.572 OA
ATOM    165  O5  IDS d 251      51.791  19.361   0.652  0.00  0.00    -0.340 OA
ATOM    166  C3  IDS d 251      52.663  17.769   2.613  0.00  0.00     0.094 C 
ATOM    167  O1S IDS d 251      49.983  17.340   4.203  0.00  0.00    -0.572 OA
ATOM    168  O1  IDS d 251      51.092  17.519  -0.704  0.00  0.00    -0.348 OA
ATOM    169  H   IDS d 251      52.459  16.503   0.882  0.00  0.00     0.097 H 
ATOM    170  H   IDS d 251      50.096  18.301   0.929  0.00  0.00     0.133 H 
ATOM    171  H   IDS d 251      54.676  18.389   2.107  0.00  0.00     0.092 H 
ATOM    172  H   IDS d 251      53.617  18.537  -0.046  0.00  0.00     0.104 H 
ATOM    173  H   IDS d 251      52.699  16.141   3.710  0.00  0.00     0.210 HD
ATOM    174  H   IDS d 251      51.966  18.324   3.206  0.00  0.00     0.091 H 
ATOM    175  O5S SGN d 248      47.165  27.940  12.380  0.00  0.00    -0.572 OA
ATOM    176  O4S SGN d 248      45.866  26.268  13.553  0.00  0.00    -0.572 OA
ATOM    177  O2S SGN d 248      45.353  27.532   4.633  0.00  0.00    -0.296 OA
ATOM    178  O1  SGN d 248      47.898  24.815   7.518  0.00  0.00    -0.348 OA
ATOM    179  S1  SGN d 248      45.401  27.968   6.023  0.00  0.00     0.156 S 
ATOM    180  O3  SGN d 248      48.330  28.774   8.547  0.00  0.00    -0.391 OA
ATOM    181  O1S SGN d 248      45.490  29.404   6.181  0.00  0.00    -0.296 OA
ATOM    182  N   SGN d 248      46.784  27.296   6.638  0.00  0.00    -0.210 NA
ATOM    183  S2  SGN d 248      46.666  26.576  12.382  0.00  0.00     0.251 S 
ATOM    184  C4  SGN d 248      48.377  26.914  10.078  0.00  0.00     0.095 C 
ATOM    185  C6  SGN d 248      48.372  24.760  11.539  0.00  0.00     0.067 C 
ATOM    186  O6S SGN d 248      46.020  26.212  11.136  0.00  0.00    -0.572 OA
ATOM    187  O3S SGN d 248      44.309  27.421   6.805  0.00  0.00    -0.296 OA
ATOM    188  O5  SGN d 248      46.980  24.936   9.562  0.00  0.00    -0.349 OA
ATOM    189  C2  SGN d 248      46.895  26.894   8.069  0.00  0.00     0.081 C 
ATOM    190  C3  SGN d 248      48.250  27.359   8.620  0.00  0.00     0.083 C 
ATOM    191  C1  SGN d 248      46.830  25.335   8.203  0.00  0.00     0.150 C 
ATOM    192  O6  SGN d 248      47.951  25.712  12.467  0.00  0.00    -0.254 OA
ATOM    193  C5  SGN d 248      48.272  25.350  10.124  0.00  0.00     0.091 C 
ATOM    194  H   SGN d 248      46.099  27.919   4.147  0.00  0.00     0.231 HD
ATOM    195  H   SGN d 248      49.186  29.068   8.895  0.00  0.00     0.210 HD
ATOM    196  H   SGN d 248      46.227  29.742   5.649  0.00  0.00     0.231 HD
ATOM    197  H   SGN d 248      47.530  27.973   6.473  0.00  0.00     0.140 HD
ATOM    198  H   SGN d 248      47.607  27.332  10.691  0.00  0.00     0.091 H 
ATOM    199  H   SGN d 248      49.387  24.489  11.742  0.00  0.00     0.080 H 
ATOM    200  H   SGN d 248      47.752  23.892  11.610  0.00  0.00     0.080 H 
ATOM    201  H   SGN d 248      44.273  26.460   6.681  0.00  0.00     0.231 HD
ATOM    202  H   SGN d 248      46.086  27.339   8.612  0.00  0.00     0.076 H 
ATOM    203  H   SGN d 248      49.042  26.931   8.043  0.00  0.00     0.089 H 
ATOM    204  H   SGN d 248      45.888  24.993   7.828  0.00  0.00     0.131 H 
ATOM    205  H   SGN d 248      49.102  24.981   9.557  0.00  0.00     0.090 H 
ENDROOT
TORSDOF 64
ENDMDL
MODEL 31
REMARK VINA RESULT:       1.3      3.328     18.182
REMARK  0 active torsions:
REMARK  status: ('A' for Active; 'I' for Inactive)
REMARK       I    between atoms: C5_1  and  C6_97 
REMARK       I    between atoms: O2_2  and  C2_107 
REMARK       I    between atoms: O2_2  and  S_88 
REMARK       I    between atoms: O3_4  and  C3_95 
REMARK       I    between atoms: C1_5  and  O1_40 
REMARK       I    between atoms: C3_6  and  C2_70 
REMARK       I    between atoms: C3_6  and  O3_51 
REMARK       I    between atoms: C2_7  and  O2_9 
REMARK       I    between atoms: C2_8  and  O2_75 
REMARK       I    between atoms: O2_9  and  S_23 
REMARK       I    between atoms: S2_14  and  O6_117 
REMARK       I    between atoms: C1_15  and  O1_130 
REMARK       I    between atoms: C4_16  and  O1_59 
REMARK       I    between atoms: S1_17  and  N_128 
REMARK       I    between atoms: S1_17  and  O1S_46 
REMARK       I    between atoms: S1_17  and  O2S_29 
REMARK       I    between atoms: S1_17  and  O3S_24 
REMARK       I    between atoms: C2_18  and  N_86 
REMARK       I    between atoms: S1_19  and  N_86 
REMARK       I    between atoms: S1_19  and  O1S_71 
REMARK       I    between atoms: S1_19  and  O2S_34 
REMARK       I    between atoms: S1_19  and  O3S_81 
REMARK       I    between atoms: O2S_22  and  S1_111 
REMARK       I    between atoms: C1_25  and  O1_58 
REMARK       I    between atoms: C4_27  and  O1_58 
REMARK       I    between atoms: O2S_28  and  S1_48 
REMARK       I    between atoms: O3_32  and  C3_49 
REMARK       I    between atoms: O2_33  and  C2_70 
REMARK       I    between atoms: O2_33  and  S_133 
REMARK       I    between atoms: C5_37  and  C6_84 
REMARK       I    between atoms: C5_41  and  C6_43 
REMARK       I    between atoms: O6_42  and  C6_84 
REMARK       I    between atoms: O6_42  and  S2_77 
REMARK       I    between atoms: C5_44  and  C6_108 
REMARK       I    between atoms: O1_45  and  C1_120 
REMARK       I    between atoms: O1_45  and  C4_114 
REMARK       I    between atoms: S2_47  and  O6_94 
REMARK       I    between atoms: S1_48  and  N_53 
REMARK       I    between atoms: S1_48  and  O1S_52 
REMARK       I    between atoms: S1_48  and  O3S_83 
REMARK       I    between atoms: O3_50  and  C3_119 
REMARK       I    between atoms: N_53  and  C2_89 
REMARK       I    between atoms: S_55  and  O2_75 
REMARK       I    between atoms: O3_56  and  C3_124 
REMARK       I    between atoms: O1_59  and  C1_110 
REMARK       I    between atoms: S2_60  and  O6_132 
REMARK       I    between atoms: O3_61  and  C3_115 
REMARK       I    between atoms: C6_62  and  C5_106 
REMARK       I    between atoms: C6_62  and  O6_94 
REMARK       I    between atoms: C4_63  and  O1_96 
REMARK       I    between atoms: O3_67  and  C3_93 
REMARK       I    between atoms: O1_69  and  C1_113 
REMARK       I    between atoms: O1_69  and  C4_103 
REMARK       I    between atoms: C2_70  and  C1_76 
REMARK       I    between atoms: C5_74  and  C6_90 
REMARK       I    between atoms: C1_76  and  O1_96 
REMARK       I    between atoms: C4_78  and  O1_112 
REMARK       I    between atoms: C6_80  and  C5_134 
REMARK       I    between atoms: C6_80  and  O6_132 
REMARK       I    between atoms: C6_90  and  O6_117 
REMARK       I    between atoms: C2_98  and  N_128 
REMARK       I    between atoms: C1_100  and  O1_112 
REMARK       I    between atoms: S1_111  and  O1S_116 
REMARK       I    between atoms: C4_127  and  O1_130 
ROOT
ATOM      1  C5  IDS d 249      46.845  25.298   3.838  0.00  0.00     0.152 C 
ATOM      2  O2  IDS d 249      49.457  22.614   5.591  0.00  0.00    -0.244 OA
ATOM      3  O1S IDS d 249      50.233  23.705   7.625  0.00  0.00    -0.572 OA
ATOM      4  O5  IDS d 249      46.339  24.301   4.756  0.00  0.00    -0.340 OA
ATOM      5  O1  IDS d 249      46.925  22.272   3.840  0.00  0.00    -0.348 OA
ATOM      6  O62 IDS d 249      44.820  26.548   4.259  0.00  0.00    -0.646 OA
ATOM      7  O3  IDS d 249      50.080  25.535   4.783  0.00  0.00    -0.390 OA
ATOM      8  S   IDS d 249      49.479  22.535   7.207  0.00  0.00     0.252 S 
ATOM      9  C3  IDS d 249      48.951  24.908   5.225  0.00  0.00     0.094 C 
ATOM     10  C6  IDS d 249      45.709  26.278   3.471  0.00  0.00     0.206 C 
ATOM     11  O3S IDS d 249      50.143  21.293   7.537  0.00  0.00    -0.572 OA
ATOM     12  C2  IDS d 249      48.671  23.497   4.764  0.00  0.00     0.134 C 
ATOM     13  C1  IDS d 249      47.162  23.147   4.877  0.00  0.00     0.161 C 
ATOM     14  C4  IDS d 249      48.075  25.984   4.531  0.00  0.00     0.103 C 
ATOM     15  O2S IDS d 249      48.114  22.585   7.669  0.00  0.00    -0.572 OA
ATOM     16  O61 IDS d 249      45.677  26.807   2.360  0.00  0.00    -0.646 OA
ATOM     17  H   IDS d 249      47.178  24.875   2.914  0.00  0.00     0.104 H 
ATOM     18  H   IDS d 249      50.861  25.048   5.090  0.00  0.00     0.210 HD
ATOM     19  H   IDS d 249      48.877  24.695   6.271  0.00  0.00     0.091 H 
ATOM     20  H   IDS d 249      48.931  23.392   3.731  0.00  0.00     0.097 H 
ATOM     21  H   IDS d 249      46.930  22.727   5.834  0.00  0.00     0.133 H 
ATOM     22  H   IDS d 249      48.737  26.565   3.925  0.00  0.00     0.092 H 
ATOM     23  O3  SGN d 246      41.105  32.324  14.065  0.00  0.00    -0.215 OA
ATOM     24  S2  SGN d 246      45.815  31.764  18.605  0.00  0.00     0.251 S 
ATOM     25  O6S SGN d 246      45.374  30.406  18.449  0.00  0.00    -0.572 OA
ATOM     26  O2S SGN d 246      38.939  29.152  14.869  0.00  0.00    -0.294 OA
ATOM     27  C3  SGN d 246      42.352  31.678  14.190  0.00  0.00     0.121 C 
ATOM     28  C2  SGN d 246      42.178  30.315  14.875  0.00  0.00     0.084 C 
ATOM     29  O4S SGN d 246      47.245  31.906  18.530  0.00  0.00    -0.572 OA
ATOM     30  O5S SGN d 246      45.240  32.406  19.761  0.00  0.00    -0.572 OA
ATOM     31  N   SGN d 246      41.281  29.473  14.081  0.00  0.00    -0.208 NA
ATOM     32  C4  SGN d 246      43.255  32.517  15.054  0.00  0.00     0.095 C 
ATOM     33  O1  SGN d 246      44.191  29.421  13.759  0.00  0.00    -0.348 OA
ATOM     34  C5  SGN d 246      44.655  31.784  15.197  0.00  0.00     0.091 C 
ATOM     35  C6  SGN d 246      45.683  32.525  16.086  0.00  0.00     0.067 C 
ATOM     36  S1  SGN d 246      39.705  29.896  13.889  0.00  0.00     0.188 S 
ATOM     37  C1  SGN d 246      43.597  29.609  15.031  0.00  0.00     0.151 C 
ATOM     38  O1S SGN d 246      39.334  29.587  12.522  0.00  0.00    -0.294 OA
ATOM     39  O6  SGN d 246      45.227  32.542  17.412  0.00  0.00    -0.254 OA
ATOM     40  O5  SGN d 246      44.467  30.446  15.791  0.00  0.00    -0.349 OA
ATOM     41  O3S SGN d 246      39.685  31.320  14.147  0.00  0.00    -0.119 OA
ATOM     42  H   SGN d 246      38.979  28.206  14.659  0.00  0.00     0.231 HD
ATOM     43  H   SGN d 246      42.771  31.543  13.214  0.00  0.00     0.095 H 
ATOM     44  H   SGN d 246      41.749  30.457  15.846  0.00  0.00     0.077 H 
ATOM     45  H   SGN d 246      41.286  28.549  14.514  0.00  0.00     0.140 HD
ATOM     46  H   SGN d 246      42.861  32.651  16.039  0.00  0.00     0.091 H 
ATOM     47  H   SGN d 246      45.042  31.746  14.201  0.00  0.00     0.090 H 
ATOM     48  H   SGN d 246      45.800  33.530  15.736  0.00  0.00     0.080 H 
ATOM     49  H   SGN d 246      46.626  32.020  16.039  0.00  0.00     0.080 H 
ATOM     50  H   SGN d 246      43.451  28.668  15.517  0.00  0.00     0.131 H 
ATOM     51  H   SGN d 246      39.359  28.626  12.390  0.00  0.00     0.231 HD
ATOM     52  O3  SGN d 250      44.591  22.575   2.294  0.00  0.00    -0.391 OA
ATOM     53  O5S SGN d 250      48.516  16.818   6.517  0.00  0.00    -0.572 OA
ATOM     54  C4  SGN d 250      45.861  21.343   3.944  0.00  0.00     0.095 C 
ATOM     55  S1  SGN d 250      41.981  21.052   0.938  0.00  0.00     0.156 S 
ATOM     56  O3S SGN d 250      40.971  20.047   0.626  0.00  0.00    -0.296 OA
ATOM     57  C1  SGN d 250      44.732  18.871   2.971  0.00  0.00     0.150 C 
ATOM     58  O2S SGN d 250      42.337  21.870  -0.233  0.00  0.00    -0.296 OA
ATOM     59  C5  SGN d 250      46.441  19.926   4.278  0.00  0.00     0.091 C 
ATOM     60  O6  SGN d 250      48.213  18.976   5.576  0.00  0.00    -0.254 OA
ATOM     61  O1S SGN d 250      41.606  21.835   2.105  0.00  0.00    -0.296 OA
ATOM     62  O1  SGN d 250      45.837  18.793   2.090  0.00  0.00    -0.348 OA
ATOM     63  S2  SGN d 250      48.833  18.197   6.780  0.00  0.00     0.251 S 
ATOM     64  C6  SGN d 250      47.145  19.873   5.639  0.00  0.00     0.067 C 
ATOM     65  C3  SGN d 250      45.140  21.296   2.580  0.00  0.00     0.083 C 
ATOM     66  C2  SGN d 250      44.005  20.234   2.643  0.00  0.00     0.081 C 
ATOM     67  O6S SGN d 250      50.265  18.451   6.724  0.00  0.00    -0.572 OA
ATOM     68  O5  SGN d 250      45.338  18.940   4.273  0.00  0.00    -0.349 OA
ATOM     69  O4S SGN d 250      48.201  18.696   7.991  0.00  0.00    -0.572 OA
ATOM     70  N   SGN d 250      43.341  20.162   1.300  0.00  0.00    -0.210 NA
ATOM     71  H   SGN d 250      45.304  23.232   2.257  0.00  0.00     0.210 HD
ATOM     72  H   SGN d 250      45.181  21.632   4.718  0.00  0.00     0.091 H 
ATOM     73  H   SGN d 250      40.769  19.534   1.424  0.00  0.00     0.231 HD
ATOM     74  H   SGN d 250      44.032  18.064   2.900  0.00  0.00     0.131 H 
ATOM     75  H   SGN d 250      43.008  22.522   0.020  0.00  0.00     0.231 HD
ATOM     76  H   SGN d 250      47.172  19.699   3.530  0.00  0.00     0.090 H 
ATOM     77  H   SGN d 250      42.294  22.493   2.287  0.00  0.00     0.231 HD
ATOM     78  H   SGN d 250      46.451  19.549   6.387  0.00  0.00     0.080 H 
ATOM     79  H   SGN d 250      47.510  20.846   5.890  0.00  0.00     0.080 H 
ATOM     80  H   SGN d 250      45.832  21.030   1.808  0.00  0.00     0.089 H 
ATOM     81  H   SGN d 250      43.257  20.462   3.372  0.00  0.00     0.076 H 
ATOM     82  H   SGN d 250      44.049  20.433   0.618  0.00  0.00     0.140 HD
ATOM     83  C1  SGN d 252      52.720  16.188  -1.497  0.00  0.00     0.147 C 
ATOM     84  C2  SGN d 252      52.254  16.907  -0.210  0.00  0.00     0.081 C 
ATOM     85  S1  SGN d 252      54.009  16.510   1.824  0.00  0.00     0.156 S 
ATOM     86  O3  SGN d 252      50.325  17.708   0.875  0.00  0.00    -0.391 OA
ATOM     87  O2S SGN d 252      53.661  17.687   2.594  0.00  0.00    -0.296 OA
ATOM     88  O1  SGN d 252      52.120  14.878  -1.548  0.00  0.00    -0.369 OA
ATOM     89  S2  SGN d 252      51.374  20.528  -4.636  0.00  0.00     0.251 S 
ATOM     90  C3  SGN d 252      50.738  17.065  -0.283  0.00  0.00     0.083 C 
ATOM     91  C6  SGN d 252      50.728  17.968  -4.118  0.00  0.00     0.067 C 
ATOM     92  O6S SGN d 252      52.574  19.953  -5.234  0.00  0.00    -0.572 OA
ATOM     93  O1S SGN d 252      55.062  16.756   0.857  0.00  0.00    -0.296 OA
ATOM     94  O3S SGN d 252      54.309  15.363   2.679  0.00  0.00    -0.296 OA
ATOM     95  N   SGN d 252      52.642  16.091   0.978  0.00  0.00    -0.210 NA
ATOM     96  O5  SGN d 252      52.345  16.969  -2.668  0.00  0.00    -0.350 OA
ATOM     97  O6  SGN d 252      50.660  19.352  -3.850  0.00  0.00    -0.254 OA
ATOM     98  O5S SGN d 252      51.682  21.507  -3.599  0.00  0.00    -0.572 OA
ATOM     99  C5  SGN d 252      50.927  17.211  -2.799  0.00  0.00     0.091 C 
ATOM    100  C4  SGN d 252      50.385  17.950  -1.534  0.00  0.00     0.095 C 
ATOM    101  O4S SGN d 252      50.427  21.029  -5.624  0.00  0.00    -0.572 OA
ATOM    102  H   SGN d 252      53.786  16.088  -1.491  0.00  0.00     0.131 H 
ATOM    103  H   SGN d 252      52.713  17.870  -0.121  0.00  0.00     0.076 H 
ATOM    104  H   SGN d 252      50.544  17.159   1.645  0.00  0.00     0.210 HD
ATOM    105  H   SGN d 252      53.469  18.422   1.991  0.00  0.00     0.231 HD
ATOM    106  H   SGN d 252      51.154  14.966  -1.554  0.00  0.00     0.212 HD
ATOM    107  H   SGN d 252      50.253  16.116  -0.372  0.00  0.00     0.089 H 
ATOM    108  H   SGN d 252      49.818  17.648  -4.581  0.00  0.00     0.080 H 
ATOM    109  H   SGN d 252      51.547  17.768  -4.776  0.00  0.00     0.080 H 
ATOM    110  H   SGN d 252      54.827  17.523   0.310  0.00  0.00     0.231 HD
ATOM    111  H   SGN d 252      54.537  14.600   2.127  0.00  0.00     0.231 HD
ATOM    112  H   SGN d 252      52.772  15.133   0.654  0.00  0.00     0.140 HD
ATOM    113  H   SGN d 252      50.357  16.307  -2.845  0.00  0.00     0.090 H 
ATOM    114  H   SGN d 252      50.816  18.922  -1.418  0.00  0.00     0.091 H 
ATOM    115  C3  IDS d 245      43.149  36.851  16.367  0.00  0.00     0.044 C 
ATOM    116  O2S IDS d 245      46.883  35.373  14.160  0.00  0.00    -0.572 OA
ATOM    117  O2  IDS d 245      44.971  35.497  15.680  0.00  0.00    -0.247 OA
ATOM    118  O3S IDS d 245      46.298  37.462  15.240  0.00  0.00    -0.572 OA
ATOM    119  O3  IDS d 245      44.000  37.954  16.568  0.00  0.00    -0.398 OA
ATOM    120  C2  IDS d 245      43.698  35.993  15.266  0.00  0.00     0.100 C 
ATOM    121  C1  IDS d 245      42.732  34.850  15.093  0.00  0.00     0.048 C 
ATOM    122  O1  IDS d 245      43.379  33.798  14.424  0.00  0.00    -0.378 OA
ATOM    123  O1S IDS d 245      47.195  35.632  16.538  0.00  0.00    -0.572 OA
ATOM    124  S   IDS d 245      46.420  36.028  15.370  0.00  0.00     0.252 S 
ATOM    125  H   IDS d 245      43.087  36.278  17.268  0.00  0.00     0.078 H 
ATOM    126  H   IDS d 245      42.173  37.196  16.097  0.00  0.00     0.078 H 
ATOM    127  H   IDS d 245      44.884  37.640  16.812  0.00  0.00     0.209 HD
ATOM    128  H   IDS d 245      43.815  36.531  14.349  0.00  0.00     0.092 H 
ATOM    129  H   IDS d 245      41.890  35.176  14.518  0.00  0.00     0.078 H 
ATOM    130  H   IDS d 245      42.394  34.514  16.051  0.00  0.00     0.078 H 
ATOM    131  C2  IDS d 247      43.269  27.514  10.861  0.00  0.00     0.134 C 
ATOM    132  O2  IDS d 247      42.022  27.545  10.136  0.00  0.00    -0.244 OA
ATOM    133  S   IDS d 247      40.877  26.395  10.027  0.00  0.00     0.252 S 
ATOM    134  C5  IDS d 247      45.547  28.152  12.233  0.00  0.00     0.152 C 
ATOM    135  O1S IDS d 247      41.586  25.163  10.312  0.00  0.00    -0.572 OA
ATOM    136  O3  IDS d 247      42.069  27.113  12.899  0.00  0.00    -0.390 OA
ATOM    137  O3S IDS d 247      40.357  26.436   8.657  0.00  0.00    -0.572 OA
ATOM    138  O62 IDS d 247      47.332  29.738  12.550  0.00  0.00    -0.646 OA
ATOM    139  O61 IDS d 247      47.283  28.151  13.902  0.00  0.00    -0.646 OA
ATOM    140  O5  IDS d 247      45.265  28.958  11.060  0.00  0.00    -0.340 OA
ATOM    141  O2S IDS d 247      39.868  26.683  11.024  0.00  0.00    -0.572 OA
ATOM    142  C1  IDS d 247      44.303  28.412  10.153  0.00  0.00     0.161 C 
ATOM    143  C4  IDS d 247      44.260  28.134  13.152  0.00  0.00     0.103 C 
ATOM    144  C6  IDS d 247      46.800  28.715  12.933  0.00  0.00     0.206 C 
ATOM    145  O1  IDS d 247      44.900  27.616   9.194  0.00  0.00    -0.348 OA
ATOM    146  C3  IDS d 247      42.990  27.999  12.273  0.00  0.00     0.094 C 
ATOM    147  H   IDS d 247      43.674  26.524  10.896  0.00  0.00     0.097 H 
ATOM    148  H   IDS d 247      45.767  27.136  11.980  0.00  0.00     0.104 H 
ATOM    149  H   IDS d 247      41.274  27.030  12.347  0.00  0.00     0.210 HD
ATOM    150  H   IDS d 247      43.827  29.264   9.716  0.00  0.00     0.133 H 
ATOM    151  H   IDS d 247      44.313  27.329  13.853  0.00  0.00     0.092 H 
ATOM    152  H   IDS d 247      42.580  28.984  12.185  0.00  0.00     0.091 H 
ATOM    153  C2  IDS d 251      46.678  18.856  -1.371  0.00  0.00     0.134 C 
ATOM    154  C1  IDS d 251      48.143  18.988  -0.869  0.00  0.00     0.161 C 
ATOM    155  O62 IDS d 251      47.483  15.886   2.740  0.00  0.00    -0.646 OA
ATOM    156  C4  IDS d 251      45.886  18.020   0.959  0.00  0.00     0.103 C 
ATOM    157  C5  IDS d 251      47.363  17.522   0.934  0.00  0.00     0.152 C 
ATOM    158  C6  IDS d 251      47.856  16.966   2.314  0.00  0.00     0.206 C 
ATOM    159  S   IDS d 251      46.685  21.479  -2.207  0.00  0.00     0.252 S 
ATOM    160  O3  IDS d 251      44.356  18.813  -0.736  0.00  0.00    -0.390 OA
ATOM    161  O61 IDS d 251      48.635  17.619   3.015  0.00  0.00    -0.646 OA
ATOM    162  O3S IDS d 251      46.402  21.991  -3.527  0.00  0.00    -0.572 OA
ATOM    163  O2  IDS d 251      46.373  19.893  -2.307  0.00  0.00    -0.244 OA
ATOM    164  O2S IDS d 251      48.073  21.649  -1.816  0.00  0.00    -0.572 OA
ATOM    165  O5  IDS d 251      48.205  18.659   0.530  0.00  0.00    -0.340 OA
ATOM    166  C3  IDS d 251      45.664  18.991  -0.226  0.00  0.00     0.094 C 
ATOM    167  O1S IDS d 251      45.767  21.982  -1.195  0.00  0.00    -0.572 OA
ATOM    168  O1  IDS d 251      48.920  18.088  -1.681  0.00  0.00    -0.348 OA
ATOM    169  H   IDS d 251      46.605  17.887  -1.818  0.00  0.00     0.097 H 
ATOM    170  H   IDS d 251      48.524  19.984  -0.959  0.00  0.00     0.133 H 
ATOM    171  H   IDS d 251      45.179  17.218   0.918  0.00  0.00     0.092 H 
ATOM    172  H   IDS d 251      47.430  16.705   0.246  0.00  0.00     0.104 H 
ATOM    173  H   IDS d 251      44.213  19.421  -1.479  0.00  0.00     0.210 HD
ATOM    174  H   IDS d 251      45.804  19.975   0.171  0.00  0.00     0.091 H 
ATOM    175  O5S SGN d 248      45.096  30.751   9.285  0.00  0.00    -0.572 OA
ATOM    176  O4S SGN d 248      44.299  32.246   7.556  0.00  0.00    -0.572 OA
ATOM    177  O2S SGN d 248      51.756  27.241   6.678  0.00  0.00    -0.296 OA
ATOM    178  O1  SGN d 248      47.190  26.708   5.650  0.00  0.00    -0.348 OA
ATOM    179  S1  SGN d 248      50.846  28.134   7.385  0.00  0.00     0.156 S 
ATOM    180  O3  SGN d 248      47.655  27.578   9.644  0.00  0.00    -0.391 OA
ATOM    181  O1S SGN d 248      51.214  28.367   8.766  0.00  0.00    -0.296 OA
ATOM    182  N   SGN d 248      49.381  27.362   7.365  0.00  0.00    -0.210 NA
ATOM    183  S2  SGN d 248      44.859  30.943   7.865  0.00  0.00     0.251 S 
ATOM    184  C4  SGN d 248      45.786  28.237   8.273  0.00  0.00     0.095 C 
ATOM    185  C6  SGN d 248      43.888  28.851   6.601  0.00  0.00     0.067 C 
ATOM    186  O6S SGN d 248      46.012  30.609   7.052  0.00  0.00    -0.572 OA
ATOM    187  O3S SGN d 248      50.650  29.384   6.677  0.00  0.00    -0.296 OA
ATOM    188  O5  SGN d 248      46.198  28.708   5.877  0.00  0.00    -0.349 OA
ATOM    189  C2  SGN d 248      48.096  28.116   7.333  0.00  0.00     0.081 C 
ATOM    190  C3  SGN d 248      47.116  27.485   8.334  0.00  0.00     0.083 C 
ATOM    191  C1  SGN d 248      47.450  28.030   5.908  0.00  0.00     0.150 C 
ATOM    192  O6  SGN d 248      43.774  29.888   7.525  0.00  0.00    -0.254 OA
ATOM    193  C5  SGN d 248      45.227  28.126   6.812  0.00  0.00     0.091 C 
ATOM    194  H   SGN d 248      51.860  26.419   7.184  0.00  0.00     0.231 HD
ATOM    195  H   SGN d 248      47.036  27.179  10.276  0.00  0.00     0.210 HD
ATOM    196  H   SGN d 248      51.339  27.516   9.214  0.00  0.00     0.231 HD
ATOM    197  H   SGN d 248      49.352  26.782   8.204  0.00  0.00     0.140 HD
ATOM    198  H   SGN d 248      45.899  29.270   8.524  0.00  0.00     0.091 H 
ATOM    199  H   SGN d 248      43.083  28.160   6.738  0.00  0.00     0.080 H 
ATOM    200  H   SGN d 248      43.849  29.249   5.609  0.00  0.00     0.080 H 
ATOM    201  H   SGN d 248      50.405  29.200   5.757  0.00  0.00     0.231 HD
ATOM    202  H   SGN d 248      48.293  29.138   7.580  0.00  0.00     0.076 H 
ATOM    203  H   SGN d 248      46.960  26.456   8.088  0.00  0.00     0.089 H 
ATOM    204  H   SGN d 248      48.117  28.470   5.197  0.00  0.00     0.131 H 
ATOM    205  H   SGN d 248      45.064  27.083   6.636  0.00  0.00     0.090 H 
ENDROOT
TORSDOF 64
ENDMDL
MODEL 32
REMARK VINA RESULT:       1.8      4.760      9.079
REMARK  0 active torsions:
REMARK  status: ('A' for Active; 'I' for Inactive)
REMARK       I    between atoms: C5_1  and  C6_97 
REMARK       I    between atoms: O2_2  and  C2_107 
REMARK       I    between atoms: O2_2  and  S_88 
REMARK       I    between atoms: O3_4  and  C3_95 
REMARK       I    between atoms: C1_5  and  O1_40 
REMARK       I    between atoms: C3_6  and  C2_70 
REMARK       I    between atoms: C3_6  and  O3_51 
REMARK       I    between atoms: C2_7  and  O2_9 
REMARK       I    between atoms: C2_8  and  O2_75 
REMARK       I    between atoms: O2_9  and  S_23 
REMARK       I    between atoms: S2_14  and  O6_117 
REMARK       I    between atoms: C1_15  and  O1_130 
REMARK       I    between atoms: C4_16  and  O1_59 
REMARK       I    between atoms: S1_17  and  N_128 
REMARK       I    between atoms: S1_17  and  O1S_46 
REMARK       I    between atoms: S1_17  and  O2S_29 
REMARK       I    between atoms: S1_17  and  O3S_24 
REMARK       I    between atoms: C2_18  and  N_86 
REMARK       I    between atoms: S1_19  and  N_86 
REMARK       I    between atoms: S1_19  and  O1S_71 
REMARK       I    between atoms: S1_19  and  O2S_34 
REMARK       I    between atoms: S1_19  and  O3S_81 
REMARK       I    between atoms: O2S_22  and  S1_111 
REMARK       I    between atoms: C1_25  and  O1_58 
REMARK       I    between atoms: C4_27  and  O1_58 
REMARK       I    between atoms: O2S_28  and  S1_48 
REMARK       I    between atoms: O3_32  and  C3_49 
REMARK       I    between atoms: O2_33  and  C2_70 
REMARK       I    between atoms: O2_33  and  S_133 
REMARK       I    between atoms: C5_37  and  C6_84 
REMARK       I    between atoms: C5_41  and  C6_43 
REMARK       I    between atoms: O6_42  and  C6_84 
REMARK       I    between atoms: O6_42  and  S2_77 
REMARK       I    between atoms: C5_44  and  C6_108 
REMARK       I    between atoms: O1_45  and  C1_120 
REMARK       I    between atoms: O1_45  and  C4_114 
REMARK       I    between atoms: S2_47  and  O6_94 
REMARK       I    between atoms: S1_48  and  N_53 
REMARK       I    between atoms: S1_48  and  O1S_52 
REMARK       I    between atoms: S1_48  and  O3S_83 
REMARK       I    between atoms: O3_50  and  C3_119 
REMARK       I    between atoms: N_53  and  C2_89 
REMARK       I    between atoms: S_55  and  O2_75 
REMARK       I    between atoms: O3_56  and  C3_124 
REMARK       I    between atoms: O1_59  and  C1_110 
REMARK       I    between atoms: S2_60  and  O6_132 
REMARK       I    between atoms: O3_61  and  C3_115 
REMARK       I    between atoms: C6_62  and  C5_106 
REMARK       I    between atoms: C6_62  and  O6_94 
REMARK       I    between atoms: C4_63  and  O1_96 
REMARK       I    between atoms: O3_67  and  C3_93 
REMARK       I    between atoms: O1_69  and  C1_113 
REMARK       I    between atoms: O1_69  and  C4_103 
REMARK       I    between atoms: C2_70  and  C1_76 
REMARK       I    between atoms: C5_74  and  C6_90 
REMARK       I    between atoms: C1_76  and  O1_96 
REMARK       I    between atoms: C4_78  and  O1_112 
REMARK       I    between atoms: C6_80  and  C5_134 
REMARK       I    between atoms: C6_80  and  O6_132 
REMARK       I    between atoms: C6_90  and  O6_117 
REMARK       I    between atoms: C2_98  and  N_128 
REMARK       I    between atoms: C1_100  and  O1_112 
REMARK       I    between atoms: S1_111  and  O1S_116 
REMARK       I    between atoms: C4_127  and  O1_130 
ROOT
ATOM      1  C5  IDS d 249      51.871  30.558  14.409  0.00  0.00     0.152 C 
ATOM      2  O2  IDS d 249      47.980  31.954  14.307  0.00  0.00    -0.244 OA
ATOM      3  O1S IDS d 249      47.112  31.285  12.133  0.00  0.00    -0.572 OA
ATOM      4  O5  IDS d 249      50.799  29.728  14.914  0.00  0.00    -0.340 OA
ATOM      5  O1  IDS d 249      49.816  30.956  16.595  0.00  0.00    -0.348 OA
ATOM      6  O62 IDS d 249      53.184  28.539  14.207  0.00  0.00    -0.646 OA
ATOM      7  O3  IDS d 249      50.225  32.601  12.280  0.00  0.00    -0.390 OA
ATOM      8  S   IDS d 249      46.877  31.047  13.548  0.00  0.00     0.252 S 
ATOM      9  C3  IDS d 249      49.938  31.502  13.037  0.00  0.00     0.094 C 
ATOM     10  C6  IDS d 249      53.183  29.743  14.392  0.00  0.00     0.206 C 
ATOM     11  O3S IDS d 249      45.587  31.530  13.991  0.00  0.00    -0.572 OA
ATOM     12  C2  IDS d 249      49.395  31.698  14.433  0.00  0.00     0.134 C 
ATOM     13  C1  IDS d 249      49.645  30.452  15.324  0.00  0.00     0.161 C 
ATOM     14  C4  IDS d 249      51.429  31.076  12.995  0.00  0.00     0.103 C 
ATOM     15  O2S IDS d 249      47.117  29.670  13.905  0.00  0.00    -0.572 OA
ATOM     16  O61 IDS d 249      54.265  30.300  14.574  0.00  0.00    -0.646 OA
ATOM     17  H   IDS d 249      52.061  31.408  15.029  0.00  0.00     0.104 H 
ATOM     18  H   IDS d 249      49.413  33.109  12.127  0.00  0.00     0.210 HD
ATOM     19  H   IDS d 249      49.148  30.861  12.704  0.00  0.00     0.091 H 
ATOM     20  H   IDS d 249      49.894  32.517  14.908  0.00  0.00     0.097 H 
ATOM     21  H   IDS d 249      48.833  29.758  15.261  0.00  0.00     0.133 H 
ATOM     22  H   IDS d 249      51.964  31.897  12.567  0.00  0.00     0.092 H 
ATOM     23  O3  SGN d 246      52.097  19.228   6.761  0.00  0.00    -0.215 OA
ATOM     24  S2  SGN d 246      47.055  20.474   2.744  0.00  0.00     0.251 S 
ATOM     25  O6S SGN d 246      46.409  20.358   4.022  0.00  0.00    -0.572 OA
ATOM     26  O2S SGN d 246      50.256  17.364   9.682  0.00  0.00    -0.294 OA
ATOM     27  C3  SGN d 246      51.123  20.236   6.601  0.00  0.00     0.121 C 
ATOM     28  C2  SGN d 246      49.834  19.850   7.341  0.00  0.00     0.084 C 
ATOM     29  O4S SGN d 246      46.669  21.659   2.022  0.00  0.00    -0.572 OA
ATOM     30  O5S SGN d 246      46.951  19.271   1.957  0.00  0.00    -0.572 OA
ATOM     31  N   SGN d 246      50.113  19.677   8.767  0.00  0.00    -0.208 NA
ATOM     32  C4  SGN d 246      50.794  20.373   5.139  0.00  0.00     0.095 C 
ATOM     33  O1  SGN d 246      49.212  22.222   7.633  0.00  0.00    -0.348 OA
ATOM     34  C5  SGN d 246      49.694  21.504   4.965  0.00  0.00     0.091 C 
ATOM     35  C6  SGN d 246      49.237  21.740   3.505  0.00  0.00     0.067 C 
ATOM     36  S1  SGN d 246      51.102  18.467   9.274  0.00  0.00     0.188 S 
ATOM     37  C1  SGN d 246      48.737  20.985   7.131  0.00  0.00     0.151 C 
ATOM     38  O1S SGN d 246      51.914  18.991  10.355  0.00  0.00    -0.294 OA
ATOM     39  O6  SGN d 246      48.562  20.603   3.039  0.00  0.00    -0.254 OA
ATOM     40  O5  SGN d 246      48.485  21.157   5.738  0.00  0.00    -0.349 OA
ATOM     41  O3S SGN d 246      51.896  18.144   8.108  0.00  0.00    -0.119 OA
ATOM     42  H   SGN d 246      49.743  17.622  10.463  0.00  0.00     0.231 HD
ATOM     43  H   SGN d 246      51.508  21.153   6.997  0.00  0.00     0.095 H 
ATOM     44  H   SGN d 246      49.461  18.927   6.947  0.00  0.00     0.077 H 
ATOM     45  H   SGN d 246      49.214  19.533   9.228  0.00  0.00     0.140 HD
ATOM     46  H   SGN d 246      50.394  19.471   4.728  0.00  0.00     0.091 H 
ATOM     47  H   SGN d 246      50.168  22.397   5.314  0.00  0.00     0.090 H 
ATOM     48  H   SGN d 246      50.092  21.925   2.888  0.00  0.00     0.080 H 
ATOM     49  H   SGN d 246      48.581  22.585   3.468  0.00  0.00     0.080 H 
ATOM     50  H   SGN d 246      47.848  20.690   7.647  0.00  0.00     0.131 H 
ATOM     51  H   SGN d 246      51.348  19.195  11.116  0.00  0.00     0.231 HD
ATOM     52  O3  SGN d 250      51.878  29.929  18.214  0.00  0.00    -0.391 OA
ATOM     53  O5S SGN d 250      43.852  31.300  18.536  0.00  0.00    -0.572 OA
ATOM     54  C4  SGN d 250      49.520  30.139  17.713  0.00  0.00     0.095 C 
ATOM     55  S1  SGN d 250      52.697  28.771  21.208  0.00  0.00     0.156 S 
ATOM     56  O3S SGN d 250      52.599  28.246  22.565  0.00  0.00    -0.296 OA
ATOM     57  C1  SGN d 250      48.911  30.062  20.534  0.00  0.00     0.150 C 
ATOM     58  O2S SGN d 250      53.869  29.645  21.029  0.00  0.00    -0.296 OA
ATOM     59  C5  SGN d 250      48.142  30.572  18.322  0.00  0.00     0.091 C 
ATOM     60  O6  SGN d 250      46.015  31.360  17.558  0.00  0.00    -0.254 OA
ATOM     61  O1S SGN d 250      52.607  27.707  20.220  0.00  0.00    -0.296 OA
ATOM     62  O1  SGN d 250      49.019  31.473  20.525  0.00  0.00    -0.348 OA
ATOM     63  S2  SGN d 250      44.488  31.251  17.246  0.00  0.00     0.251 S 
ATOM     64  C6  SGN d 250      46.969  30.360  17.358  0.00  0.00     0.067 C 
ATOM     65  C3  SGN d 250      50.634  30.350  18.760  0.00  0.00     0.083 C 
ATOM     66  C2  SGN d 250      50.303  29.513  20.029  0.00  0.00     0.081 C 
ATOM     67  O6S SGN d 250      44.165  32.413  16.430  0.00  0.00    -0.572 OA
ATOM     68  O5  SGN d 250      47.894  29.792  19.554  0.00  0.00    -0.349 OA
ATOM     69  O4S SGN d 250      44.275  29.986  16.563  0.00  0.00    -0.572 OA
ATOM     70  N   SGN d 250      51.366  29.760  21.057  0.00  0.00    -0.210 NA
ATOM     71  H   SGN d 250      52.078  30.454  17.424  0.00  0.00     0.210 HD
ATOM     72  H   SGN d 250      49.465  29.110  17.425  0.00  0.00     0.091 H 
ATOM     73  H   SGN d 250      51.816  27.679  22.635  0.00  0.00     0.231 HD
ATOM     74  H   SGN d 250      48.675  29.627  21.483  0.00  0.00     0.131 H 
ATOM     75  H   SGN d 250      53.893  29.970  20.116  0.00  0.00     0.231 HD
ATOM     76  H   SGN d 250      48.203  31.620  18.528  0.00  0.00     0.090 H 
ATOM     77  H   SGN d 250      52.676  28.085  19.330  0.00  0.00     0.231 HD
ATOM     78  H   SGN d 250      46.526  29.403  17.540  0.00  0.00     0.080 H 
ATOM     79  H   SGN d 250      47.323  30.403  16.349  0.00  0.00     0.080 H 
ATOM     80  H   SGN d 250      50.699  31.385  19.024  0.00  0.00     0.089 H 
ATOM     81  H   SGN d 250      50.261  28.461  19.839  0.00  0.00     0.076 H 
ATOM     82  H   SGN d 250      51.726  30.697  20.875  0.00  0.00     0.140 HD
ATOM     83  C1  SGN d 252      47.047  39.400  21.080  0.00  0.00     0.147 C 
ATOM     84  C2  SGN d 252      46.870  38.200  20.122  0.00  0.00     0.081 C 
ATOM     85  S1  SGN d 252      44.644  38.487  18.592  0.00  0.00     0.156 S 
ATOM     86  O3  SGN d 252      47.418  35.924  19.874  0.00  0.00    -0.391 OA
ATOM     87  O2S SGN d 252      45.064  37.630  17.502  0.00  0.00    -0.296 OA
ATOM     88  O1  SGN d 252      46.425  39.089  22.343  0.00  0.00    -0.369 OA
ATOM     89  S2  SGN d 252      52.472  39.645  20.077  0.00  0.00     0.251 S 
ATOM     90  C3  SGN d 252      47.583  36.999  20.736  0.00  0.00     0.083 C 
ATOM     91  C6  SGN d 252      50.664  39.107  21.995  0.00  0.00     0.067 C 
ATOM     92  O6S SGN d 252      52.030  41.025  20.249  0.00  0.00    -0.572 OA
ATOM     93  O1S SGN d 252      45.043  39.870  18.412  0.00  0.00    -0.296 OA
ATOM     94  O3S SGN d 252      43.215  38.363  18.870  0.00  0.00    -0.296 OA
ATOM     95  N   SGN d 252      45.415  37.917  19.949  0.00  0.00    -0.210 NA
ATOM     96  O5  SGN d 252      48.463  39.687  21.263  0.00  0.00    -0.350 OA
ATOM     97  O6  SGN d 252      51.442  38.744  20.875  0.00  0.00    -0.254 OA
ATOM     98  O5S SGN d 252      52.344  39.186  18.698  0.00  0.00    -0.572 OA
ATOM     99  C5  SGN d 252      49.233  38.589  21.801  0.00  0.00     0.091 C 
ATOM    100  C4  SGN d 252      49.112  37.338  20.874  0.00  0.00     0.095 C 
ATOM    101  O4S SGN d 252      53.794  39.395  20.637  0.00  0.00    -0.572 OA
ATOM    102  H   SGN d 252      46.582  40.269  20.663  0.00  0.00     0.131 H 
ATOM    103  H   SGN d 252      47.287  38.413  19.159  0.00  0.00     0.076 H 
ATOM    104  H   SGN d 252      46.474  35.717  19.792  0.00  0.00     0.210 HD
ATOM    105  H   SGN d 252      46.015  37.743  17.351  0.00  0.00     0.231 HD
ATOM    106  H   SGN d 252      46.844  38.302  22.724  0.00  0.00     0.212 HD
ATOM    107  H   SGN d 252      47.184  36.764  21.701  0.00  0.00     0.089 H 
ATOM    108  H   SGN d 252      51.084  38.675  22.879  0.00  0.00     0.080 H 
ATOM    109  H   SGN d 252      50.652  40.172  22.096  0.00  0.00     0.080 H 
ATOM    110  H   SGN d 252      45.996  39.911  18.230  0.00  0.00     0.231 HD
ATOM    111  H   SGN d 252      42.975  38.951  19.603  0.00  0.00     0.231 HD
ATOM    112  H   SGN d 252      44.934  38.315  20.756  0.00  0.00     0.140 HD
ATOM    113  H   SGN d 252      48.869  38.255  22.749  0.00  0.00     0.090 H 
ATOM    114  H   SGN d 252      49.528  37.513  19.904  0.00  0.00     0.091 H 
ATOM    115  C3  IDS d 245      52.886  19.050   1.347  0.00  0.00     0.044 C 
ATOM    116  O2S IDS d 245      51.941  23.508   1.825  0.00  0.00    -0.572 OA
ATOM    117  O2  IDS d 245      51.750  21.069   1.850  0.00  0.00    -0.247 OA
ATOM    118  O3S IDS d 245      52.859  22.179   0.019  0.00  0.00    -0.572 OA
ATOM    119  O3  IDS d 245      53.180  19.499   0.045  0.00  0.00    -0.398 OA
ATOM    120  C2  IDS d 245      52.819  20.224   2.276  0.00  0.00     0.100 C 
ATOM    121  C1  IDS d 245      52.523  19.670   3.645  0.00  0.00     0.048 C 
ATOM    122  O1  IDS d 245      52.011  20.696   4.457  0.00  0.00    -0.378 OA
ATOM    123  O1S IDS d 245      50.465  22.357   0.303  0.00  0.00    -0.572 OA
ATOM    124  S   IDS d 245      51.770  22.361   0.951  0.00  0.00     0.252 S 
ATOM    125  H   IDS d 245      51.944  18.542   1.344  0.00  0.00     0.078 H 
ATOM    126  H   IDS d 245      53.651  18.378   1.675  0.00  0.00     0.078 H 
ATOM    127  H   IDS d 245      52.486  20.108  -0.252  0.00  0.00     0.209 HD
ATOM    128  H   IDS d 245      53.727  20.789   2.285  0.00  0.00     0.092 H 
ATOM    129  H   IDS d 245      53.423  19.286   4.079  0.00  0.00     0.078 H 
ATOM    130  H   IDS d 245      51.805  18.880   3.567  0.00  0.00     0.078 H 
ATOM    131  C2  IDS d 247      50.145  23.362  10.906  0.00  0.00     0.134 C 
ATOM    132  O2  IDS d 247      51.095  22.769  11.818  0.00  0.00    -0.244 OA
ATOM    133  S   IDS d 247      50.818  22.034  13.242  0.00  0.00     0.252 S 
ATOM    134  C5  IDS d 247      48.846  24.341   8.707  0.00  0.00     0.152 C 
ATOM    135  O1S IDS d 247      49.548  22.579  13.680  0.00  0.00    -0.572 OA
ATOM    136  O3  IDS d 247      49.007  21.259  10.732  0.00  0.00    -0.390 OA
ATOM    137  O3S IDS d 247      51.921  22.402  14.135  0.00  0.00    -0.572 OA
ATOM    138  O62 IDS d 247      49.043  25.425   6.566  0.00  0.00    -0.646 OA
ATOM    139  O61 IDS d 247      47.128  24.779   7.078  0.00  0.00    -0.646 OA
ATOM    140  O5  IDS d 247      50.246  24.701   8.832  0.00  0.00    -0.340 OA
ATOM    141  O2S IDS d 247      50.741  20.611  12.993  0.00  0.00    -0.572 OA
ATOM    142  C1  IDS d 247      50.821  24.508  10.126  0.00  0.00     0.161 C 
ATOM    143  C4  IDS d 247      48.717  22.771   8.851  0.00  0.00     0.103 C 
ATOM    144  C6  IDS d 247      48.308  24.886   7.370  0.00  0.00     0.206 C 
ATOM    145  O1  IDS d 247      50.686  25.633  10.918  0.00  0.00    -0.348 OA
ATOM    146  C3  IDS d 247      49.663  22.267   9.972  0.00  0.00     0.094 C 
ATOM    147  H   IDS d 247      49.311  23.779  11.431  0.00  0.00     0.097 H 
ATOM    148  H   IDS d 247      48.249  24.777   9.480  0.00  0.00     0.104 H 
ATOM    149  H   IDS d 247      49.600  20.944  11.433  0.00  0.00     0.210 HD
ATOM    150  H   IDS d 247      51.849  24.281   9.937  0.00  0.00     0.133 H 
ATOM    151  H   IDS d 247      47.706  22.498   9.068  0.00  0.00     0.092 H 
ATOM    152  H   IDS d 247      50.529  21.877   9.480  0.00  0.00     0.091 H 
ATOM    153  C2  IDS d 251      50.982  34.147  21.824  0.00  0.00     0.134 C 
ATOM    154  C1  IDS d 251      50.206  35.026  20.805  0.00  0.00     0.161 C 
ATOM    155  O62 IDS d 251      46.046  32.750  21.583  0.00  0.00    -0.646 OA
ATOM    156  C4  IDS d 251      49.213  32.252  21.636  0.00  0.00     0.103 C 
ATOM    157  C5  IDS d 251      48.350  33.516  21.338  0.00  0.00     0.152 C 
ATOM    158  C6  IDS d 251      46.905  33.179  20.831  0.00  0.00     0.206 C 
ATOM    159  S   IDS d 251      53.273  34.345  20.311  0.00  0.00     0.252 S 
ATOM    160  O3  IDS d 251      51.402  31.907  22.602  0.00  0.00    -0.390 OA
ATOM    161  O61 IDS d 251      46.603  33.331  19.644  0.00  0.00    -0.646 OA
ATOM    162  O3S IDS d 251      54.572  34.822  20.725  0.00  0.00    -0.572 OA
ATOM    163  O2  IDS d 251      52.392  34.327  21.670  0.00  0.00    -0.244 OA
ATOM    164  O2S IDS d 251      52.622  35.222  19.355  0.00  0.00    -0.572 OA
ATOM    165  O5  IDS d 251      49.060  34.305  20.319  0.00  0.00    -0.340 OA
ATOM    166  C3  IDS d 251      50.709  32.650  21.617  0.00  0.00     0.094 C 
ATOM    167  O1S IDS d 251      53.297  32.962  19.856  0.00  0.00    -0.572 OA
ATOM    168  O1  IDS d 251      49.840  36.223  21.516  0.00  0.00    -0.348 OA
ATOM    169  H   IDS d 251      50.649  34.453  22.793  0.00  0.00     0.097 H 
ATOM    170  H   IDS d 251      50.789  35.277  19.944  0.00  0.00     0.133 H 
ATOM    171  H   IDS d 251      48.963  31.793  22.570  0.00  0.00     0.092 H 
ATOM    172  H   IDS d 251      48.223  34.058  22.252  0.00  0.00     0.104 H 
ATOM    173  H   IDS d 251      52.340  32.153  22.592  0.00  0.00     0.210 HD
ATOM    174  H   IDS d 251      51.059  32.425  20.631  0.00  0.00     0.091 H 
ATOM    175  O5S SGN d 248      52.653  25.392   8.479  0.00  0.00    -0.572 OA
ATOM    176  O4S SGN d 248      55.062  25.581   8.610  0.00  0.00    -0.572 OA
ATOM    177  O2S SGN d 248      49.525  32.672   9.311  0.00  0.00    -0.296 OA
ATOM    178  O1  SGN d 248      51.518  29.634  12.308  0.00  0.00    -0.348 OA
ATOM    179  S1  SGN d 248      50.003  31.429   8.718  0.00  0.00     0.156 S 
ATOM    180  O3  SGN d 248      49.353  27.605   9.459  0.00  0.00    -0.391 OA
ATOM    181  O1S SGN d 248      49.133  30.903   7.688  0.00  0.00    -0.296 OA
ATOM    182  N   SGN d 248      50.041  30.341   9.966  0.00  0.00    -0.210 NA
ATOM    183  S2  SGN d 248      53.785  26.000   9.156  0.00  0.00     0.251 S 
ATOM    184  C4  SGN d 248      51.369  26.813  10.517  0.00  0.00     0.095 C 
ATOM    185  C6  SGN d 248      53.558  26.177  11.771  0.00  0.00     0.067 C 
ATOM    186  O6S SGN d 248      53.660  27.438   9.280  0.00  0.00    -0.572 OA
ATOM    187  O3S SGN d 248      51.369  31.541   8.243  0.00  0.00    -0.296 OA
ATOM    188  O5  SGN d 248      53.077  28.479  11.179  0.00  0.00    -0.349 OA
ATOM    189  C2  SGN d 248      51.041  29.238  10.017  0.00  0.00     0.081 C 
ATOM    190  C3  SGN d 248      50.335  27.937  10.428  0.00  0.00     0.083 C 
ATOM    191  C1  SGN d 248      52.140  29.548  11.089  0.00  0.00     0.150 C 
ATOM    192  O6  SGN d 248      53.699  25.436  10.599  0.00  0.00    -0.254 OA
ATOM    193  C5  SGN d 248      52.443  27.218  11.585  0.00  0.00     0.091 C 
ATOM    194  H   SGN d 248      48.611  32.555   9.615  0.00  0.00     0.231 HD
ATOM    195  H   SGN d 248      48.907  26.784   9.719  0.00  0.00     0.210 HD
ATOM    196  H   SGN d 248      48.228  30.838   8.032  0.00  0.00     0.231 HD
ATOM    197  H   SGN d 248      49.123  29.897   9.986  0.00  0.00     0.140 HD
ATOM    198  H   SGN d 248      51.856  26.645   9.579  0.00  0.00     0.091 H 
ATOM    199  H   SGN d 248      53.305  25.523  12.578  0.00  0.00     0.080 H 
ATOM    200  H   SGN d 248      54.479  26.675  11.992  0.00  0.00     0.080 H 
ATOM    201  H   SGN d 248      51.929  31.895   8.951  0.00  0.00     0.231 HD
ATOM    202  H   SGN d 248      51.492  29.140   9.052  0.00  0.00     0.076 H 
ATOM    203  H   SGN d 248      49.862  28.067  11.379  0.00  0.00     0.089 H 
ATOM    204  H   SGN d 248      52.647  30.450  10.815  0.00  0.00     0.131 H 
ATOM    205  H   SGN d 248      51.919  27.303  12.514  0.00  0.00     0.090 H 
ENDROOT
TORSDOF 64
ENDMDL
MODEL 33
REMARK VINA RESULT:       1.9      2.975     17.695
REMARK  0 active torsions:
REMARK  status: ('A' for Active; 'I' for Inactive)
REMARK       I    between atoms: C5_1  and  C6_97 
REMARK       I    between atoms: O2_2  and  C2_107 
REMARK       I    between atoms: O2_2  and  S_88 
REMARK       I    between atoms: O3_4  and  C3_95 
REMARK       I    between atoms: C1_5  and  O1_40 
REMARK       I    between atoms: C3_6  and  C2_70 
REMARK       I    between atoms: C3_6  and  O3_51 
REMARK       I    between atoms: C2_7  and  O2_9 
REMARK       I    between atoms: C2_8  and  O2_75 
REMARK       I    between atoms: O2_9  and  S_23 
REMARK       I    between atoms: S2_14  and  O6_117 
REMARK       I    between atoms: C1_15  and  O1_130 
REMARK       I    between atoms: C4_16  and  O1_59 
REMARK       I    between atoms: S1_17  and  N_128 
REMARK       I    between atoms: S1_17  and  O1S_46 
REMARK       I    between atoms: S1_17  and  O2S_29 
REMARK       I    between atoms: S1_17  and  O3S_24 
REMARK       I    between atoms: C2_18  and  N_86 
REMARK       I    between atoms: S1_19  and  N_86 
REMARK       I    between atoms: S1_19  and  O1S_71 
REMARK       I    between atoms: S1_19  and  O2S_34 
REMARK       I    between atoms: S1_19  and  O3S_81 
REMARK       I    between atoms: O2S_22  and  S1_111 
REMARK       I    between atoms: C1_25  and  O1_58 
REMARK       I    between atoms: C4_27  and  O1_58 
REMARK       I    between atoms: O2S_28  and  S1_48 
REMARK       I    between atoms: O3_32  and  C3_49 
REMARK       I    between atoms: O2_33  and  C2_70 
REMARK       I    between atoms: O2_33  and  S_133 
REMARK       I    between atoms: C5_37  and  C6_84 
REMARK       I    between atoms: C5_41  and  C6_43 
REMARK       I    between atoms: O6_42  and  C6_84 
REMARK       I    between atoms: O6_42  and  S2_77 
REMARK       I    between atoms: C5_44  and  C6_108 
REMARK       I    between atoms: O1_45  and  C1_120 
REMARK       I    between atoms: O1_45  and  C4_114 
REMARK       I    between atoms: S2_47  and  O6_94 
REMARK       I    between atoms: S1_48  and  N_53 
REMARK       I    between atoms: S1_48  and  O1S_52 
REMARK       I    between atoms: S1_48  and  O3S_83 
REMARK       I    between atoms: O3_50  and  C3_119 
REMARK       I    between atoms: N_53  and  C2_89 
REMARK       I    between atoms: S_55  and  O2_75 
REMARK       I    between atoms: O3_56  and  C3_124 
REMARK       I    between atoms: O1_59  and  C1_110 
REMARK       I    between atoms: S2_60  and  O6_132 
REMARK       I    between atoms: O3_61  and  C3_115 
REMARK       I    between atoms: C6_62  and  C5_106 
REMARK       I    between atoms: C6_62  and  O6_94 
REMARK       I    between atoms: C4_63  and  O1_96 
REMARK       I    between atoms: O3_67  and  C3_93 
REMARK       I    between atoms: O1_69  and  C1_113 
REMARK       I    between atoms: O1_69  and  C4_103 
REMARK       I    between atoms: C2_70  and  C1_76 
REMARK       I    between atoms: C5_74  and  C6_90 
REMARK       I    between atoms: C1_76  and  O1_96 
REMARK       I    between atoms: C4_78  and  O1_112 
REMARK       I    between atoms: C6_80  and  C5_134 
REMARK       I    between atoms: C6_80  and  O6_132 
REMARK       I    between atoms: C6_90  and  O6_117 
REMARK       I    between atoms: C2_98  and  N_128 
REMARK       I    between atoms: C1_100  and  O1_112 
REMARK       I    between atoms: S1_111  and  O1S_116 
REMARK       I    between atoms: C4_127  and  O1_130 
ROOT
ATOM      1  C5  IDS d 249      48.626  27.385   5.977  0.00  0.00     0.152 C 
ATOM      2  O2  IDS d 249      45.084  25.284   6.348  0.00  0.00    -0.244 OA
ATOM      3  O1S IDS d 249      44.487  25.437   8.703  0.00  0.00    -0.572 OA
ATOM      4  O5  IDS d 249      47.366  28.066   5.777  0.00  0.00    -0.340 OA
ATOM      5  O1  IDS d 249      46.332  26.947   4.050  0.00  0.00    -0.348 OA
ATOM      6  O62 IDS d 249      49.608  29.559   6.359  0.00  0.00    -0.646 OA
ATOM      7  O3  IDS d 249      47.706  24.768   7.906  0.00  0.00    -0.390 OA
ATOM      8  S   IDS d 249      43.988  25.841   7.399  0.00  0.00     0.252 S 
ATOM      9  C3  IDS d 249      47.124  25.896   7.404  0.00  0.00     0.094 C 
ATOM     10  C6  IDS d 249      49.773  28.419   5.962  0.00  0.00     0.206 C 
ATOM     11  O3S IDS d 249      42.739  25.198   7.054  0.00  0.00    -0.572 OA
ATOM     12  C2  IDS d 249      46.398  25.817   6.081  0.00  0.00     0.134 C 
ATOM     13  C1  IDS d 249      46.293  27.210   5.403  0.00  0.00     0.161 C 
ATOM     14  C4  IDS d 249      48.512  26.583   7.321  0.00  0.00     0.103 C 
ATOM     15  O2S IDS d 249      43.939  27.277   7.266  0.00  0.00    -0.572 OA
ATOM     16  O61 IDS d 249      50.887  28.110   5.540  0.00  0.00    -0.646 OA
ATOM     17  H   IDS d 249      48.848  26.690   5.194  0.00  0.00     0.104 H 
ATOM     18  H   IDS d 249      47.024  24.099   8.072  0.00  0.00     0.210 HD
ATOM     19  H   IDS d 249      46.306  26.318   7.949  0.00  0.00     0.091 H 
ATOM     20  H   IDS d 249      46.939  25.189   5.404  0.00  0.00     0.097 H 
ATOM     21  H   IDS d 249      45.400  27.721   5.698  0.00  0.00     0.133 H 
ATOM     22  H   IDS d 249      49.237  25.822   7.518  0.00  0.00     0.092 H 
ATOM     23  O3  SGN d 246      48.261  37.250  15.434  0.00  0.00    -0.215 OA
ATOM     24  S2  SGN d 246      44.217  34.480  19.802  0.00  0.00     0.251 S 
ATOM     25  O6S SGN d 246      43.361  34.667  18.665  0.00  0.00    -0.572 OA
ATOM     26  O2S SGN d 246      45.688  39.160  13.170  0.00  0.00    -0.294 OA
ATOM     27  C3  SGN d 246      47.503  36.065  15.539  0.00  0.00     0.121 C 
ATOM     28  C2  SGN d 246      46.065  36.311  15.061  0.00  0.00     0.084 C 
ATOM     29  O4S SGN d 246      44.153  33.149  20.345  0.00  0.00    -0.572 OA
ATOM     30  O5S SGN d 246      44.050  35.508  20.799  0.00  0.00    -0.572 OA
ATOM     31  N   SGN d 246      46.075  36.749  13.665  0.00  0.00    -0.208 NA
ATOM     32  C4  SGN d 246      47.446  35.647  16.983  0.00  0.00     0.095 C 
ATOM     33  O1  SGN d 246      45.797  33.938  14.434  0.00  0.00    -0.348 OA
ATOM     34  C5  SGN d 246      46.588  34.317  17.098  0.00  0.00     0.091 C 
ATOM     35  C6  SGN d 246      46.421  33.779  18.540  0.00  0.00     0.067 C 
ATOM     36  S1  SGN d 246      46.757  38.187  13.256  0.00  0.00     0.188 S 
ATOM     37  C1  SGN d 246      45.217  34.971  15.209  0.00  0.00     0.151 C 
ATOM     38  O1S SGN d 246      47.455  37.995  11.998  0.00  0.00    -0.294 OA
ATOM     39  O6  SGN d 246      45.656  34.684  19.289  0.00  0.00    -0.254 OA
ATOM     40  O5  SGN d 246      45.228  34.544  16.570  0.00  0.00    -0.349 OA
ATOM     41  O3S SGN d 246      47.668  38.471  14.343  0.00  0.00    -0.119 OA
ATOM     42  H   SGN d 246      45.102  38.933  12.431  0.00  0.00     0.231 HD
ATOM     43  H   SGN d 246      47.962  35.308  14.938  0.00  0.00     0.095 H 
ATOM     44  H   SGN d 246      45.617  37.076  15.661  0.00  0.00     0.077 H 
ATOM     45  H   SGN d 246      45.101  36.790  13.363  0.00  0.00     0.140 HD
ATOM     46  H   SGN d 246      46.977  36.384  17.600  0.00  0.00     0.091 H 
ATOM     47  H   SGN d 246      47.137  33.592  16.534  0.00  0.00     0.090 H 
ATOM     48  H   SGN d 246      47.385  33.665  18.993  0.00  0.00     0.080 H 
ATOM     49  H   SGN d 246      45.927  32.830  18.513  0.00  0.00     0.080 H 
ATOM     50  H   SGN d 246      44.219  35.169  14.879  0.00  0.00     0.131 H 
ATOM     51  H   SGN d 246      46.812  37.808  11.297  0.00  0.00     0.231 HD
ATOM     52  O3  SGN d 250      47.905  28.578   2.380  0.00  0.00    -0.391 OA
ATOM     53  O5S SGN d 250      40.267  25.790   2.900  0.00  0.00    -0.572 OA
ATOM     54  C4  SGN d 250      45.728  27.855   3.148  0.00  0.00     0.095 C 
ATOM     55  S1  SGN d 250      48.023  30.313  -0.440  0.00  0.00     0.156 S 
ATOM     56  O3S SGN d 250      47.619  31.012  -1.654  0.00  0.00    -0.296 OA
ATOM     57  C1  SGN d 250      44.660  28.247   0.495  0.00  0.00     0.150 C 
ATOM     58  O2S SGN d 250      49.334  29.658  -0.580  0.00  0.00    -0.296 OA
ATOM     59  C5  SGN d 250      44.358  27.270   2.662  0.00  0.00     0.091 C 
ATOM     60  O6  SGN d 250      42.542  25.989   3.550  0.00  0.00    -0.254 OA
ATOM     61  O1S SGN d 250      47.925  31.178   0.726  0.00  0.00    -0.296 OA
ATOM     62  O1  SGN d 250      44.995  26.897   0.235  0.00  0.00    -0.348 OA
ATOM     63  S2  SGN d 250      41.090  25.759   4.080  0.00  0.00     0.251 S 
ATOM     64  C6  SGN d 250      43.340  27.107   3.797  0.00  0.00     0.067 C 
ATOM     65  C3  SGN d 250      46.675  28.020   1.939  0.00  0.00     0.083 C 
ATOM     66  C2  SGN d 250      46.007  28.963   0.898  0.00  0.00     0.081 C 
ATOM     67  O6S SGN d 250      41.098  24.447   4.710  0.00  0.00    -0.572 OA
ATOM     68  O5  SGN d 250      43.787  28.168   1.635  0.00  0.00    -0.349 OA
ATOM     69  O4S SGN d 250      40.789  26.843   5.002  0.00  0.00    -0.572 OA
ATOM     70  N   SGN d 250      46.913  29.081  -0.291  0.00  0.00    -0.210 NA
ATOM     71  H   SGN d 250      48.315  27.986   3.029  0.00  0.00     0.210 HD
ATOM     72  H   SGN d 250      45.555  28.799   3.621  0.00  0.00     0.091 H 
ATOM     73  H   SGN d 250      46.754  31.426  -1.516  0.00  0.00     0.231 HD
ATOM     74  H   SGN d 250      44.203  28.770  -0.320  0.00  0.00     0.131 H 
ATOM     75  H   SGN d 250      49.561  29.208   0.249  0.00  0.00     0.231 HD
ATOM     76  H   SGN d 250      44.554  26.296   2.265  0.00  0.00     0.090 H 
ATOM     77  H   SGN d 250      48.199  30.688   1.516  0.00  0.00     0.231 HD
ATOM     78  H   SGN d 250      42.724  27.980   3.851  0.00  0.00     0.080 H 
ATOM     79  H   SGN d 250      43.858  26.978   4.725  0.00  0.00     0.080 H 
ATOM     80  H   SGN d 250      46.862  27.068   1.488  0.00  0.00     0.089 H 
ATOM     81  H   SGN d 250      45.827  29.947   1.277  0.00  0.00     0.076 H 
ATOM     82  H   SGN d 250      47.445  28.211  -0.331  0.00  0.00     0.140 HD
ATOM     83  C1  SGN d 252      44.274  18.920  -1.464  0.00  0.00     0.147 C 
ATOM     84  C2  SGN d 252      44.064  19.904  -0.291  0.00  0.00     0.081 C 
ATOM     85  S1  SGN d 252      42.196  18.974   1.447  0.00  0.00     0.156 S 
ATOM     86  O3  SGN d 252      44.268  22.178   0.285  0.00  0.00    -0.391 OA
ATOM     87  O2S SGN d 252      42.644  19.718   2.607  0.00  0.00    -0.296 OA
ATOM     88  O1  SGN d 252      43.410  19.298  -2.555  0.00  0.00    -0.369 OA
ATOM     89  S2  SGN d 252      49.757  19.548  -1.260  0.00  0.00     0.251 S 
ATOM     90  C3  SGN d 252      44.461  21.298  -0.770  0.00  0.00     0.083 C 
ATOM     91  C6  SGN d 252      47.594  20.024  -2.790  0.00  0.00     0.067 C 
ATOM     92  O6S SGN d 252      49.522  18.152  -1.616  0.00  0.00    -0.572 OA
ATOM     93  O1S SGN d 252      42.839  17.680   1.321  0.00  0.00    -0.296 OA
ATOM     94  O3S SGN d 252      40.739  18.869   1.391  0.00  0.00    -0.296 OA
ATOM     95  N   SGN d 252      42.630  19.880   0.124  0.00  0.00    -0.210 NA
ATOM     96  O5  SGN d 252      45.668  18.936  -1.884  0.00  0.00    -0.350 OA
ATOM     97  O6  SGN d 252      48.477  20.351  -1.737  0.00  0.00    -0.254 OA
ATOM     98  O5S SGN d 252      49.784  19.758   0.183  0.00  0.00    -0.572 OA
ATOM     99  C5  SGN d 252      46.150  20.227  -2.315  0.00  0.00     0.091 C 
ATOM    100  C4  SGN d 252      45.982  21.277  -1.171  0.00  0.00     0.095 C 
ATOM    101  O4S SGN d 252      50.910  20.124  -1.939  0.00  0.00    -0.572 OA
ATOM    102  H   SGN d 252      44.031  17.926  -1.151  0.00  0.00     0.131 H 
ATOM    103  H   SGN d 252      44.662  19.629   0.553  0.00  0.00     0.076 H 
ATOM    104  H   SGN d 252      43.329  22.188   0.530  0.00  0.00     0.210 HD
ATOM    105  H   SGN d 252      43.613  19.764   2.606  0.00  0.00     0.231 HD
ATOM    106  H   SGN d 252      43.628  20.199  -2.842  0.00  0.00     0.212 HD
ATOM    107  H   SGN d 252      43.877  21.599  -1.614  0.00  0.00     0.089 H 
ATOM    108  H   SGN d 252      47.788  20.657  -3.630  0.00  0.00     0.080 H 
ATOM    109  H   SGN d 252      47.739  19.004  -3.078  0.00  0.00     0.080 H 
ATOM    110  H   SGN d 252      43.802  17.791   1.363  0.00  0.00     0.231 HD
ATOM    111  H   SGN d 252      40.482  18.365   0.604  0.00  0.00     0.231 HD
ATOM    112  H   SGN d 252      42.095  19.526  -0.670  0.00  0.00     0.140 HD
ATOM    113  H   SGN d 252      45.586  20.628  -3.130  0.00  0.00     0.090 H 
ATOM    114  H   SGN d 252      46.574  21.037  -0.313  0.00  0.00     0.091 H 
ATOM    115  C3  IDS d 245      49.889  36.744  20.636  0.00  0.00     0.044 C 
ATOM    116  O2S IDS d 245      49.615  32.314  19.496  0.00  0.00    -0.572 OA
ATOM    117  O2  IDS d 245      49.029  34.649  19.935  0.00  0.00    -0.247 OA
ATOM    118  O3S IDS d 245      50.589  33.500  21.372  0.00  0.00    -0.572 OA
ATOM    119  O3  IDS d 245      50.462  36.164  21.784  0.00  0.00    -0.398 OA
ATOM    120  C2  IDS d 245      49.862  35.734  19.529  0.00  0.00     0.100 C 
ATOM    121  C1  IDS d 245      49.259  36.426  18.333  0.00  0.00     0.048 C 
ATOM    122  O1  IDS d 245      48.795  35.458  17.427  0.00  0.00    -0.378 OA
ATOM    123  O1S IDS d 245      48.242  32.921  21.385  0.00  0.00    -0.572 OA
ATOM    124  S   IDS d 245      49.406  33.261  20.577  0.00  0.00     0.252 S 
ATOM    125  H   IDS d 245      48.890  37.060  20.856  0.00  0.00     0.078 H 
ATOM    126  H   IDS d 245      50.471  37.590  20.334  0.00  0.00     0.078 H 
ATOM    127  H   IDS d 245      49.934  35.398  22.057  0.00  0.00     0.209 HD
ATOM    128  H   IDS d 245      50.836  35.358  19.296  0.00  0.00     0.092 H 
ATOM    129  H   IDS d 245      50.001  37.034  17.859  0.00  0.00     0.078 H 
ATOM    130  H   IDS d 245      48.445  37.045  18.648  0.00  0.00     0.078 H 
ATOM    131  C2  IDS d 247      46.353  33.507  10.914  0.00  0.00     0.134 C 
ATOM    132  O2  IDS d 247      47.031  34.400  10.005  0.00  0.00    -0.244 OA
ATOM    133  S   IDS d 247      46.409  35.279   8.786  0.00  0.00     0.252 S 
ATOM    134  C5  IDS d 247      45.609  31.977  13.056  0.00  0.00     0.152 C 
ATOM    135  O1S IDS d 247      45.190  34.578   8.432  0.00  0.00    -0.572 OA
ATOM    136  O3  IDS d 247      44.932  35.307  11.615  0.00  0.00    -0.390 OA
ATOM    137  O3S IDS d 247      47.395  35.266   7.701  0.00  0.00    -0.572 OA
ATOM    138  O62 IDS d 247      46.328  30.634  14.921  0.00  0.00    -0.646 OA
ATOM    139  O61 IDS d 247      44.276  30.980  14.796  0.00  0.00    -0.646 OA
ATOM    140  O5  IDS d 247      47.009  31.910  12.682  0.00  0.00    -0.340 OA
ATOM    141  O2S IDS d 247      46.143  36.607   9.295  0.00  0.00    -0.572 OA
ATOM    142  C1  IDS d 247      47.325  32.403  11.377  0.00  0.00     0.161 C 
ATOM    143  C4  IDS d 247      45.205  33.498  13.215  0.00  0.00     0.103 C 
ATOM    144  C6  IDS d 247      45.394  31.142  14.333  0.00  0.00     0.206 C 
ATOM    145  O1  IDS d 247      47.247  31.407  10.422  0.00  0.00    -0.348 OA
ATOM    146  C3  IDS d 247      45.859  34.336  12.086  0.00  0.00     0.094 C 
ATOM    147  H   IDS d 247      45.523  33.026  10.440  0.00  0.00     0.097 H 
ATOM    148  H   IDS d 247      44.972  31.560  12.304  0.00  0.00     0.104 H 
ATOM    149  H   IDS d 247      45.343  35.831  10.909  0.00  0.00     0.210 HD
ATOM    150  H   IDS d 247      48.319  32.787  11.464  0.00  0.00     0.133 H 
ATOM    151  H   IDS d 247      44.141  33.606  13.189  0.00  0.00     0.092 H 
ATOM    152  H   IDS d 247      46.720  34.802  12.519  0.00  0.00     0.091 H 
ATOM    153  C2  IDS d 251      47.127  24.870  -1.775  0.00  0.00     0.134 C 
ATOM    154  C1  IDS d 251      46.681  23.715  -0.835  0.00  0.00     0.161 C 
ATOM    155  O62 IDS d 251      42.137  25.261  -0.625  0.00  0.00    -0.646 OA
ATOM    156  C4  IDS d 251      45.128  26.347  -1.014  0.00  0.00     0.103 C 
ATOM    157  C5  IDS d 251      44.543  24.913  -0.834  0.00  0.00     0.152 C 
ATOM    158  C6  IDS d 251      43.166  24.892  -0.085  0.00  0.00     0.206 C 
ATOM    159  S   IDS d 251      49.637  24.876  -0.644  0.00  0.00     0.252 S 
ATOM    160  O3  IDS d 251      47.044  27.241  -2.187  0.00  0.00    -0.390 OA
ATOM    161  O61 IDS d 251      43.091  24.505   1.085  0.00  0.00    -0.646 OA
ATOM    162  O3S IDS d 251      50.910  24.721  -1.308  0.00  0.00    -0.572 OA
ATOM    163  O2  IDS d 251      48.553  24.937  -1.846  0.00  0.00    -0.244 OA
ATOM    164  O2S IDS d 251      49.302  23.757   0.217  0.00  0.00    -0.572 OA
ATOM    165  O5  IDS d 251      45.530  24.125  -0.078  0.00  0.00    -0.340 OA
ATOM    166  C3  IDS d 251      46.652  26.239  -1.268  0.00  0.00     0.094 C 
ATOM    167  O1S IDS d 251      49.509  26.153   0.044  0.00  0.00    -0.572 OA
ATOM    168  O1  IDS d 251      46.404  22.594  -1.694  0.00  0.00    -0.348 OA
ATOM    169  H   IDS d 251      46.694  24.658  -2.730  0.00  0.00     0.097 H 
ATOM    170  H   IDS d 251      47.431  23.450  -0.119  0.00  0.00     0.133 H 
ATOM    171  H   IDS d 251      44.657  26.888  -1.808  0.00  0.00     0.092 H 
ATOM    172  H   IDS d 251      44.357  24.503  -1.805  0.00  0.00     0.104 H 
ATOM    173  H   IDS d 251      47.998  27.176  -2.348  0.00  0.00     0.210 HD
ATOM    174  H   IDS d 251      47.118  26.373  -0.314  0.00  0.00     0.091 H 
ATOM    175  O5S SGN d 248      49.521  31.637  12.578  0.00  0.00    -0.572 OA
ATOM    176  O4S SGN d 248      51.875  31.926  12.092  0.00  0.00    -0.572 OA
ATOM    177  O2S SGN d 248      47.524  24.114  10.880  0.00  0.00    -0.296 OA
ATOM    178  O1  SGN d 248      48.478  27.894   8.237  0.00  0.00    -0.348 OA
ATOM    179  S1  SGN d 248      47.885  25.319  11.617  0.00  0.00     0.156 S 
ATOM    180  O3  SGN d 248      46.509  29.021  11.669  0.00  0.00    -0.391 OA
ATOM    181  O1S SGN d 248      47.121  25.509  12.832  0.00  0.00    -0.296 OA
ATOM    182  N   SGN d 248      47.540  26.572  10.591  0.00  0.00    -0.210 NA
ATOM    183  S2  SGN d 248      50.610  31.364  11.657  0.00  0.00     0.251 S 
ATOM    184  C4  SGN d 248      48.168  30.329  10.510  0.00  0.00     0.095 C 
ATOM    185  C6  SGN d 248      49.989  31.549   9.107  0.00  0.00     0.067 C 
ATOM    186  O6S SGN d 248      50.702  29.963  11.294  0.00  0.00    -0.572 OA
ATOM    187  O3S SGN d 248      49.310  25.394  11.876  0.00  0.00    -0.296 OA
ATOM    188  O5  SGN d 248      49.992  29.135   9.335  0.00  0.00    -0.349 OA
ATOM    189  C2  SGN d 248      48.325  27.839  10.605  0.00  0.00     0.081 C 
ATOM    190  C3  SGN d 248      47.359  29.031  10.533  0.00  0.00     0.083 C 
ATOM    191  C1  SGN d 248      49.269  27.908   9.357  0.00  0.00     0.150 C 
ATOM    192  O6  SGN d 248      50.198  32.115  10.363  0.00  0.00    -0.254 OA
ATOM    193  C5  SGN d 248      49.104  30.302   9.251  0.00  0.00     0.091 C 
ATOM    194  H   SGN d 248      46.566  24.102  10.728  0.00  0.00     0.231 HD
ATOM    195  H   SGN d 248      45.900  29.773  11.623  0.00  0.00     0.210 HD
ATOM    196  H   SGN d 248      46.174  25.454  12.630  0.00  0.00     0.231 HD
ATOM    197  H   SGN d 248      46.571  26.834  10.774  0.00  0.00     0.140 HD
ATOM    198  H   SGN d 248      48.769  30.440  11.387  0.00  0.00     0.091 H 
ATOM    199  H   SGN d 248      49.504  32.260   8.471  0.00  0.00     0.080 H 
ATOM    200  H   SGN d 248      50.930  31.273   8.679  0.00  0.00     0.080 H 
ATOM    201  H   SGN d 248      49.796  25.264  11.047  0.00  0.00     0.231 HD
ATOM    202  H   SGN d 248      48.907  27.870  11.502  0.00  0.00     0.076 H 
ATOM    203  H   SGN d 248      46.765  28.962   9.646  0.00  0.00     0.089 H 
ATOM    204  H   SGN d 248      49.953  27.086   9.394  0.00  0.00     0.131 H 
ATOM    205  H   SGN d 248      48.455  30.262   8.401  0.00  0.00     0.090 H 
ENDROOT
TORSDOF 64
ENDMDL
MODEL 34
REMARK VINA RESULT:       2.3      3.253     18.627
REMARK  0 active torsions:
REMARK  status: ('A' for Active; 'I' for Inactive)
REMARK       I    between atoms: C5_1  and  C6_97 
REMARK       I    between atoms: O2_2  and  C2_107 
REMARK       I    between atoms: O2_2  and  S_88 
REMARK       I    between atoms: O3_4  and  C3_95 
REMARK       I    between atoms: C1_5  and  O1_40 
REMARK       I    between atoms: C3_6  and  C2_70 
REMARK       I    between atoms: C3_6  and  O3_51 
REMARK       I    between atoms: C2_7  and  O2_9 
REMARK       I    between atoms: C2_8  and  O2_75 
REMARK       I    between atoms: O2_9  and  S_23 
REMARK       I    between atoms: S2_14  and  O6_117 
REMARK       I    between atoms: C1_15  and  O1_130 
REMARK       I    between atoms: C4_16  and  O1_59 
REMARK       I    between atoms: S1_17  and  N_128 
REMARK       I    between atoms: S1_17  and  O1S_46 
REMARK       I    between atoms: S1_17  and  O2S_29 
REMARK       I    between atoms: S1_17  and  O3S_24 
REMARK       I    between atoms: C2_18  and  N_86 
REMARK       I    between atoms: S1_19  and  N_86 
REMARK       I    between atoms: S1_19  and  O1S_71 
REMARK       I    between atoms: S1_19  and  O2S_34 
REMARK       I    between atoms: S1_19  and  O3S_81 
REMARK       I    between atoms: O2S_22  and  S1_111 
REMARK       I    between atoms: C1_25  and  O1_58 
REMARK       I    between atoms: C4_27  and  O1_58 
REMARK       I    between atoms: O2S_28  and  S1_48 
REMARK       I    between atoms: O3_32  and  C3_49 
REMARK       I    between atoms: O2_33  and  C2_70 
REMARK       I    between atoms: O2_33  and  S_133 
REMARK       I    between atoms: C5_37  and  C6_84 
REMARK       I    between atoms: C5_41  and  C6_43 
REMARK       I    between atoms: O6_42  and  C6_84 
REMARK       I    between atoms: O6_42  and  S2_77 
REMARK       I    between atoms: C5_44  and  C6_108 
REMARK       I    between atoms: O1_45  and  C1_120 
REMARK       I    between atoms: O1_45  and  C4_114 
REMARK       I    between atoms: S2_47  and  O6_94 
REMARK       I    between atoms: S1_48  and  N_53 
REMARK       I    between atoms: S1_48  and  O1S_52 
REMARK       I    between atoms: S1_48  and  O3S_83 
REMARK       I    between atoms: O3_50  and  C3_119 
REMARK       I    between atoms: N_53  and  C2_89 
REMARK       I    between atoms: S_55  and  O2_75 
REMARK       I    between atoms: O3_56  and  C3_124 
REMARK       I    between atoms: O1_59  and  C1_110 
REMARK       I    between atoms: S2_60  and  O6_132 
REMARK       I    between atoms: O3_61  and  C3_115 
REMARK       I    between atoms: C6_62  and  C5_106 
REMARK       I    between atoms: C6_62  and  O6_94 
REMARK       I    between atoms: C4_63  and  O1_96 
REMARK       I    between atoms: O3_67  and  C3_93 
REMARK       I    between atoms: O1_69  and  C1_113 
REMARK       I    between atoms: O1_69  and  C4_103 
REMARK       I    between atoms: C2_70  and  C1_76 
REMARK       I    between atoms: C5_74  and  C6_90 
REMARK       I    between atoms: C1_76  and  O1_96 
REMARK       I    between atoms: C4_78  and  O1_112 
REMARK       I    between atoms: C6_80  and  C5_134 
REMARK       I    between atoms: C6_80  and  O6_132 
REMARK       I    between atoms: C6_90  and  O6_117 
REMARK       I    between atoms: C2_98  and  N_128 
REMARK       I    between atoms: C1_100  and  O1_112 
REMARK       I    between atoms: S1_111  and  O1S_116 
REMARK       I    between atoms: C4_127  and  O1_130 
ROOT
ATOM      1  C5  IDS d 249      46.782  22.762   5.243  0.00  0.00     0.152 C 
ATOM      2  O2  IDS d 249      49.910  23.720   2.714  0.00  0.00    -0.244 OA
ATOM      3  O1S IDS d 249      50.290  26.103   3.033  0.00  0.00    -0.572 OA
ATOM      4  O5  IDS d 249      48.145  22.644   5.713  0.00  0.00    -0.340 OA
ATOM      5  O1  IDS d 249      49.160  21.154   4.281  0.00  0.00    -0.348 OA
ATOM      6  O62 IDS d 249      46.109  22.831   7.562  0.00  0.00    -0.646 OA
ATOM      7  O3  IDS d 249      47.100  25.013   2.743  0.00  0.00    -0.390 OA
ATOM      8  S   IDS d 249      50.970  24.832   3.220  0.00  0.00     0.252 S 
ATOM      9  C3  IDS d 249      47.894  24.479   3.717  0.00  0.00     0.094 C 
ATOM     10  C6  IDS d 249      45.813  22.524   6.421  0.00  0.00     0.206 C 
ATOM     11  O3S IDS d 249      52.134  24.690   2.373  0.00  0.00    -0.572 OA
ATOM     12  C2  IDS d 249      48.725  23.259   3.396  0.00  0.00     0.134 C 
ATOM     13  C1  IDS d 249      49.106  22.473   4.679  0.00  0.00     0.161 C 
ATOM     14  C4  IDS d 249      46.640  24.178   4.581  0.00  0.00     0.103 C 
ATOM     15  O2S IDS d 249      51.249  24.575   4.611  0.00  0.00    -0.572 OA
ATOM     16  O61 IDS d 249      44.711  22.009   6.229  0.00  0.00    -0.646 OA
ATOM     17  H   IDS d 249      46.535  22.026   4.507  0.00  0.00     0.104 H 
ATOM     18  H   IDS d 249      47.653  25.316   2.006  0.00  0.00     0.210 HD
ATOM     19  H   IDS d 249      48.709  25.073   4.076  0.00  0.00     0.091 H 
ATOM     20  H   IDS d 249      48.163  22.586   2.782  0.00  0.00     0.097 H 
ATOM     21  H   IDS d 249      50.033  22.819   5.087  0.00  0.00     0.133 H 
ATOM     22  H   IDS d 249      45.793  24.361   3.955  0.00  0.00     0.092 H 
ATOM     23  O3  SGN d 246      47.714  31.259  15.912  0.00  0.00    -0.215 OA
ATOM     24  S2  SGN d 246      50.843  36.290  13.081  0.00  0.00     0.251 S 
ATOM     25  O6S SGN d 246      51.825  35.243  13.022  0.00  0.00    -0.572 OA
ATOM     26  O2S SGN d 246      50.757  29.134  17.185  0.00  0.00    -0.294 OA
ATOM     27  C3  SGN d 246      48.269  31.557  14.650  0.00  0.00     0.121 C 
ATOM     28  C2  SGN d 246      49.768  31.223  14.637  0.00  0.00     0.084 C 
ATOM     29  O4S SGN d 246      50.651  36.956  11.820  0.00  0.00    -0.572 OA
ATOM     30  O5S SGN d 246      51.066  37.201  14.176  0.00  0.00    -0.572 OA
ATOM     31  N   SGN d 246      49.962  29.800  14.921  0.00  0.00    -0.208 NA
ATOM     32  C4  SGN d 246      48.121  33.030  14.384  0.00  0.00     0.095 C 
ATOM     33  O1  SGN d 246      49.732  30.850  12.196  0.00  0.00    -0.348 OA
ATOM     34  C5  SGN d 246      48.751  33.362  12.966  0.00  0.00     0.091 C 
ATOM     35  C6  SGN d 246      48.692  34.857  12.567  0.00  0.00     0.067 C 
ATOM     36  S1  SGN d 246      49.549  29.187  16.388  0.00  0.00     0.188 S 
ATOM     37  C1  SGN d 246      50.384  31.588  13.214  0.00  0.00     0.151 C 
ATOM     38  O1S SGN d 246      48.957  27.883  16.164  0.00  0.00    -0.294 OA
ATOM     39  O6  SGN d 246      49.509  35.602  13.430  0.00  0.00    -0.254 OA
ATOM     40  O5  SGN d 246      50.175  32.972  12.941  0.00  0.00    -0.349 OA
ATOM     41  O3S SGN d 246      48.589  30.135  16.912  0.00  0.00    -0.119 OA
ATOM     42  H   SGN d 246      51.371  28.489  16.800  0.00  0.00     0.231 HD
ATOM     43  H   SGN d 246      47.762  30.979  13.905  0.00  0.00     0.095 H 
ATOM     44  H   SGN d 246      50.266  31.797  15.391  0.00  0.00     0.077 H 
ATOM     45  H   SGN d 246      50.955  29.608  14.791  0.00  0.00     0.140 HD
ATOM     46  H   SGN d 246      48.633  33.626  15.110  0.00  0.00     0.091 H 
ATOM     47  H   SGN d 246      48.157  32.808  12.270  0.00  0.00     0.090 H 
ATOM     48  H   SGN d 246      47.683  35.207  12.640  0.00  0.00     0.080 H 
ATOM     49  H   SGN d 246      49.037  34.972  11.561  0.00  0.00     0.080 H 
ATOM     50  H   SGN d 246      51.428  31.355  13.233  0.00  0.00     0.131 H 
ATOM     51  H   SGN d 246      49.629  27.278  15.813  0.00  0.00     0.231 HD
ATOM     52  O3  SGN d 250      48.024  19.175   5.931  0.00  0.00    -0.391 OA
ATOM     53  O5S SGN d 250      55.062  20.804   2.162  0.00  0.00    -0.572 OA
ATOM     54  C4  SGN d 250      49.980  20.246   4.993  0.00  0.00     0.095 C 
ATOM     55  S1  SGN d 250      48.447  16.214   7.353  0.00  0.00     0.156 S 
ATOM     56  O3S SGN d 250      49.070  14.994   7.853  0.00  0.00    -0.296 OA
ATOM     57  C1  SGN d 250      51.350  17.706   4.944  0.00  0.00     0.150 C 
ATOM     58  O2S SGN d 250      47.072  15.987   6.878  0.00  0.00    -0.296 OA
ATOM     59  C5  SGN d 250      51.286  19.973   4.171  0.00  0.00     0.091 C 
ATOM     60  O6  SGN d 250      52.791  21.174   2.749  0.00  0.00    -0.254 OA
ATOM     61  O1S SGN d 250      48.562  17.299   8.315  0.00  0.00    -0.296 OA
ATOM     62  O1  SGN d 250      50.840  17.534   3.635  0.00  0.00    -0.348 OA
ATOM     63  S2  SGN d 250      54.132  21.882   2.375  0.00  0.00     0.251 S 
ATOM     64  C6  SGN d 250      52.152  21.226   3.989  0.00  0.00     0.067 C 
ATOM     65  C3  SGN d 250      49.193  18.929   5.160  0.00  0.00     0.083 C 
ATOM     66  C2  SGN d 250      50.094  17.887   5.883  0.00  0.00     0.081 C 
ATOM     67  O6S SGN d 250      53.863  22.624   1.151  0.00  0.00    -0.572 OA
ATOM     68  O5  SGN d 250      52.085  18.939   4.864  0.00  0.00    -0.349 OA
ATOM     69  O4S SGN d 250      54.503  22.729   3.497  0.00  0.00    -0.572 OA
ATOM     70  N   SGN d 250      49.337  16.598   5.999  0.00  0.00    -0.210 NA
ATOM     71  H   SGN d 250      47.467  19.826   5.475  0.00  0.00     0.210 HD
ATOM     72  H   SGN d 250      50.248  20.647   5.949  0.00  0.00     0.091 H 
ATOM     73  H   SGN d 250      49.970  15.190   8.154  0.00  0.00     0.231 HD
ATOM     74  H   SGN d 250      51.958  16.903   5.307  0.00  0.00     0.131 H 
ATOM     75  H   SGN d 250      46.700  16.823   6.556  0.00  0.00     0.231 HD
ATOM     76  H   SGN d 250      50.985  19.647   3.198  0.00  0.00     0.090 H 
ATOM     77  H   SGN d 250      48.140  18.095   7.956  0.00  0.00     0.231 HD
ATOM     78  H   SGN d 250      52.885  21.269   4.767  0.00  0.00     0.080 H 
ATOM     79  H   SGN d 250      51.533  22.097   4.034  0.00  0.00     0.080 H 
ATOM     80  H   SGN d 250      48.908  18.548   4.202  0.00  0.00     0.089 H 
ATOM     81  H   SGN d 250      50.383  18.193   6.866  0.00  0.00     0.076 H 
ATOM     82  H   SGN d 250      48.686  16.579   5.214  0.00  0.00     0.140 HD
ATOM     83  C1  SGN d 252      50.505  16.663  -4.499  0.00  0.00     0.147 C 
ATOM     84  C2  SGN d 252      50.746  17.758  -3.435  0.00  0.00     0.081 C 
ATOM     85  S1  SGN d 252      52.272  19.773  -4.428  0.00  0.00     0.156 S 
ATOM     86  O3  SGN d 252      50.834  18.097  -1.107  0.00  0.00    -0.391 OA
ATOM     87  O2S SGN d 252      51.830  20.802  -3.509  0.00  0.00    -0.296 OA
ATOM     88  O1  SGN d 252      51.518  15.646  -4.366  0.00  0.00    -0.369 OA
ATOM     89  S2  SGN d 252      45.187  16.191  -3.085  0.00  0.00     0.251 S 
ATOM     90  C3  SGN d 252      50.614  17.112  -2.059  0.00  0.00     0.083 C 
ATOM     91  C6  SGN d 252      47.536  14.877  -3.086  0.00  0.00     0.067 C 
ATOM     92  O6S SGN d 252      45.241  15.992  -4.530  0.00  0.00    -0.572 OA
ATOM     93  O1S SGN d 252      51.455  19.693  -5.625  0.00  0.00    -0.296 OA
ATOM     94  O3S SGN d 252      53.694  19.891  -4.744  0.00  0.00    -0.296 OA
ATOM     95  N   SGN d 252      52.112  18.331  -3.618  0.00  0.00    -0.210 NA
ATOM     96  O5  SGN d 252      49.177  16.089  -4.332  0.00  0.00    -0.350 OA
ATOM     97  O6  SGN d 252      46.615  15.789  -2.526  0.00  0.00    -0.254 OA
ATOM     98  O5S SGN d 252      45.051  17.596  -2.719  0.00  0.00    -0.572 OA
ATOM     99  C5  SGN d 252      48.941  15.491  -3.038  0.00  0.00     0.091 C 
ATOM    100  C4  SGN d 252      49.154  16.546  -1.907  0.00  0.00     0.095 C 
ATOM    101  O4S SGN d 252      44.207  15.336  -2.427  0.00  0.00    -0.572 OA
ATOM    102  H   SGN d 252      50.562  17.091  -5.479  0.00  0.00     0.131 H 
ATOM    103  H   SGN d 252      50.033  18.550  -3.531  0.00  0.00     0.076 H 
ATOM    104  H   SGN d 252      51.735  18.444  -1.203  0.00  0.00     0.210 HD
ATOM    105  H   SGN d 252      50.885  20.687  -3.327  0.00  0.00     0.231 HD
ATOM    106  H   SGN d 252      51.469  15.256  -3.479  0.00  0.00     0.212 HD
ATOM    107  H   SGN d 252      51.316  16.315  -1.935  0.00  0.00     0.089 H 
ATOM    108  H   SGN d 252      47.524  13.966  -2.524  0.00  0.00     0.080 H 
ATOM    109  H   SGN d 252      47.267  14.669  -4.100  0.00  0.00     0.080 H 
ATOM    110  H   SGN d 252      50.521  19.616  -5.375  0.00  0.00     0.231 HD
ATOM    111  H   SGN d 252      53.948  19.187  -5.360  0.00  0.00     0.231 HD
ATOM    112  H   SGN d 252      52.662  17.639  -4.126  0.00  0.00     0.140 HD
ATOM    113  H   SGN d 252      49.637  14.711  -2.811  0.00  0.00     0.090 H 
ATOM    114  H   SGN d 252      48.451  17.350  -1.967  0.00  0.00     0.091 H 
ATOM    115  C3  IDS d 245      45.527  36.269  16.200  0.00  0.00     0.044 C 
ATOM    116  O2S IDS d 245      45.236  35.577  11.680  0.00  0.00    -0.572 OA
ATOM    117  O2  IDS d 245      46.123  35.864  13.942  0.00  0.00    -0.247 OA
ATOM    118  O3S IDS d 245      44.274  37.215  13.185  0.00  0.00    -0.572 OA
ATOM    119  O3  IDS d 245      44.764  37.393  15.834  0.00  0.00    -0.398 OA
ATOM    120  C2  IDS d 245      45.509  35.269  15.083  0.00  0.00     0.100 C 
ATOM    121  C1  IDS d 245      46.324  34.091  15.551  0.00  0.00     0.048 C 
ATOM    122  O1  IDS d 245      46.722  33.335  14.436  0.00  0.00    -0.378 OA
ATOM    123  O1S IDS d 245      46.493  37.545  12.285  0.00  0.00    -0.572 OA
ATOM    124  S   IDS d 245      45.479  36.584  12.698  0.00  0.00     0.252 S 
ATOM    125  H   IDS d 245      46.536  36.570  16.393  0.00  0.00     0.078 H 
ATOM    126  H   IDS d 245      45.113  35.828  17.082  0.00  0.00     0.078 H 
ATOM    127  H   IDS d 245      45.139  37.793  15.034  0.00  0.00     0.209 HD
ATOM    128  H   IDS d 245      44.516  34.964  14.826  0.00  0.00     0.092 H 
ATOM    129  H   IDS d 245      45.733  33.483  16.204  0.00  0.00     0.078 H 
ATOM    130  H   IDS d 245      47.188  34.437  16.079  0.00  0.00     0.078 H 
ATOM    131  C2  IDS d 247      49.464  27.344  11.474  0.00  0.00     0.134 C 
ATOM    132  O2  IDS d 247      49.022  26.286  12.352  0.00  0.00    -0.244 OA
ATOM    133  S   IDS d 247      49.887  25.070  12.998  0.00  0.00     0.252 S 
ATOM    134  C5  IDS d 247      49.754  29.686  10.093  0.00  0.00     0.152 C 
ATOM    135  O1S IDS d 247      51.014  24.921  12.099  0.00  0.00    -0.572 OA
ATOM    136  O3  IDS d 247      51.067  28.033  13.121  0.00  0.00    -0.390 OA
ATOM    137  O3S IDS d 247      49.022  23.887  13.009  0.00  0.00    -0.572 OA
ATOM    138  O62 IDS d 247      48.660  31.574   9.073  0.00  0.00    -0.646 OA
ATOM    139  O61 IDS d 247      50.743  31.649   9.109  0.00  0.00    -0.646 OA
ATOM    140  O5  IDS d 247      48.403  29.165  10.184  0.00  0.00    -0.340 OA
ATOM    141  O2S IDS d 247      50.301  25.482  14.323  0.00  0.00    -0.572 OA
ATOM    142  C1  IDS d 247      48.296  27.794  10.575  0.00  0.00     0.161 C 
ATOM    143  C4  IDS d 247      50.367  29.751  11.549  0.00  0.00     0.103 C 
ATOM    144  C6  IDS d 247      49.714  31.051   9.378  0.00  0.00     0.206 C 
ATOM    145  O1  IDS d 247      48.315  26.949   9.481  0.00  0.00    -0.348 OA
ATOM    146  C3  IDS d 247      49.961  28.484  12.346  0.00  0.00     0.094 C 
ATOM    147  H   IDS d 247      50.254  27.012  10.833  0.00  0.00     0.097 H 
ATOM    148  H   IDS d 247      50.391  29.053   9.512  0.00  0.00     0.104 H 
ATOM    149  H   IDS d 247      50.811  27.240  13.618  0.00  0.00     0.210 HD
ATOM    150  H   IDS d 247      47.367  27.733  11.103  0.00  0.00     0.133 H 
ATOM    151  H   IDS d 247      51.432  29.834  11.503  0.00  0.00     0.092 H 
ATOM    152  H   IDS d 247      49.143  28.772  12.972  0.00  0.00     0.091 H 
ATOM    153  C2  IDS d 251      48.633  15.491   1.726  0.00  0.00     0.134 C 
ATOM    154  C1  IDS d 251      48.803  16.577   0.627  0.00  0.00     0.161 C 
ATOM    155  O62 IDS d 251      53.488  17.155   1.528  0.00  0.00    -0.646 OA
ATOM    156  C4  IDS d 251      50.748  16.334   2.979  0.00  0.00     0.103 C 
ATOM    157  C5  IDS d 251      51.089  16.708   1.504  0.00  0.00     0.152 C 
ATOM    158  C6  IDS d 251      52.366  17.607   1.369  0.00  0.00     0.206 C 
ATOM    159  S   IDS d 251      46.055  16.327   2.208  0.00  0.00     0.252 S 
ATOM    160  O3  IDS d 251      49.115  14.876   4.004  0.00  0.00    -0.390 OA
ATOM    161  O61 IDS d 251      52.267  18.809   1.103  0.00  0.00    -0.646 OA
ATOM    162  O3S IDS d 251      44.844  15.541   2.164  0.00  0.00    -0.572 OA
ATOM    163  O2  IDS d 251      47.247  15.254   1.986  0.00  0.00    -0.244 OA
ATOM    164  O2S IDS d 251      46.129  17.319   1.152  0.00  0.00    -0.572 OA
ATOM    165  O5  IDS d 251      49.924  17.418   0.949  0.00  0.00    -0.340 OA
ATOM    166  C3  IDS d 251      49.258  15.921   3.061  0.00  0.00     0.094 C 
ATOM    167  O1S IDS d 251      46.307  16.906   3.521  0.00  0.00    -0.572 OA
ATOM    168  O1  IDS d 251      48.990  15.860  -0.607  0.00  0.00    -0.348 OA
ATOM    169  H   IDS d 251      49.120  14.614   1.355  0.00  0.00     0.097 H 
ATOM    170  H   IDS d 251      47.956  17.224   0.549  0.00  0.00     0.133 H 
ATOM    171  H   IDS d 251      51.371  15.552   3.360  0.00  0.00     0.092 H 
ATOM    172  H   IDS d 251      51.304  15.807   0.971  0.00  0.00     0.104 H 
ATOM    173  H   IDS d 251      48.183  14.615   4.058  0.00  0.00     0.210 HD
ATOM    174  H   IDS d 251      48.727  16.801   3.360  0.00  0.00     0.091 H 
ATOM    175  O5S SGN d 248      45.901  28.804  10.260  0.00  0.00    -0.572 OA
ATOM    176  O4S SGN d 248      43.678  28.032  10.826  0.00  0.00    -0.572 OA
ATOM    177  O2S SGN d 248      46.889  28.036   2.393  0.00  0.00    -0.296 OA
ATOM    178  O1  SGN d 248      46.784  24.968   5.965  0.00  0.00    -0.348 OA
ATOM    179  S1  SGN d 248      46.645  28.615   3.708  0.00  0.00     0.156 S 
ATOM    180  O3  SGN d 248      48.555  28.483   7.162  0.00  0.00    -0.391 OA
ATOM    181  O1S SGN d 248      47.306  29.886   3.917  0.00  0.00    -0.296 OA
ATOM    182  N   SGN d 248      47.275  27.524   4.783  0.00  0.00    -0.210 NA
ATOM    183  S2  SGN d 248      44.879  27.795  10.047  0.00  0.00     0.251 S 
ATOM    184  C4  SGN d 248      47.236  27.030   8.560  0.00  0.00     0.095 C 
ATOM    185  C6  SGN d 248      45.767  25.326   9.869  0.00  0.00     0.067 C 
ATOM    186  O6S SGN d 248      44.612  27.554   8.643  0.00  0.00    -0.572 OA
ATOM    187  O3S SGN d 248      45.230  28.704   4.011  0.00  0.00    -0.296 OA
ATOM    188  O5  SGN d 248      45.376  25.771   7.517  0.00  0.00    -0.349 OA
ATOM    189  C2  SGN d 248      46.694  27.334   6.142  0.00  0.00     0.081 C 
ATOM    190  C3  SGN d 248      47.832  27.262   7.171  0.00  0.00     0.083 C 
ATOM    191  C1  SGN d 248      45.898  25.987   6.210  0.00  0.00     0.150 C 
ATOM    192  O6  SGN d 248      45.525  26.493  10.590  0.00  0.00    -0.254 OA
ATOM    193  C5  SGN d 248      46.435  25.682   8.531  0.00  0.00     0.091 C 
ATOM    194  H   SGN d 248      47.844  27.995   2.229  0.00  0.00     0.231 HD
ATOM    195  H   SGN d 248      49.274  28.437   7.812  0.00  0.00     0.210 HD
ATOM    196  H   SGN d 248      48.249  29.798   3.707  0.00  0.00     0.231 HD
ATOM    197  H   SGN d 248      48.250  27.791   4.923  0.00  0.00     0.140 HD
ATOM    198  H   SGN d 248      46.576  27.820   8.848  0.00  0.00     0.091 H 
ATOM    199  H   SGN d 248      46.415  24.686  10.431  0.00  0.00     0.080 H 
ATOM    200  H   SGN d 248      44.842  24.821   9.684  0.00  0.00     0.080 H 
ATOM    201  H   SGN d 248      44.813  27.841   3.863  0.00  0.00     0.231 HD
ATOM    202  H   SGN d 248      46.039  28.154   6.351  0.00  0.00     0.076 H 
ATOM    203  H   SGN d 248      48.493  26.458   6.924  0.00  0.00     0.089 H 
ATOM    204  H   SGN d 248      45.097  26.021   5.502  0.00  0.00     0.131 H 
ATOM    205  H   SGN d 248      47.150  24.917   8.310  0.00  0.00     0.090 H 
ENDROOT
TORSDOF 64
ENDMDL
