REMARK  0 active torsions:
REMARK  status: ('A' for Active; 'I' for Inactive)
REMARK       I    between atoms: C6_2  and  C5_74 
REMARK       I    between atoms: C1_3  and  O4_24 
REMARK       I    between atoms: O6_4  and  C6_26 
REMARK       I    between atoms: C5_5  and  C6_12 
REMARK       I    between atoms: C4_6  and  O4_22 
REMARK       I    between atoms: C6_8  and  C5_90 
REMARK       I    between atoms: C6_8  and  O6_83 
REMARK       I    between atoms: O3_11  and  C3_60 
REMARK       I    between atoms: O3_11  and  C1_29 
REMARK       I    between atoms: C5_13  and  C6_18 
REMARK       I    between atoms: O4_14  and  C4_88 
REMARK       I    between atoms: O4_14  and  S_15 
REMARK       I    between atoms: C6_16  and  C5_28 
REMARK       I    between atoms: S_17  and  O4_22 
REMARK       I    between atoms: C6_18  and  O6_66 
REMARK       I    between atoms: O4_20  and  C4_46 
REMARK       I    between atoms: O4_20  and  C1_61 
REMARK       I    between atoms: O4_21  and  C4_54 
REMARK       I    between atoms: O4_21  and  S_40 
REMARK       I    between atoms: O4_24  and  C4_35 
REMARK       I    between atoms: O3_25  and  C3_48 
REMARK       I    between atoms: C6_26  and  C5_50 
REMARK       I    between atoms: C2_27  and  O2_55 
REMARK       I    between atoms: O3_31  and  C3_37 
REMARK       I    between atoms: C2_32  and  N_72 
REMARK       I    between atoms: C7_33  and  C8_39 
REMARK       I    between atoms: C7_33  and  N_52 
REMARK       I    between atoms: C1_34  and  O4_86 
REMARK       I    between atoms: C3_36  and  O3_87 
REMARK       I    between atoms: C2_47  and  O2_85 
REMARK       I    between atoms: N_52  and  C2_71 
REMARK       I    between atoms: C3_53  and  O3_81 
REMARK       I    between atoms: C1_56  and  O3_81 
REMARK       I    between atoms: C7_57  and  C8_64 
REMARK       I    between atoms: C7_57  and  N_63 
REMARK       I    between atoms: C8_58  and  C7_73 
REMARK       I    between atoms: C1_59  and  O1_68 
REMARK       I    between atoms: N_63  and  C2_67 
REMARK       I    between atoms: C4_69  and  O4_86 
REMARK       I    between atoms: N_72  and  C7_73 
REMARK       I    between atoms: C2_77  and  O2_82 
ROOT
ATOM      1  OSB ASG d 302      17.283  41.819  43.538  0.00  0.00    -0.572 OA
ATOM      2  O6  ASG d 302      16.917  38.558  40.615  0.00  0.00    -0.398 OA
ATOM      3  O4  ASG d 302      18.823  39.993  44.229  0.00  0.00    -0.246 OA
ATOM      4  S   ASG d 302      18.056  41.330  44.663  0.00  0.00     0.252 S 
ATOM      5  C6  ASG d 302      17.294  39.214  41.822  0.00  0.00     0.043 C 
ATOM      6  C2  ASG d 302      20.245  37.565  44.460  0.00  0.00     0.087 C 
ATOM      7  C1  ASG d 302      20.119  37.134  43.006  0.00  0.00     0.154 C 
ATOM      8  O5  ASG d 302      19.348  38.079  42.229  0.00  0.00    -0.349 OA
ATOM      9  C5  ASG d 302      18.008  38.259  42.744  0.00  0.00     0.090 C 
ATOM     10  O7  ASG d 302      22.580  38.014  46.084  0.00  0.00    -0.274 OA
ATOM     11  C3  ASG d 302      18.842  37.701  45.023  0.00  0.00     0.094 C 
ATOM     12  C8  ASG d 302      22.746  35.696  46.689  0.00  0.00    -0.003 C 
ATOM     13  OSA ASG d 302      17.171  41.060  45.781  0.00  0.00    -0.572 OA
ATOM     14  N   ASG d 302      21.013  36.541  45.229  0.00  0.00    -0.349 N 
ATOM     15  C7  ASG d 302      22.131  36.883  45.985  0.00  0.00     0.214 C 
ATOM     16  OSC ASG d 302      19.027  42.329  45.048  0.00  0.00    -0.572 OA
ATOM     17  O3  ASG d 302      18.957  38.150  46.325  0.00  0.00    -0.348 OA
ATOM     18  C4  ASG d 302      18.083  38.757  44.202  0.00  0.00     0.114 C 
ATOM     19  H   ASG d 302      16.460  39.186  40.035  0.00  0.00     0.209 HD
ATOM     20  H   ASG d 302      16.417  39.584  42.310  0.00  0.00     0.078 H 
ATOM     21  H   ASG d 302      17.954  40.022  41.584  0.00  0.00     0.078 H 
ATOM     22  H   ASG d 302      20.767  38.496  44.534  0.00  0.00     0.084 H 
ATOM     23  H   ASG d 302      19.620  36.188  42.995  0.00  0.00     0.132 H 
ATOM     24  H   ASG d 302      17.456  37.343  42.769  0.00  0.00     0.090 H 
ATOM     25  H   ASG d 302      18.321  36.767  44.985  0.00  0.00     0.091 H 
ATOM     26  H   ASG d 302      23.597  36.017  47.252  0.00  0.00     0.040 H 
ATOM     27  H   ASG d 302      23.051  34.970  45.964  0.00  0.00     0.040 H 
ATOM     28  H   ASG d 302      22.026  35.260  47.349  0.00  0.00     0.040 H 
ATOM     29  H   ASG d 302      20.722  35.601  45.201  0.00  0.00     0.163 HD
ATOM     30  H   ASG d 302      17.103  38.912  44.603  0.00  0.00     0.093 H 
ATOM     31  C6  BDP d 303      14.765  36.444  47.620  0.00  0.00     0.206 C 
ATOM     32  O4  BDP d 303      15.899  36.136  50.349  0.00  0.00    -0.348 OA
ATOM     33  O3  BDP d 303      18.333  37.427  51.001  0.00  0.00    -0.390 OA
ATOM     34  C3  BDP d 303      18.039  36.933  49.684  0.00  0.00     0.092 C 
ATOM     35  O6B BDP d 303      14.141  37.496  47.866  0.00  0.00    -0.646 OA
ATOM     36  C4  BDP d 303      16.525  36.966  49.431  0.00  0.00     0.103 C 
ATOM     37  C2  BDP d 303      18.708  37.829  48.660  0.00  0.00     0.110 C 
ATOM     38  O6A BDP d 303      14.359  35.375  47.109  0.00  0.00    -0.646 OA
ATOM     39  C1  BDP d 303      18.379  37.317  47.267  0.00  0.00     0.160 C 
ATOM     40  C5  BDP d 303      16.245  36.444  47.996  0.00  0.00     0.152 C 
ATOM     41  O5  BDP d 303      16.945  37.286  47.038  0.00  0.00    -0.340 OA
ATOM     42  O2  BDP d 303      20.128  37.813  48.835  0.00  0.00    -0.388 OA
ATOM     43  H   BDP d 303      19.291  37.401  51.149  0.00  0.00     0.210 HD
ATOM     44  H   BDP d 303      18.397  35.928  49.604  0.00  0.00     0.091 H 
ATOM     45  H   BDP d 303      16.155  37.965  49.533  0.00  0.00     0.092 H 
ATOM     46  H   BDP d 303      18.351  38.830  48.786  0.00  0.00     0.094 H 
ATOM     47  H   BDP d 303      18.762  36.322  47.182  0.00  0.00     0.133 H 
ATOM     48  H   BDP d 303      16.586  35.430  47.974  0.00  0.00     0.104 H 
ATOM     49  H   BDP d 303      20.458  36.908  48.721  0.00  0.00     0.210 HD
ATOM     50  C1  ASG d 306       6.718  36.695  50.111  0.00  0.00     0.151 C 
ATOM     51  C4  ASG d 306       4.617  38.681  49.625  0.00  0.00     0.089 C 
ATOM     52  C6  ASG d 306       6.400  40.396  50.214  0.00  0.00     0.043 C 
ATOM     53  S   ASG d 306       2.813  39.597  51.221  0.00  0.00     0.252 S 
ATOM     54  O4  ASG d 306       4.113  38.724  50.961  0.00  0.00    -0.249 OA
ATOM     55  OSB ASG d 306       2.447  39.492  52.622  0.00  0.00    -0.572 OA
ATOM     56  OSA ASG d 306       3.096  40.984  50.898  0.00  0.00    -0.572 OA
ATOM     57  C3  ASG d 306       4.399  37.230  49.064  0.00  0.00    -0.014 C 
ATOM     58  C7  ASG d 306       4.984  33.813  50.505  0.00  0.00     0.214 C 
ATOM     59  N   ASG d 306       5.222  34.846  49.595  0.00  0.00    -0.352 N 
ATOM     60  C8  ASG d 306       4.978  32.454  49.851  0.00  0.00    -0.003 C 
ATOM     61  C2  ASG d 306       5.282  36.274  50.040  0.00  0.00     0.062 C 
ATOM     62  O5  ASG d 306       6.833  38.071  50.544  0.00  0.00    -0.349 OA
ATOM     63  O6  ASG d 306       7.801  40.633  50.342  0.00  0.00    -0.398 OA
ATOM     64  O7  ASG d 306       4.805  33.972  51.709  0.00  0.00    -0.274 OA
ATOM     65  OSC ASG d 306       1.729  39.117  50.393  0.00  0.00    -0.572 OA
ATOM     66  C5  ASG d 306       6.138  39.010  49.667  0.00  0.00     0.088 C 
ATOM     67  H   ASG d 306       7.159  36.623  49.139  0.00  0.00     0.132 H 
ATOM     68  H   ASG d 306       4.114  39.388  48.998  0.00  0.00     0.089 H 
ATOM     69  H   ASG d 306       5.939  40.487  51.176  0.00  0.00     0.078 H 
ATOM     70  H   ASG d 306       5.991  41.116  49.536  0.00  0.00     0.078 H 
ATOM     71  H   ASG d 306       4.745  37.160  48.054  0.00  0.00     0.040 H 
ATOM     72  H   ASG d 306       3.366  36.952  49.051  0.00  0.00     0.040 H 
ATOM     73  H   ASG d 306       5.353  34.631  48.643  0.00  0.00     0.163 HD
ATOM     74  H   ASG d 306       5.154  32.563  48.801  0.00  0.00     0.040 H 
ATOM     75  H   ASG d 306       4.028  31.987  50.007  0.00  0.00     0.040 H 
ATOM     76  H   ASG d 306       5.748  31.848  50.281  0.00  0.00     0.040 H 
ATOM     77  H   ASG d 306       4.851  36.372  51.015  0.00  0.00     0.080 H 
ATOM     78  H   ASG d 306       8.184  39.986  50.955  0.00  0.00     0.209 HD
ATOM     79  H   ASG d 306       6.492  38.943  48.659  0.00  0.00     0.090 H 
ATOM     80  C5  BDP d 305       9.445  34.609  51.079  0.00  0.00     0.152 C 
ATOM     81  O6B BDP d 305      10.239  35.123  48.930  0.00  0.00    -0.646 OA
ATOM     82  C6  BDP d 305       9.467  34.387  49.573  0.00  0.00     0.206 C 
ATOM     83  O4  BDP d 305       7.378  35.855  51.003  0.00  0.00    -0.348 OA
ATOM     84  O3  BDP d 305       7.977  37.173  53.449  0.00  0.00    -0.390 OA
ATOM     85  C2  BDP d 305      10.143  36.161  53.436  0.00  0.00     0.110 C 
ATOM     86  C1  BDP d 305      10.940  34.930  52.979  0.00  0.00     0.160 C 
ATOM     87  C4  BDP d 305       8.669  35.881  51.492  0.00  0.00     0.103 C 
ATOM     88  O6A BDP d 305       8.694  33.485  49.167  0.00  0.00    -0.646 OA
ATOM     89  C3  BDP d 305       8.691  36.009  53.027  0.00  0.00     0.092 C 
ATOM     90  O2  BDP d 305      10.271  36.282  54.855  0.00  0.00    -0.388 OA
ATOM     91  O5  BDP d 305      10.826  34.740  51.536  0.00  0.00    -0.340 OA
ATOM     92  H   BDP d 305       8.946  33.774  51.525  0.00  0.00     0.104 H 
ATOM     93  H   BDP d 305       8.003  37.235  54.417  0.00  0.00     0.210 HD
ATOM     94  H   BDP d 305      10.522  37.048  52.974  0.00  0.00     0.094 H 
ATOM     95  H   BDP d 305      10.535  34.074  53.477  0.00  0.00     0.133 H 
ATOM     96  H   BDP d 305       9.144  36.740  51.067  0.00  0.00     0.092 H 
ATOM     97  H   BDP d 305       8.233  35.151  53.472  0.00  0.00     0.091 H 
ATOM     98  H   BDP d 305       9.929  35.480  55.280  0.00  0.00     0.210 HD
ATOM     99  O6B BDP d 301      22.271  33.521  42.162  0.00  0.00    -0.646 OA
ATOM    100  C6  BDP d 301      22.856  34.560  42.540  0.00  0.00     0.206 C 
ATOM    101  O6A BDP d 301      23.381  34.827  43.643  0.00  0.00    -0.646 OA
ATOM    102  O5  BDP d 301      23.447  35.105  40.269  0.00  0.00    -0.340 OA
ATOM    103  C5  BDP d 301      22.948  35.671  41.502  0.00  0.00     0.152 C 
ATOM    104  C3  BDP d 301      21.828  37.464  40.156  0.00  0.00     0.092 C 
ATOM    105  C1  BDP d 301      23.590  36.092  39.202  0.00  0.00     0.156 C 
ATOM    106  O1  BDP d 301      24.159  35.362  38.010  0.00  0.00    -0.368 OA
ATOM    107  C4  BDP d 301      21.624  36.395  41.259  0.00  0.00     0.103 C 
ATOM    108  C2  BDP d 301      22.292  36.774  38.882  0.00  0.00     0.110 C 
ATOM    109  O2  BDP d 301      22.522  37.715  37.836  0.00  0.00    -0.388 OA
ATOM    110  O4  BDP d 301      21.364  37.047  42.449  0.00  0.00    -0.348 OA
ATOM    111  O3  BDP d 301      20.595  38.138  39.896  0.00  0.00    -0.390 OA
ATOM    112  H   BDP d 301      23.616  36.415  41.882  0.00  0.00     0.104 H 
ATOM    113  H   BDP d 301      22.558  38.175  40.482  0.00  0.00     0.091 H 
ATOM    114  H   BDP d 301      24.245  36.881  39.507  0.00  0.00     0.133 H 
ATOM    115  H   BDP d 301      23.554  34.651  37.747  0.00  0.00     0.212 HD
ATOM    116  H   BDP d 301      20.841  35.730  40.961  0.00  0.00     0.092 H 
ATOM    117  H   BDP d 301      21.541  36.087  38.552  0.00  0.00     0.094 H 
ATOM    118  H   BDP d 301      23.201  38.349  38.115  0.00  0.00     0.210 HD
ATOM    119  H   BDP d 301      19.931  37.495  39.601  0.00  0.00     0.210 HD
ATOM    120  OSC ASG d 304      15.144  35.609  56.795  0.00  0.00    -0.572 OA
ATOM    121  O3  ASG d 304      12.303  35.081  53.315  0.00  0.00    -0.348 OA
ATOM    122  C5  ASG d 304      14.368  38.207  52.895  0.00  0.00     0.090 C 
ATOM    123  C6  ASG d 304      15.026  39.217  53.803  0.00  0.00     0.043 C 
ATOM    124  O4  ASG d 304      14.532  36.419  54.531  0.00  0.00    -0.246 OA
ATOM    125  C7  ASG d 304      14.227  33.467  50.317  0.00  0.00     0.214 C 
ATOM    126  C8  ASG d 304      13.440  32.671  49.301  0.00  0.00    -0.003 C 
ATOM    127  S   ASG d 304      14.191  36.442  56.090  0.00  0.00     0.252 S 
ATOM    128  OSB ASG d 304      14.268  37.802  56.593  0.00  0.00    -0.572 OA
ATOM    129  N   ASG d 304      13.533  34.573  50.786  0.00  0.00    -0.349 N 
ATOM    130  C4  ASG d 304      13.610  37.102  53.667  0.00  0.00     0.114 C 
ATOM    131  C3  ASG d 304      13.004  36.117  52.646  0.00  0.00     0.094 C 
ATOM    132  C1  ASG d 304      14.856  36.655  51.100  0.00  0.00     0.154 C 
ATOM    133  O7  ASG d 304      15.352  33.159  50.675  0.00  0.00    -0.274 OA
ATOM    134  O6  ASG d 304      15.326  40.418  53.090  0.00  0.00    -0.398 OA
ATOM    135  O5  ASG d 304      15.402  37.612  52.055  0.00  0.00    -0.349 OA
ATOM    136  C2  ASG d 304      14.114  35.513  51.802  0.00  0.00     0.087 C 
ATOM    137  OSA ASG d 304      12.845  35.935  56.302  0.00  0.00    -0.572 OA
ATOM    138  H   ASG d 304      13.634  38.715  52.306  0.00  0.00     0.090 H 
ATOM    139  H   ASG d 304      15.933  38.803  54.190  0.00  0.00     0.078 H 
ATOM    140  H   ASG d 304      14.354  39.450  54.602  0.00  0.00     0.078 H 
ATOM    141  H   ASG d 304      12.486  33.131  49.148  0.00  0.00     0.040 H 
ATOM    142  H   ASG d 304      13.301  31.673  49.660  0.00  0.00     0.040 H 
ATOM    143  H   ASG d 304      13.976  32.645  48.375  0.00  0.00     0.040 H 
ATOM    144  H   ASG d 304      12.628  34.747  50.440  0.00  0.00     0.163 HD
ATOM    145  H   ASG d 304      12.826  37.525  54.260  0.00  0.00     0.093 H 
ATOM    146  H   ASG d 304      12.320  36.649  52.018  0.00  0.00     0.091 H 
ATOM    147  H   ASG d 304      14.152  37.163  50.474  0.00  0.00     0.132 H 
ATOM    148  H   ASG d 304      15.936  40.218  52.362  0.00  0.00     0.209 HD
ATOM    149  H   ASG d 304      14.790  34.961  52.421  0.00  0.00     0.084 H 
ENDROOT
TORSDOF 38
